data_mof_unit_58961.cif
_audit_creation_date              2012-12-11T15:29:46-0500
_audit_creation_method            fapswitch 2.2
_symmetry_space_group_name_H-M    P1
_symmetry_Int_Tables_number       1
_space_group_crystal_system       triclinic
_cell_length_a                    21.540319
_cell_length_b                    7.248562
_cell_length_c                    14.690742
_cell_angle_alpha                 90.000198
_cell_angle_beta                  74.256721
_cell_angle_gamma                 90.00023
_cell_volume                      2207.7130489

loop_
_atom_site_label
_atom_site_type_symbol
_atom_type_description
_atom_site_fract_x
_atom_site_fract_y
_atom_site_fract_z
_atom_type_partial_charge
O1    O     O_R   0.464160 0.506670 0.130070 -0.523041
O2    O     O_R   0.535840 0.006670 0.869930 -0.523039
O3    O     O_R   0.589710 0.179080 0.006710 -0.553719
O4    O     O_R   0.410290 0.679080 0.993290 -0.553727
C1    C     C_R   0.616689 0.344715 0.999186 0.698905
C2    C     C_R   0.383312 0.844714 0.000810 0.698922
O5    O     O_R   0.467940 0.177220 0.138010 -0.535333
O6    O     O_R   0.532060 0.677220 0.861990 -0.535339
O7    O     O_R   0.413200 0.002810 0.002170 -0.529863
O8    O     O_R   0.586800 0.502810 0.997830 -0.529873
C3    C     C_R   0.455972 0.346740 0.175080 0.735811
C4    C     C_R   0.544028 0.846740 0.824920 0.735796
O9    O     O_3   0.482180 0.337850 0.955280 -0.363982
O10   O     O_3   0.517820 0.837850 0.044720 -0.363974
V1    V     V_3+5 0.503310 0.064600 0.008300 1.481921
V2    V     V_3+5 0.496690 0.564600 0.991700 1.481903
C5    C     C_R   0.571009 0.864076 0.721654 -0.139387
C6    C     C_R   0.428990 0.364076 0.278346 -0.139393
C7    C     C_R   0.927832 0.854346 0.277444 -0.050315
C8    C     C_R   0.072169 0.354344 0.722556 -0.050313
C9    C     C_R   0.567074 0.989267 0.569544 0.331459
C10   C     C_R   0.432926 0.489264 0.430456 0.331459
C11   C     C_R   0.539929 0.972460 0.667471 0.237391
C12   C     C_R   0.460070 0.472459 0.332530 0.237391
C13   C     C_R   0.633102 0.796183 0.679974 -0.232881
C14   C     C_R   0.366898 0.296181 0.320026 -0.232879
C15   C     C_R   0.665158 0.833081 0.583990 0.050282
C16   C     C_R   0.334842 0.333076 0.416009 0.050280
C17   C     C_R   0.628993 0.916238 0.527439 -0.032284
C18   C     C_R   0.371007 0.416233 0.472561 -0.032281
C19   C     C_R   0.732143 0.794412 0.542627 0.063068
C20   C     C_R   0.267857 0.294406 0.457372 0.063069
C21   C     C_R   0.760160 0.827869 0.443792 0.001257
C22   C     C_R   0.239840 0.327861 0.556207 0.001259
C23   C     C_R   0.717747 0.866551 0.387201 0.206453
C24   C     C_R   0.282253 0.366539 0.612799 0.206450
C25   C     C_R   0.654789 0.920960 0.429360 -0.084342
C26   C     C_R   0.345212 0.420949 0.570641 -0.084343
C27   C     C_R   0.772409 0.728742 0.597199 -0.171561
C28   C     C_R   0.227591 0.228738 0.402800 -0.171567
C29   C     C_R   0.837720 0.697656 0.557103 -0.209474
C30   C     C_R   0.162279 0.197653 0.442896 -0.209472
C31   C     C_R   0.866510 0.743390 0.462993 0.137076
C32   C     C_R   0.133490 0.243387 0.537006 0.137076
C33   C     C_R   0.828774 0.817642 0.406273 0.103719
C34   C     C_R   0.171226 0.317636 0.593727 0.103720
C35   C     C_R   0.933220 0.718522 0.425447 -0.164306
C36   C     C_R   0.066780 0.218522 0.574552 -0.164307
C37   C     C_R   0.963155 0.767533 0.332170 -0.176621
C38   C     C_R   0.036844 0.267533 0.667830 -0.176620
C39   C     C_R   0.861868 0.887126 0.316073 -0.172960
C40   C     C_R   0.138132 0.387119 0.683927 -0.172961
H1    H     H_    0.625187 0.958355 0.383438 0.214619
H2    H     H_    0.374814 0.458342 0.616563 0.214619
H3    H     H_    0.837558 0.966694 0.274337 0.154895
H4    H     H_    0.162444 0.466683 0.725664 0.154891
H5    H     H_    0.013831 0.736716 0.302400 0.110141
H6    H     H_    0.986169 0.236716 0.697599 0.110143
H7    H     H_    0.866476 0.644037 0.601369 0.123845
H8    H     H_    0.133523 0.144037 0.398629 0.123847
H9    H     H_    0.655869 0.720704 0.725296 0.113651
H10   H     H_    0.344131 0.220703 0.274703 0.113648
H11   H     H_    0.755165 0.701723 0.671834 0.112999
H12   H     H_    0.244834 0.201718 0.328164 0.113005
H13   H     H_    0.961987 0.657199 0.467676 0.118471
H14   H     H_    0.038011 0.157201 0.532323 0.118471
C41   C     C_3   0.226073 0.741890 0.919959 -0.031856
C42   C     C_3   0.773927 0.241903 0.080041 -0.031868
H15   H     H_    0.208733 0.597379 0.929755 0.165675
H16   H     H_    0.791268 0.097393 0.070254 0.165690
C43   C     C_3   0.299557 0.738782 0.918836 -0.116417
C44   C     C_3   0.700444 0.238786 0.081156 -0.116402
H17   H     H_    0.311158 0.592029 0.929743 0.154566
H18   H     H_    0.688846 0.092033 0.070245 0.154554
H19   H     H_    0.281443 0.610511 0.088451 0.122014
H20   H     H_    0.718548 0.110537 0.911524 0.122003
C45   C     C_3   0.193383 0.775220 0.103877 0.307400
C46   C     C_3   0.806618 0.275199 0.896122 0.307404
C47   C     C_3   0.215880 0.057518 0.994399 -0.352562
C48   C     C_3   0.784122 0.557518 0.005590 -0.352576
C49   C     C_3   0.185905 0.859351 0.006365 0.006288
C50   C     C_3   0.814096 0.359348 0.993632 0.006298
H21   H     H_    0.185981 0.151670 0.048024 0.161028
H22   H     H_    0.814023 0.651659 0.951961 0.161036
H23   H     H_    0.212763 0.119456 0.926868 0.188845
H24   H     H_    0.787239 0.619468 0.073118 0.188842
C51   C     C_3   0.311408 0.853584 0.004629 -0.013183
C52   C     C_3   0.688594 0.353590 0.995364 -0.013186
C53   C     C_3   0.268359 0.758885 0.097249 -0.002162
C54   C     C_3   0.731642 0.258905 0.902741 -0.002153
C55   C     C_3   0.287366 0.057441 0.997183 0.051693
C56   C     C_3   0.712637 0.557445 0.002806 0.051701
H25   H     H_    0.316199 0.111699 0.927740 0.186283
H26   H     H_    0.683802 0.611710 0.072246 0.186278
O11   O     O_R   0.913210 0.208550 0.002110 -0.540511
O12   O     O_R   0.086790 0.708550 0.997890 -0.540509
O13   O     O_R   0.032060 0.539960 0.861980 -0.543365
O14   O     O_R   0.967940 0.039960 0.138020 -0.543365
C57   C     C_R   0.044108 0.371799 0.824968 0.701213
C58   C     C_R   0.955892 0.871800 0.175032 0.701218
O15   O     O_R   0.910290 0.538020 0.993280 -0.542081
O16   O     O_R   0.089710 0.038020 0.006720 -0.542083
O17   O     O_R   0.964160 0.712340 0.130090 -0.529362
O18   O     O_R   0.035840 0.212340 0.869910 -0.529362
C59   C     C_R   0.884811 0.369353 0.995087 0.695206
C60   C     C_R   0.115189 0.869354 0.004912 0.695205
O19   O     O_3   0.017820 0.379210 0.044690 -0.377873
O20   O     O_3   0.982180 0.879210 0.955310 -0.377876
V3    V     V_3+5 0.996690 0.652500 0.991710 1.408695
V4    V     V_3+5 0.003310 0.152500 0.008290 1.408695
C61   C     C_3   0.212987 0.796344 0.824453 -0.705394
H27   H     H_    0.229610 0.937222 0.802087 0.255810
H28   H     H_    0.237481 0.700158 0.767551 0.237631
H29   H     H_    0.160989 0.787272 0.828137 0.197543
C62   C     C_3   0.787009 0.296379 0.175546 -0.705393
H30   H     H_    0.770381 0.437254 0.197908 0.255818
H31   H     H_    0.762517 0.200193 0.232450 0.237630
H32   H     H_    0.839007 0.287327 0.171864 0.197541
C63   C     C_3   0.346660 0.786762 0.821967 -0.614229
H33   H     H_    0.341816 0.685994 0.767492 0.240261
H34   H     H_    0.337821 0.927116 0.798581 0.259925
H35   H     H_    0.397498 0.776214 0.824287 0.208823
C64   C     C_3   0.653338 0.286759 0.178024 -0.614227
H36   H     H_    0.658185 0.185999 0.232500 0.240265
H37   H     H_    0.662173 0.427118 0.201408 0.259918
H38   H     H_    0.602500 0.276195 0.175704 0.208823
C65   C     C_3   0.162944 0.579567 0.125193 -0.802794
H39   H     H_    0.172818 0.522732 0.190172 0.201583
H40   H     H_    0.109721 0.582666 0.138848 0.230364
H41   H     H_    0.183169 0.479626 0.068103 0.184441
C66   C     C_3   0.837041 0.079523 0.874827 -0.802824
H42   H     H_    0.890262 0.082579 0.861189 0.230384
H43   H     H_    0.816796 0.979599 0.931918 0.184448
H44   H     H_    0.827172 0.022691 0.809844 0.201589
C67   C     C_3   0.298506 0.198608 0.071228 -0.746714
H45   H     H_    0.321005 0.325000 0.033968 0.194867
H46   H     H_    0.253758 0.241701 0.124089 0.181696
H47   H     H_    0.330975 0.148798 0.112432 0.214897
C68   C     C_3   0.701506 0.698605 0.928753 -0.746665
H48   H     H_    0.679069 0.825085 0.966005 0.194805
H49   H     H_    0.746255 0.741537 0.875836 0.181696
H50   H     H_    0.668988 0.648872 0.887604 0.214916
C69   C     C_3   0.155871 0.896646 0.188963 -0.733289
H51   H     H_    0.177432 0.034353 0.189942 0.196557
H52   H     H_    0.105021 0.916810 0.187769 0.170433
H53   H     H_    0.154376 0.830170 0.257684 0.210333
C70   C     C_3   0.844147 0.396581 0.811030 -0.733271
H54   H     H_    0.822606 0.534311 0.810038 0.196520
H55   H     H_    0.894999 0.416695 0.812225 0.170420
H56   H     H_    0.845636 0.330098 0.742312 0.210329
C71   C     C_3   0.286452 0.804778 0.189847 -0.773142
H57   H     H_    0.260422 0.709994 0.246910 0.213769
H58   H     H_    0.338670 0.783361 0.181745 0.203357
H59   H     H_    0.273891 0.947260 0.214379 0.217084
C72   C     C_3   0.713555 0.304861 0.810145 -0.773119
H60   H     H_    0.739584 0.210100 0.753070 0.213772
H61   H     H_    0.661337 0.283461 0.818239 0.203345
H62   H     H_    0.726119 0.447356 0.785637 0.217090
Br1   Br    Br    0.520329 0.122052 0.494934 -0.421239
Br2   Br    Br    0.479670 0.622050 0.505067 -0.421240
Br3   Br    Br    0.462018 0.106446 0.726612 -0.485372
Br4   Br    Br    0.537983 0.606444 0.273389 -0.485365
Br5   Br    Br    0.734269 0.807068 0.255067 -0.692616
Br6   Br    Br    0.265732 0.307043 0.744932 -0.692618

loop_
_geom_bond_atom_site_label_1
_geom_bond_atom_site_label_2
_ccdc_geom_bond_type
C67   H47   S    
C47   H21   S    
C3    C6    S    
O4    V2    S    
O14   V4    S    
C51   C55   S    
C69   H53   S    
C29   C31   A    
O20   V3    S    
C70   H54   S    
O1    C3    A    
C48   H22   S    
C66   H44   S    
O2    C4    A    
C2    O7    A    
C65   H40   S    
C67   H45   S    
C27   C29   A    
C46   C54   S    
O5    C3    A    
C45   C53   S    
C5    C11   A    
C6    C12   A    
C70   H55   S    
C68   H50   S    
C71   H59   S    
C72   H61   S    
C33   C39   A    
O15   V3    S    
C69   H51   S    
C34   C40   A    
C37   H5    S    
C15   C17   A    
C18   C26   A    
C67   H46   S    
C50   C59   S    
C46   C50   S    
C48   H24   S    
O11   C59   A    
O13   C57   A    
C1    C52   S    
C52   C56   S    
C62   H31   S    
C6    C14   A    
C4    C5    S    
C8    C38   A    
C71   H57   S    
C19   C21   A    
C22   C34   A    
C39   H3    S    
C45   C65   S    
C42   C44   S    
C64   H36   S    
C25   H1    S    
C36   C38   A    
C57   O18   A    
O6    V2    S    
C72   H62   S    
C9    Br1   S    
C71   H58   S    
C30   C32   A    
C44   C52   S    
C32   C34   A    
C63   H34   S    
O15   C59   A    
C68   H48   S    
C15   C19   A    
C38   H6    S    
C16   C20   A    
C70   H56   S    
C29   H7    S    
C48   C50   S    
C30   H8    S    
C43   H17   S    
C64   H38   S    
C66   H43   S    
C9    C17   A    
C58   O17   A    
C23   Br5   S    
C2    C51   S    
C41   H15   S    
C20   C22   A    
C48   C56   S    
C46   C66   S    
C45   C69   S    
C21   C33   A    
C55   H25   S    
O13   V3    S    
C7    C37   A    
C26   H2    S    
C45   C49   S    
O6    C4    A    
C62   H32   S    
C56   H26   S    
C61   H28   S    
O1    V2    S    
C13   H9    S    
O2    V1    S    
C31   C33   A    
C46   C70   S    
C43   C51   S    
C44   H18   S    
C52   C54   S    
C41   C49   S    
O14   C58   A    
C9    C11   A    
C44   C64   S    
O19   V4    S    
C10   C12   A    
O16   V4    S    
O4    C2    A    
C13   C15   A    
C65   H39   S    
C47   H23   S    
O3    V1    S    
C47   C49   S    
C63   H35   S    
C41   C61   S    
C69   H52   S    
O12   C60   A    
C49   C60   S    
C10   C18   A    
C61   H27   S    
C23   C25   A    
C47   C55   S    
C12   Br4   S    
C28   C30   A    
O3    C1    A    
O11   V4    S    
C63   H33   S    
C35   C37   A    
C27   H11   S    
O12   V3    S    
C14   C16   A    
C28   H12   S    
C43   C63   S    
O17   V3    S    
C42   C50   S    
C16   C18   A    
C14   H10   S    
C65   H41   S    
C5    C13   A    
C1    O8    A    
C8    C40   A    
C32   C36   A    
O8    V2    S    
C7    C58   S    
O18   V4    S    
C68   H49   S    
C62   H30   S    
C8    C57   S    
C10   Br2   S    
O5    V1    S    
C21   C23   A    
C22   C24   A    
C19   C27   A    
O16   C60   A    
C61   H29   S    
C41   C43   S    
C20   C28   A    
O7    V1    S    
C66   H42   S    
C64   H37   S    
C24   C26   A    
H19   C53   S    
C42   C62   S    
C7    C39   A    
C53   C71   S    
C55   C67   S    
C42   H16   S    
O9    V2    S    
C17   C25   A    
C72   H60   S    
C24   Br6   S    
C51   C53   S    
O10   V1    S    
C36   H14   S    
C54   C72   S    
C56   C68   S    
C31   C35   A    
C35   H13   S    
C40   H4    S    
H20   C54   S    
C11   Br3   S    
