data_mof_unit_17919.cif
_audit_creation_date              2012-12-11T14:45:25-0500
_audit_creation_method            fapswitch 2.2
_symmetry_space_group_name_H-M    P1
_symmetry_Int_Tables_number       1
_space_group_crystal_system       triclinic
_cell_length_a                    25.27595
_cell_length_b                    7.172267
_cell_length_c                    14.25491
_cell_angle_alpha                 90.033147
_cell_angle_beta                  102.790425
_cell_angle_gamma                 89.907537
_cell_volume                      2520.08656713

loop_
_atom_site_label
_atom_site_type_symbol
_atom_type_description
_atom_site_fract_x
_atom_site_fract_y
_atom_site_fract_z
_atom_type_partial_charge
O1    O     O_R   0.319150 0.364170 0.330530 -0.538932
O2    O     O_R   0.680850 0.635830 0.669470 -0.536321
O3    O     O_R   0.180850 0.864170 0.169470 -0.536015
O4    O     O_R   0.819150 0.135830 0.830530 -0.533772
O5    O     O_R   0.210330 0.696850 0.354180 -0.538160
O6    O     O_R   0.789670 0.303150 0.645820 -0.543301
O7    O     O_R   0.289670 0.196850 0.145820 -0.540929
O8    O     O_R   0.710330 0.803150 0.854180 -0.545747
C1    C     C_R   0.197078 0.524783 0.379049 0.697187
C2    C     C_R   0.804436 0.473210 0.622444 0.708122
C3    C     C_R   0.303829 0.025606 0.122367 0.704427
C4    C     C_R   0.695779 0.974379 0.877477 0.709441
O9    O     O_R   0.320550 0.694110 0.341970 -0.538856
O10   O     O_R   0.679450 0.305890 0.658030 -0.538856
O11   O     O_R   0.179450 0.194110 0.158030 -0.537242
O12   O     O_R   0.820550 0.805890 0.841970 -0.542757
O13   O     O_R   0.291860 0.861000 0.157170 -0.536906
O14   O     O_R   0.708140 0.139000 0.842830 -0.534230
O15   O     O_R   0.208140 0.361000 0.342830 -0.539321
O16   O     O_R   0.791860 0.639000 0.657170 -0.532354
C5    C     C_R   0.341396 0.525174 0.363452 0.708083
C6    C     C_R   0.656671 0.474659 0.642504 0.711216
C7    C     C_R   0.157983 0.026046 0.138183 0.714795
C8    C     C_R   0.842532 0.974379 0.861353 0.714972
O17   O     O_3   0.240460 0.529330 0.189380 -0.370387
O18   O     O_3   0.759540 0.470670 0.810620 -0.374052
O19   O     O_3   0.259540 0.029330 0.310620 -0.373754
O20   O     O_3   0.740460 0.970670 0.689380 -0.371584
V1    V     V_3+5 0.251770 0.805510 0.261240 1.443497
V2    V     V_3+5 0.748230 0.194490 0.738760 1.444018
V3    V     V_3+5 0.248230 0.305510 0.238760 1.440966
V4    V     V_3+5 0.751770 0.694490 0.761240 1.436420
C9    C     C_R   0.102840 0.018716 0.072505 -0.093390
C10   C     C_R   0.898681 0.983080 0.925861 -0.099342
C11   C     C_R   0.394992 0.516472 0.433262 -0.094241
C12   C     C_R   0.599899 0.486423 0.580736 -0.107478
C13   C     C_R   0.958777 0.968890 0.087191 0.359172
C14   C     C_R   0.044238 0.982208 0.911321 0.347013
C15   C     C_R   0.539743 0.471525 0.420979 0.339250
C16   C     C_R   0.451850 0.561653 0.595258 0.353364
C17   C     C_R   0.908159 0.931287 0.024216 0.045594
C18   C     C_R   0.096000 0.966762 0.974751 0.048111
C19   C     C_R   0.591866 0.458180 0.480737 0.063681
C20   C     C_R   0.400510 0.573353 0.529958 0.041562
C21   C     C_R   0.944087 0.039929 0.889390 0.097109
C22   C     C_R   0.056132 0.060192 0.108017 0.093217
C23   C     C_R   0.554721 0.544507 0.618628 0.096846
C24   C     C_R   0.440820 0.445659 0.403957 0.100117
C25   C     C_R   0.997524 0.020328 0.948328 -0.033980
C26   C     C_R   0.003769 0.022861 0.049306 -0.033768
C27   C     C_R   0.500218 0.527824 0.560500 -0.021936
C28   C     C_R   0.493611 0.478658 0.461598 -0.039913
C29   C     C_R   0.662190 0.978611 0.952052 -0.091634
C30   C     C_R   0.336402 0.019283 0.047265 -0.078937
C31   C     C_R   0.839539 0.469597 0.549541 -0.091701
C32   C     C_R   0.165917 0.508613 0.456113 -0.078785
C33   C     C_R   0.649923 0.888654 0.112132 0.347282
C34   C     C_R   0.342359 0.035488 0.879359 0.350955
C35   C     C_R   0.857654 0.335129 0.400937 0.343180
C36   C     C_R   0.152309 0.358973 0.603558 0.339194
C37   C     C_R   0.682711 0.901465 0.044305 0.035886
C38   C     C_R   0.313126 0.068975 0.951139 0.003712
C39   C     C_R   0.822479 0.366112 0.463226 0.035299
C40   C     C_R   0.185217 0.392190 0.537023 0.007701
C41   C     C_R   0.608098 0.044126 0.928746 0.063443
C42   C     C_R   0.390798 0.956532 0.070228 0.050845
C43   C     C_R   0.893290 0.539900 0.572429 0.060815
C44   C     C_R   0.112396 0.579804 0.440406 0.056817
C45   C     C_R   0.572758 0.003736 0.991836 0.014143
C46   C     C_R   0.424801 0.992252 0.004203 0.016675
C47   C     C_R   0.929959 0.497060 0.511798 0.020721
C48   C     C_R   0.077624 0.522982 0.501270 0.019749
C49   C     C_R   0.596378 0.958007 0.088907 -0.066347
C50   C     C_R   0.399533 0.018133 0.905140 -0.058690
C51   C     C_R   0.908841 0.422247 0.418932 -0.055463
C52   C     C_R   0.100966 0.444691 0.591674 -0.047397
C53   C     C_R   0.514783 0.003360 0.962732 0.030218
C54   C     C_R   0.482753 0.000075 0.032848 0.028628
C55   C     C_R   0.987696 0.510284 0.541736 0.029839
C56   C     C_R   0.019931 0.519902 0.471929 0.026283
C57   C     C_R   0.509747 0.018654 0.129513 -0.173866
C58   C     C_R   0.488135 0.996408 0.865843 -0.161100
C59   C     C_R   0.994677 0.488854 0.375341 -0.163446
C60   C     C_R   0.014359 0.480460 0.638020 -0.157604
C61   C     C_R   0.565199 0.987343 0.158690 0.387104
C62   C     C_R   0.432630 0.022848 0.836573 0.384552
C63   C     C_R   0.940829 0.432177 0.349031 0.377968
C64   C     C_R   0.069806 0.441640 0.663007 0.387118
H1    H     H_    0.487884 0.055220 0.183838 0.169801
H2    H     H_    0.510440 0.978363 0.810389 0.170244
H3    H     H_    0.017965 0.486486 0.320345 0.167773
H4    H     H_    0.991837 0.466221 0.693604 0.165475
C65   C     C_3   0.062741 0.164786 0.202060 -0.670824
H5    H     H_    0.089394 0.287606 0.202103 0.193227
H6    H     H_    0.023728 0.222394 0.212046 0.257524
H7    H     H_    0.080944 0.073480 0.263323 0.208384
C66   C     C_3   0.934740 0.142253 0.794474 -0.672680
H8    H     H_    0.905725 0.258595 0.794041 0.193256
H9    H     H_    0.972310 0.209038 0.783362 0.243662
H10   H     H_    0.918340 0.046969 0.734044 0.208184
C67   C     C_3   0.432310 0.315734 0.317840 -0.668985
H11   H     H_    0.403380 0.203842 0.325649 0.200067
H12   H     H_    0.416516 0.393798 0.250154 0.211704
H13   H     H_    0.469796 0.239479 0.313393 0.234608
C68   C     C_3   0.565851 0.644930 0.714472 -0.697833
H14   H     H_    0.606989 0.703351 0.736302 0.196002
H15   H     H_    0.539275 0.769071 0.709241 0.230576
H16   H     H_    0.560563 0.549833 0.772671 0.235836
C69   C     C_3   0.142989 0.895392 0.935880 -0.612685
H17   H     H_    0.182287 0.897347 0.988689 0.162859
H18   H     H_    0.135213 0.748995 0.912158 0.266528
H19   H     H_    0.146588 0.981612 0.873339 0.277062
C70   C     C_3   0.865900 0.832576 0.064395 -0.637676
H20   H     H_    0.830266 0.793011 0.009129 0.181041
H21   H     H_    0.882714 0.699740 0.096895 0.275652
H22   H     H_    0.853903 0.920670 0.120189 0.273056
C71   C     C_3   0.351372 0.634127 0.567143 -0.588580
H23   H     H_    0.313458 0.645226 0.511300 0.164876
H24   H     H_    0.343638 0.533229 0.621501 0.252380
H25   H     H_    0.358852 0.773590 0.600553 0.279615
C72   C     C_3   0.640310 0.431359 0.437997 -0.602867
H26   H     H_    0.663169 0.308112 0.472187 0.196156
H27   H     H_    0.630894 0.403960 0.359824 0.293509
H28   H     H_    0.665093 0.560218 0.451582 0.209904
Br1   Br    Br    0.967840 0.900137 0.221350 -0.544239
Br2   Br    Br    0.037702 0.908680 0.778472 -0.546349
Br3   Br    Br    0.532944 0.532112 0.285800 -0.535756
Br4   Br    Br    0.450599 0.570151 0.731103 -0.548158
Br5   Br    Br    0.595275 0.023598 0.293708 -0.477684
Br6   Br    Br    0.410515 0.094034 0.703255 -0.497812
Br7   Br    Br    0.913648 0.394540 0.213401 -0.497981
Br8   Br    Br    0.100228 0.411343 0.798371 -0.502714
C73   C     C_3   0.408649 0.829305 0.156524 -0.704514
H29   H     H_    0.447323 0.757163 0.156212 0.252627
H30   H     H_    0.411798 0.907989 0.224609 0.195101
H31   H     H_    0.379080 0.714243 0.153631 0.216288
C74   C     C_3   0.592487 0.182524 0.846917 -0.734048
H32   H     H_    0.589800 0.112408 0.776532 0.199148
H33   H     H_    0.554055 0.256180 0.847822 0.235735
H34   H     H_    0.623191 0.295176 0.855290 0.218925
C75   C     C_3   0.094951 0.730722 0.366193 -0.698684
H35   H     H_    0.091666 0.674814 0.292454 0.201625
H36   H     H_    0.056012 0.794586 0.372480 0.258077
H37   H     H_    0.124939 0.845849 0.379377 0.216758
C76   C     C_3   0.908079 0.680124 0.652924 -0.712569
H38   H     H_    0.910887 0.611993 0.723793 0.198245
H39   H     H_    0.946356 0.752849 0.651343 0.256348
H40   H     H_    0.876927 0.791653 0.642953 0.216046
C77   C     C_3   0.256217 0.144050 0.920946 -0.622219
H41   H     H_    0.231317 0.040125 0.874114 0.261232
H42   H     H_    0.236495 0.174843 0.981076 0.189285
H43   H     H_    0.256639 0.275527 0.880002 0.255317
C78   C     C_3   0.741398 0.849399 0.072615 -0.653019
H44   H     H_    0.748022 0.716070 0.037383 0.217591
H45   H     H_    0.764711 0.965113 0.049870 0.184246
H46   H     H_    0.757061 0.835859 0.151226 0.274189
C79   C     C_3   0.240752 0.301673 0.554719 -0.573414
H47   H     H_    0.266679 0.354977 0.507665 0.168060
H48   H     H_    0.262869 0.329375 0.629803 0.252609
H49   H     H_    0.236398 0.148841 0.543256 0.248477
C80   C     C_3   0.764469 0.305867 0.432412 -0.627663
H50   H     H_    0.755075 0.192523 0.478994 0.220677
H51   H     H_    0.740367 0.431521 0.436726 0.187993
H52   H     H_    0.752446 0.260156 0.356473 0.266848
Br9   Br    Br    0.673413 0.726362 0.222437 -0.457894
Br10  Br    Br    0.300783 0.968082 0.753251 -0.477557
Br11  Br    Br    0.842082 0.125001 0.313303 -0.457958
Br12  Br    Br    0.168747 0.144569 0.686255 -0.471862

loop_
_geom_bond_atom_site_label_1
_geom_bond_atom_site_label_2
_ccdc_geom_bond_type
C34   C38   A    
C59   C63   A    
O1    C5    A    
C65   H5    S    
C38   C77   S    
O19   V1    S    
O13   V1    S    
C45   C53   A    
C68   H14   S    
O3    C7    A    
C48   C52   A    
O15   V3    S    
C80   H52   S    
C47   C55   A    
C76   H38   S    
C14   C25   A    
C53   C54   A    
O7    C3    A    
C74   H33   S    
C67   H11   S    
C9    C18   A    
C20   C71   S    
O9    V1    S    
C65   H7    S    
C18   C69   S    
C14   C18   A    
C71   H24   S    
C55   C60   A    
O4    C8    A    
C46   C54   A    
C63   Br7   S    
C16   Br4   S    
C66   H8    S    
O1    V3    S    
C12   C23   A    
O2    V4    S    
C33   C49   A    
O3    V1    S    
C46   C50   A    
C72   H28   S    
C66   H9    S    
C29   C37   A    
C1    O15   A    
C79   H47   S    
C2    O16   A    
C23   C68   S    
C31   C39   A    
C40   C79   S    
O2    C6    A    
C73   H31   S    
C32   C40   A    
C80   H51   S    
C45   C49   A    
O14   V2    S    
C78   H45   S    
C29   C41   A    
C19   C72   S    
C16   C20   A    
C13   Br1   S    
C4    C29   S    
C44   C48   A    
C70   H22   S    
C57   H1    S    
O11   C7    A    
C15   C28   A    
C65   H6    S    
C71   H25   S    
C9    C22   A    
C77   H42   S    
C10   C17   A    
O10   V2    S    
C56   C59   A    
C11   C24   A    
C76   H39   S    
C80   H50   S    
O5    V1    S    
C74   H34   S    
O7    V3    S    
C27   C28   A    
O8    V4    S    
C15   Br3   S    
C69   H17   S    
C77   H43   S    
C10   C21   A    
O18   V4    S    
C62   Br6   S    
C23   C27   A    
C30   C38   A    
C7    C9    S    
C58   C62   A    
C36   C52   A    
C8    C10   S    
C43   C76   S    
C69   H19   S    
C75   H36   S    
C79   H48   S    
C14   Br2   S    
O5    C1    A    
C11   C20   A    
C61   Br5   S    
C42   C73   S    
C68   H15   S    
C31   C43   A    
C21   C25   A    
O8    C4    A    
O9    C5    A    
C44   C75   S    
C1    C32   S    
C36   Br12  S    
C68   H16   S    
C50   C62   A    
C78   H46   S    
C33   C37   A    
C2    C31   S    
C49   C61   A    
C72   H26   S    
C3    C30   S    
C5    C11   S    
C51   C63   A    
O6    V2    S    
C67   H13   S    
C75   H35   S    
C73   H29   S    
C75   H37   S    
C64   Br8   S    
C59   H3    S    
C35   C51   A    
C76   H40   S    
C35   Br11  S    
C34   C50   A    
C70   H20   S    
O16   V4    S    
C39   C80   S    
C52   C64   A    
C3    O13   A    
C66   H10   S    
O17   V3    S    
C60   C64   A    
C17   C70   S    
C37   C78   S    
O6    C2    A    
C15   C19   A    
O11   V3    S    
C30   C42   A    
C79   H49   S    
O12   V4    S    
C16   C27   A    
C6    C12   S    
C74   H32   S    
C22   C26   A    
C35   C39   A    
C58   H2    S    
C67   H12   S    
C36   C40   A    
O10   C6    A    
C69   H18   S    
C41   C74   S    
C48   C56   A    
C32   C44   A    
C77   H41   S    
C47   C51   A    
C13   C26   A    
C54   C57   A    
C42   C46   A    
C22   C65   S    
C53   C58   A    
C41   C45   A    
C24   C67   S    
O20   V2    S    
C43   C47   A    
C13   C17   A    
C34   Br10  S    
O4    V2    S    
C72   H27   S    
C55   C56   A    
C24   C28   A    
C33   Br9   S    
O12   C8    A    
C25   C26   A    
C4    O14   A    
C73   H30   S    
C12   C19   A    
C21   C66   S    
C60   H4    S    
C78   H44   S    
C71   H23   S    
C57   C61   A    
C70   H21   S    
