data_mof_unit_19492.cif
_audit_creation_date              2012-12-10T17:20:21-0500
_audit_creation_method            fapswitch 2.2
_symmetry_space_group_name_H-M    P1
_symmetry_Int_Tables_number       1
_space_group_crystal_system       triclinic
_cell_length_a                    11.694815
_cell_length_b                    10.873669
_cell_length_c                    9.667841
_cell_angle_alpha                 88.938342
_cell_angle_beta                  89.764429
_cell_angle_gamma                 96.226825
_cell_volume                      1221.9301187

loop_
_atom_site_label
_atom_site_type_symbol
_atom_type_description
_atom_site_fract_x
_atom_site_fract_y
_atom_site_fract_z
_atom_type_partial_charge
C1    C     C_R   0.509506 0.263506 0.501975 0.806047
C2    C     C_R   0.476818 0.041462 0.883483 -0.097125
C3    C     C_R   0.417635 0.924718 0.869815 -0.136992
C4    C     C_R   0.411404 0.869796 0.740842 -0.140319
C5    C     C_R   0.465209 0.931696 0.623570 0.107579
C6    C     C_R   0.502358 0.058849 0.632468 0.092789
C7    C     C_R   0.523035 0.129618 0.507554 -0.179334
C8    C     C_R   0.542636 0.067470 0.384083 -0.014747
C9    C     C_R   0.525488 0.939306 0.381683 -0.216667
C10   C     C_R   0.486960 0.870394 0.499749 -0.089189
C11   C     C_R   0.650216 0.695566 0.126198 -0.099467
C12   C     C_R   0.284197 0.498658 0.500270 0.813794
C13   C     C_R   0.700871 0.793750 0.038598 -0.156298
C14   C     C_R   0.702538 0.779836 0.896476 -0.080381
C15   C     C_R   0.645889 0.673780 0.843300 -0.172442
C16   C     C_R   0.573949 0.586253 0.921314 0.156314
C17   C     C_R   0.574376 0.590965 0.070687 0.150212
C18   C     C_R   0.424735 0.421788 0.075879 0.017947
C19   C     C_R   0.421648 0.425555 0.928222 -0.017603
C20   C     C_R   0.492118 0.736372 0.499412 0.825178
C21   C     C_R   0.715236 0.495785 0.500116 0.824333
C22   C     C_1   0.162268 0.497309 0.500730 -0.110357
C23   C     C_1   0.059584 0.496097 0.500654 0.041579
C24   C     C_1   0.939577 0.495042 0.500305 0.031461
C25   C     C_1   0.836990 0.494821 0.500068 -0.131312
C26   C     C_R   0.519692 0.108181 0.766359 -0.053872
Cu1   Cu    Cu3+1 0.499990 0.499990 0.640660 0.966508
Cu2   Cu    Cu3+1 0.500010 0.500010 0.359340 0.996164
H1    H     H_    0.658529 0.665970 0.736483 0.242186
H2    H     H_    0.568436 0.196572 0.783537 0.169939
H3    H     H_    0.486288 0.081921 0.984432 0.177458
H4    H     H_    0.379547 0.875175 0.959748 0.155643
H5    H     H_    0.363880 0.779132 0.734280 0.166039
H6    H     H_    0.544749 0.893269 0.287328 0.149823
N1    N     N_R   0.501070 0.501210 0.147910 -0.232834
N2    N     N_R   0.501110 0.501290 0.852040 -0.240205
O1    O     O_R   0.499990 0.319640 0.618810 -0.570251
O2    O     O_R   0.500000 0.319660 0.381240 -0.555151
O3    O     O_R   0.337190 0.500000 0.618790 -0.568816
O4    O     O_R   0.337200 0.500030 0.381210 -0.554095
O5    O     O_R   0.500000 0.680340 0.618760 -0.602286
O6    O     O_R   0.500010 0.680360 0.381190 -0.595835
O7    O     O_R   0.662800 0.499970 0.618790 -0.603669
O8    O     O_R   0.662810 0.500000 0.381210 -0.574136
C27   C     C_1   0.590994 0.132372 0.261844 0.327659
N3    N     N_1   0.630318 0.185490 0.165040 -0.270164
C28   C     C_2   0.765235 0.872316 0.798411 0.855217
O9    O     O_2   0.848897 0.940512 0.836060 -0.565666
O10   O     O_R   0.729626 0.878888 0.660776 -0.773950
H7    H     H_    0.778056 0.944805 0.604267 0.343243
C29   C     C_2   0.320589 0.360635 0.859206 0.910061
O11   O     O_2   0.229070 0.405324 0.862202 -0.565347
O12   O     O_R   0.326970 0.246741 0.797775 -0.756494
H8    H     H_    0.251298 0.211878 0.755761 0.334772
C30   C     C_2   0.338876 0.335111 0.150429 0.903116
O13   O     O_2   0.359807 0.229535 0.176459 -0.611288
O14   O     O_R   0.229640 0.370182 0.177572 -0.724863
H9    H     H_    0.177051 0.301874 0.225206 0.333642
C31   C     C_1   0.696679 0.711508 0.263202 0.363859
N4    N     N_1   0.739160 0.735558 0.368827 -0.287028
C32   C     C_1   0.758088 0.907763 0.095552 0.314253
N5    N     N_1   0.804336 0.997423 0.140974 -0.228636

loop_
_geom_bond_atom_site_label_1
_geom_bond_atom_site_label_2
_ccdc_geom_bond_type
C12   O4    A    
C20   O6    A    
C23   C24   S    
C26   H2    S    
C14   C28   S    
C13   C14   A    
Cu1   N2    S    
C21   O8    A    
C18   N1    A    
Cu1   O5    S    
C28   O9    D    
C14   C15   A    
Cu2   O2    S    
C30   O13   D    
C32   N5    T    
C12   O3    A    
C1    O1    A    
C2    C3    A    
C31   N4    T    
C2    C26   A    
C1    C7    S    
O12   H8    S    
C16   N2    A    
C4    C5    A    
C11   C13   A    
O14   H9    S    
C6    C26   A    
C18   C30   S    
Cu1   O1    S    
C19   C29   S    
C11   C31   S    
C5    C6    A    
C1    O2    A    
Cu2   O6    S    
C9    H6    S    
C15   H1    S    
C6    C7    A    
C19   N2    A    
C30   O14   S    
C3    H4    S    
C12   C22   S    
C27   N3    T    
C16   C17   A    
C8    C27   S    
Cu2   O4    S    
C5    C10   A    
C15   C16   A    
Cu1   O7    S    
C7    C8    A    
C13   C32   S    
C24   C25   T    
C28   O10   S    
C18   C19   A    
C9    C10   A    
C10   C20   S    
Cu1   Cu2   S    
O10   H7    S    
C4    H5    S    
C21   C25   S    
C22   C23   T    
C2    H3    S    
C20   O5    A    
C17   N1    A    
C21   O7    A    
Cu2   O8    S    
C11   C17   A    
C3    C4    A    
C29   O11   D    
Cu2   N1    S    
Cu1   O3    S    
C8    C9    A    
C29   O12   S    
