data_mof_unit_22291.cif
_audit_creation_date              2012-12-11T14:21:09-0500
_audit_creation_method            fapswitch 2.2
_symmetry_space_group_name_H-M    P1
_symmetry_Int_Tables_number       1
_space_group_crystal_system       triclinic
_cell_length_a                    22.010664
_cell_length_b                    7.197352
_cell_length_c                    14.910644
_cell_angle_alpha                 90.001455
_cell_angle_beta                  107.028467
_cell_angle_gamma                 89.995429
_cell_volume                      2258.56490211

loop_
_atom_site_label
_atom_site_type_symbol
_atom_type_description
_atom_site_fract_x
_atom_site_fract_y
_atom_site_fract_z
_atom_type_partial_charge
O1    O     O_R   0.584770 0.505770 0.002090 -0.545565
O2    O     O_R   0.415230 0.005770 0.997910 -0.545570
O3    O     O_R   0.467060 0.173340 0.861950 -0.529439
O4    O     O_R   0.532940 0.673340 0.138050 -0.529448
C1    C     C_R   0.455358 0.344275 0.825864 0.747771
C2    C     C_R   0.544642 0.844275 0.174136 0.747774
O5    O     O_R   0.587510 0.175890 0.993210 -0.543499
O6    O     O_R   0.412490 0.675890 0.006790 -0.543542
O7    O     O_R   0.536540 0.008150 0.130100 -0.536946
O8    O     O_R   0.463460 0.508150 0.869900 -0.536937
C3    C     C_R   0.612355 0.345532 0.995032 0.711353
C4    C     C_R   0.387645 0.845553 0.004981 0.711355
O9    O     O_3   0.483140 0.340040 0.044760 -0.374937
O10   O     O_3   0.516860 0.840040 0.955240 -0.374910
V1    V     V_3+5 0.503130 0.064190 0.991700 1.514124
V2    V     V_3+5 0.496870 0.564190 0.008300 1.514080
C5    C     C_2   0.216066 0.727186 0.007565 0.252599
C6    C     C_2   0.784038 0.227070 0.992998 0.252701
C7    C     C_2   0.178697 0.881502 0.989480 -0.191795
C8    C     C_2   0.821306 0.381599 0.010559 -0.191717
H1    H     H_    0.196009 0.006593 0.964616 0.137221
H2    H     H_    0.803904 0.507017 0.034993 0.137090
C9    C     C_2   0.280827 0.723475 0.994421 -0.138037
C10   C     C_2   0.719256 0.223606 0.006064 -0.138364
C11   C     C_2   0.323315 0.863471 0.017346 0.049446
C12   C     C_2   0.676687 0.363344 0.982682 0.049373
H3    H     H_    0.295097 0.593613 0.969344 0.104465
H4    H     H_    0.705037 0.094067 0.031509 0.104325
C13   C     C_R   0.927482 0.887093 0.723618 -0.123152
C14   C     C_R   0.072518 0.387091 0.276381 -0.123160
C15   C     C_R   0.572344 0.851518 0.276014 -0.118252
C16   C     C_R   0.427656 0.351522 0.723984 -0.118242
C17   C     C_R   0.937278 0.898561 0.566837 -0.102869
C18   C     C_R   0.062720 0.398512 0.433161 -0.102858
C19   C     C_R   0.965541 0.898684 0.663472 0.380246
C20   C     C_R   0.034457 0.398641 0.336526 0.380222
C21   C     C_R   0.861501 0.875278 0.686996 -0.238225
C22   C     C_R   0.138499 0.375314 0.313002 -0.238202
C23   C     C_R   0.831322 0.876425 0.588991 0.064732
C24   C     C_R   0.168678 0.376450 0.411007 0.064715
C25   C     C_R   0.870680 0.888564 0.528547 -0.032715
C26   C     C_R   0.129318 0.388545 0.471451 -0.032729
C27   C     C_R   0.763602 0.867324 0.549571 0.006922
C28   C     C_R   0.236399 0.367371 0.450427 0.006951
C29   C     C_R   0.736179 0.871301 0.450167 0.007487
C30   C     C_R   0.263821 0.371321 0.549831 0.007474
C31   C     C_R   0.777332 0.883411 0.393266 -0.192853
C32   C     C_R   0.222666 0.383389 0.606732 -0.192844
C33   C     C_R   0.842936 0.891543 0.431025 0.412737
C34   C     C_R   0.157062 0.391505 0.568974 0.412737
C35   C     C_R   0.722463 0.854344 0.606461 -0.189826
C36   C     C_R   0.277539 0.354435 0.393535 -0.189857
C37   C     C_R   0.656864 0.845460 0.568674 0.413959
C38   C     C_R   0.343138 0.345543 0.431324 0.413956
C39   C     C_R   0.629113 0.848902 0.471137 -0.033398
C40   C     C_R   0.370888 0.348945 0.528861 -0.033391
C41   C     C_R   0.668460 0.862327 0.410732 0.066111
C42   C     C_R   0.331540 0.362355 0.589266 0.066108
C43   C     C_R   0.562533 0.837928 0.432779 -0.102282
C44   C     C_R   0.437468 0.337947 0.567219 -0.102262
C45   C     C_R   0.534294 0.838089 0.336115 0.382619
C46   C     C_R   0.465706 0.338081 0.663883 0.382630
C47   C     C_R   0.638281 0.864704 0.312730 -0.241880
C48   C     C_R   0.361718 0.364725 0.687269 -0.241879
H5    H     H_    0.664253 0.873982 0.261977 0.111316
H6    H     H_    0.335747 0.374015 0.738021 0.111335
H7    H     H_    0.968137 0.907643 0.522325 0.213236
H8    H     H_    0.031860 0.407560 0.477673 0.213231
H9    H     H_    0.835504 0.868171 0.737793 0.118877
H10   H     H_    0.164497 0.368237 0.262205 0.118919
H11   H     H_    0.760370 0.886984 0.317991 0.154978
H12   H     H_    0.239628 0.386930 0.682008 0.155014
H13   H     H_    0.739454 0.849927 0.681733 0.156500
H14   H     H_    0.260550 0.350057 0.318264 0.156420
H15   H     H_    0.531683 0.827666 0.477257 0.213667
H16   H     H_    0.468319 0.327685 0.522741 0.213671
O11   O     O_R   0.036450 0.233070 0.130130 -0.540069
O12   O     O_R   0.963550 0.733070 0.869870 -0.540072
O13   O     O_R   0.912470 0.560570 0.006790 -0.547908
O14   O     O_R   0.087530 0.060570 0.993210 -0.547902
C49   C     C_R   0.887150 0.391108 0.003297 0.757878
C50   C     C_R   0.112856 0.891097 0.996738 0.757992
O15   O     O_R   0.032920 0.562940 0.138050 -0.532134
O16   O     O_R   0.967080 0.062940 0.861950 -0.532164
O17   O     O_R   0.084790 0.730500 0.002090 -0.513744
O18   O     O_R   0.915210 0.230500 0.997910 -0.513714
C51   C     C_R   0.044722 0.394448 0.174557 0.760514
C52   C     C_R   0.955277 0.894449 0.825443 0.760396
O19   O     O_3   0.016820 0.396170 0.955260 -0.374650
O20   O     O_3   0.983180 0.896170 0.044740 -0.374587
V3    V     V_3+5 0.996880 0.672090 0.008300 1.565456
V4    V     V_3+5 0.003120 0.172090 0.991700 1.565439
N1    N     N_3   0.193036 0.557467 0.036330 -0.635363
H17   H     H_    0.224950 0.516888 0.100171 0.236317
H18   H     H_    0.193407 0.455087 0.986738 0.236843
N2    N     N_3   0.807219 0.056878 0.964974 -0.635002
H19   H     H_    0.775336 0.015195 0.901328 0.236026
H20   H     H_    0.806952 0.955382 0.015024 0.237063
Cl1   Cl    Cl    0.048925 0.913630 0.707277 -0.564073
Cl2   Cl    Cl    0.951071 0.413545 0.292720 -0.564071
N3    N     N_3   0.308173 0.030341 0.059247 -0.652368
H21   H     H_    0.342461 0.048906 0.124016 0.295749
H22   H     H_    0.311146 0.142717 0.016297 0.227476
N4    N     N_3   0.691746 0.529752 0.940342 -0.652289
H23   H     H_    0.657469 0.547593 0.875504 0.295955
H24   H     H_    0.688676 0.642591 0.982961 0.227647
Cl3   Cl    Cl    0.888545 0.906600 0.351451 -0.563183
Cl4   Cl    Cl    0.111451 0.406511 0.648547 -0.563085
Cl5   Cl    Cl    0.450953 0.821383 0.292219 -0.572011
Cl6   Cl    Cl    0.549046 0.321324 0.707777 -0.572196
Cl7   Cl    Cl    0.611288 0.828688 0.648229 -0.569488
Cl8   Cl    Cl    0.388716 0.328820 0.351767 -0.569542

loop_
_geom_bond_atom_site_label_1
_geom_bond_atom_site_label_2
_ccdc_geom_bond_type
O15   C51   A    
C22   H10   S    
O11   V4    S    
O4    V2    S    
N1    H17   S    
C39   C43   A    
C6    N2    S    
C15   C45   A    
C18   C26   A    
C45   Cl5   S    
C2    O7    A    
C47   H5    S    
O17   V3    S    
C33   Cl3   S    
O5    C3    A    
C29   C41   A    
C5    C9    S    
C6    C10   S    
C7    H1    S    
C10   C12   D    
C21   H9    S    
C17   C19   A    
C14   C22   A    
C44   C46   A    
C29   C31   A    
C25   C33   A    
C13   C52   S    
C12   N4    S    
C36   C38   A    
N2    H20   S    
C9    H3    S    
C7    C50   S    
C10   H4    S    
O13   V3    S    
C49   O18   A    
C1    C16   S    
C37   Cl7   S    
C32   C34   A    
C2    C15   S    
O2    C4    A    
N3    H22   S    
C8    C49   S    
C30   C42   A    
C34   Cl4   S    
C32   H12   S    
C19   Cl1   S    
N4    H24   S    
N4    H23   S    
C28   C30   A    
C41   C47   A    
C38   C40   A    
C37   C39   A    
C42   C48   A    
O11   C51   A    
C30   C32   A    
C43   C45   A    
N3    H21   S    
C15   C47   A    
C16   C48   A    
O14   C50   A    
C18   H8    S    
O13   C49   A    
C23   C27   A    
O5    V1    S    
C3    C12   S    
C44   H16   S    
C40   C44   A    
C35   C37   A    
C48   H6    S    
O14   V4    S    
C46   Cl6   S    
O6    C4    A    
N2    H19   S    
C38   Cl8   S    
C20   Cl2   S    
O1    V2    S    
O19   V4    S    
O2    V1    S    
C27   C29   A    
C31   H11   S    
C26   C34   A    
O4    C2    A    
C8    H2    S    
C39   C41   A    
C5    N1    S    
C43   H15   S    
O3    V1    S    
C17   H7    S    
O12   C52   A    
C35   H13   S    
O3    C1    A    
C28   C36   A    
O12   V3    S    
C31   C33   A    
C50   O17   A    
O15   V3    S    
C13   C19   A    
C36   H14   S    
C14   C20   A    
C4    C11   S    
C17   C25   A    
O7    V1    S    
C16   C46   A    
C1    O8    A    
C21   C23   A    
O8    V2    S    
C22   C24   A    
C11   N3    S    
O20   V3    S    
N1    H18   S    
O16   C52   A    
C27   C35   A    
C24   C26   A    
C5    C7    D    
C18   C20   A    
C40   C42   A    
C6    C8    D    
C9    C11   D    
C24   C28   A    
C23   C25   A    
O6    V2    S    
O9    V2    S    
C13   C21   A    
O10   V1    S    
O18   V4    S    
O1    C3    A    
O16   V4    S    
C14   C51   S    
