data_mof_unit_30571.cif
_audit_creation_date              2013-03-05T15:43:53-0500
_audit_creation_method            fapswitch 2.2
_symmetry_space_group_name_H-M    P1
_symmetry_Int_Tables_number       1
_space_group_crystal_system       triclinic
_cell_length_a                    13.499129
_cell_length_b                    13.457652
_cell_length_c                    27.493688
_cell_angle_alpha                 90.536435
_cell_angle_beta                  89.939934
_cell_angle_gamma                 60.041636
_cell_volume                      4327.05301452

loop_
_atom_site_label
_atom_site_type_symbol
_atom_site_description
_atom_site_fract_x
_atom_site_fract_y
_atom_site_fract_z
_atom_type_partial_charge
O1    O     O_R   0.301710 0.195650 0.554160 -0.498686
O2    O     O_R   0.522390 0.158990 0.550460 -0.496863
C1    C     C_R   0.620062 0.101444 0.570246 0.544308
O3    O     O_R   0.694390 0.003530 0.554040 -0.503177
O4    O     O_R   0.657700 0.819660 0.549320 -0.490526
C2    C     C_R   0.599486 0.779562 0.568784 0.548241
O5    O     O_R   0.501930 0.803280 0.552920 -0.504824
O6    O     O_R   0.318170 0.023580 0.549580 -0.490273
C3    C     C_R   0.277621 0.121856 0.569715 0.555224
O7    O     O_R   0.303010 0.193990 0.446760 -0.430981
O8    O     O_R   0.523600 0.157450 0.450900 -0.485696
C4    C     C_R   0.622242 0.098971 0.431014 0.536821
O9    O     O_R   0.695690 0.001860 0.446640 -0.521728
O10   O     O_R   0.658900 0.818120 0.449760 -0.502978
C5    C     C_R   0.602405 0.774810 0.430696 0.539210
O11   O     O_R   0.503220 0.801620 0.445520 -0.529332
O12   O     O_R   0.319370 0.022040 0.450020 -0.506324
C6    C     C_R   0.324711 0.101105 0.424660 0.560139
Cr1   Cr    Cr6+3 0.417550 0.169090 0.500530 1.084642
Cr2   Cr    Cr6+3 0.669180 0.913420 0.499920 1.027998
Cr3   Cr    Cr6+3 0.413260 0.917540 0.499520 1.026981
O13   O     O_3   0.499990 0.000010 0.499990 -0.276885
C7    C     C_3   0.772257 0.596653 0.737014 -0.100711
C8    C     C_3   0.752425 0.690251 0.775344 -0.100256
H1    H     H_    0.818774 0.707847 0.790036 0.104307
H2    H     H_    0.855032 0.536646 0.719131 0.105124
H3    H     H_    0.619694 0.867157 0.739528 0.100566
C9    C     C_1   0.697260 0.608354 0.900168 -0.016507
C10   C     C_1   0.630696 0.732217 0.616462 -0.012538
C11   C     C_3   0.699429 0.561105 0.768094 -0.101625
C12   C     C_3   0.679353 0.655120 0.805564 0.052518
C13   C     C_3   0.590098 0.648529 0.741128 -0.099133
C14   C     C_3   0.663049 0.683683 0.710835 0.052729
C15   C     C_3   0.570237 0.742084 0.779325 -0.102216
C16   C     C_3   0.642989 0.777709 0.748296 -0.103438
C17   C     C_1   0.688289 0.634379 0.857958 -0.059158
C18   C     C_1   0.649023 0.705040 0.658511 -0.056534
H4    H     H_    0.487402 0.802086 0.797171 0.103260
H5    H     H_    0.523704 0.630907 0.726503 0.105351
H6    H     H_    0.722634 0.471681 0.776856 0.099052
C19   C     C_3   0.090976 0.133184 0.738379 -0.101021
C20   C     C_3   0.182827 0.059826 0.776459 -0.100358
H7    H     H_    0.199336 0.976112 0.790805 0.104371
H8    H     H_    0.031314 0.110317 0.720422 0.104553
H9    H     H_    0.360701 0.014529 0.740481 0.100278
C21   C     C_1   0.097071 0.201320 0.901836 -0.016097
C22   C     C_1   0.229682 0.137866 0.617653 -0.013644
C23   C     C_3   0.055204 0.242123 0.769886 -0.101440
C24   C     C_3   0.147484 0.168593 0.807116 0.052476
C25   C     C_3   0.143701 0.263280 0.743010 -0.098697
C26   C     C_3   0.179078 0.154629 0.712272 0.052733
C27   C     C_3   0.235512 0.190013 0.780940 -0.102133
C28   C     C_3   0.271388 0.081056 0.749478 -0.103582
C29   C     C_1   0.124836 0.182050 0.859604 -0.058809
C30   C     C_1   0.201781 0.146794 0.659832 -0.056974
H10   H     H_    0.295170 0.212954 0.798856 0.103303
H11   H     H_    0.127151 0.347079 0.728739 0.105853
H12   H     H_    0.965907 0.308744 0.778851 0.099478
C31   C     C_3   0.629508 0.277355 0.739831 -0.101125
C32   C     C_3   0.555265 0.259541 0.778018 -0.099927
H13   H     H_    0.471736 0.327160 0.792810 0.104631
H14   H     H_    0.607577 0.359732 0.722256 0.103934
H15   H     H_    0.509453 0.126927 0.741676 0.100179
C33   C     C_1   0.691657 0.207836 0.902920 -0.015926
C34   C     C_1   0.635006 0.133650 0.618403 -0.013888
C35   C     C_3   0.737382 0.204193 0.770794 -0.101534
C36   C     C_3   0.662983 0.186111 0.808154 0.052579
C37   C     C_3   0.758156 0.094273 0.743442 -0.099006
C38   C     C_3   0.650527 0.167584 0.713242 0.052594
C39   C     C_3   0.683996 0.076406 0.781515 -0.102261
C40   C     C_3   0.576094 0.149502 0.750578 -0.103410
C41   C     C_1   0.674790 0.196815 0.860676 -0.058629
C42   C     C_1   0.643329 0.152614 0.660706 -0.057089
H16   H     H_    0.705994 0.993970 0.799053 0.103259
H17   H     H_    0.841754 0.026624 0.728710 0.105520
H18   H     H_    0.804107 0.226671 0.779663 0.099495
C43   C     C_R   0.739425 0.695151 0.360984 -0.128561
C44   C     C_R   0.753303 0.673161 0.310891 0.013136
C45   C     C_R   0.768506 0.651073 0.209083 0.012447
C46   C     C_R   0.860117 0.644004 0.235946 -0.135817
C47   C     C_R   0.852140 0.655955 0.286592 -0.132150
C48   C     C_R   0.776916 0.634007 0.158718 -0.135581
H19   H     H_    0.856711 0.611031 0.140298 0.123902
H20   H     H_    0.803104 0.704775 0.381199 0.132995
H21   H     H_    0.937493 0.629822 0.217806 0.104992
H22   H     H_    0.922534 0.653103 0.306667 0.126450
C49   C     C_R   0.686469 0.634820 0.133103 -0.005667
C50   C     C_R   0.557648 0.698555 0.358101 -0.130995
C51   C     C_R   0.566386 0.685004 0.308131 0.012420
C52   C     C_R   0.663257 0.674912 0.284151 0.065573
C53   C     C_R   0.476069 0.688971 0.281656 -0.137332
C54   C     C_R   0.479252 0.688041 0.231202 -0.135172
C55   C     C_R   0.575523 0.676937 0.206976 0.014861
C56   C     C_R   0.668995 0.668210 0.233378 0.065962
C57   C     C_R   0.582877 0.666142 0.156839 -0.131274
C58   C     C_R   0.638319 0.714431 0.383980 -0.002012
H23   H     H_    0.511958 0.669150 0.137047 0.127847
H24   H     H_    0.407861 0.692920 0.211174 0.096974
H25   H     H_    0.401861 0.695617 0.299971 0.097775
H26   H     H_    0.480799 0.709882 0.375829 0.133608
C59   C     C_R   0.284239 0.028771 0.347529 -0.172669
C60   C     C_R   0.257384 0.040424 0.298002 0.007575
C61   C     C_R   0.189642 0.073259 0.199994 0.017416
C62   C     C_R   0.201737 0.977547 0.225066 -0.125819
C63   C     C_R   0.236392 0.960748 0.273644 -0.111015
C64   C     C_R   0.142058 0.099029 0.153402 -0.136145
H27   H     H_    0.112918 0.045091 0.136562 0.123882
H28   H     H_    0.296603 0.953206 0.366532 0.137070
H29   H     H_    0.181192 0.917640 0.207592 0.101027
H30   H     H_    0.241676 0.888352 0.292783 0.105293
C65   C     C_R   0.123747 0.199636 0.130371 -0.005764
C66   C     C_R   0.273787 0.215424 0.347584 0.206986
C67   C     C_R   0.261712 0.220144 0.297096 0.007135
C68   C     C_R   0.248355 0.135175 0.272610 0.026140
C69   C     C_R   0.256910 0.311809 0.270913 -0.099659
C70   C     C_R   0.232009 0.323058 0.221714 -0.144765
C71   C     C_R   0.207628 0.245326 0.198330 0.014348
C72   C     C_R   0.217705 0.149710 0.223327 0.068776
C73   C     C_R   0.164362 0.267344 0.151558 -0.129199
C74   C     C_R   0.290808 0.116346 0.372958 -0.022034
H31   H     H_    0.153179 0.343506 0.133440 0.129727
H32   H     H_    0.225532 0.396211 0.202651 0.103523
H33   H     H_    0.270272 0.376567 0.288342 0.170456
C75   C     C_R   0.583553 0.238160 0.364235 -0.096952
C76   C     C_R   0.584865 0.257185 0.314299 0.023439
C77   C     C_R   0.590653 0.292165 0.213973 0.010396
C78   C     C_R   0.527054 0.385589 0.245509 -0.136196
C79   C     C_R   0.524220 0.368247 0.295415 -0.115938
C80   C     C_R   0.603390 0.309191 0.164878 -0.134573
H34   H     H_    0.565294 0.395896 0.151215 0.128680
H35   H     H_    0.535738 0.309485 0.389119 0.157501
H36   H     H_    0.481298 0.472076 0.231671 0.110899
H37   H     H_    0.475497 0.441594 0.319231 0.129124
C81   C     C_R   0.675609 0.215273 0.134883 -0.003978
C82   C     C_R   0.706325 0.033355 0.350155 -0.129981
C83   C     C_R   0.708728 0.050652 0.300757 0.006367
C84   C     C_R   0.646825 0.162649 0.282483 0.057847
C85   C     C_R   0.770545 0.957002 0.269356 -0.127047
C86   C     C_R   0.772325 0.973879 0.219687 -0.127119
C87   C     C_R   0.713392 0.085021 0.201135 0.014844
C88   C     C_R   0.648972 0.179919 0.232437 0.063739
C89   C     C_R   0.724520 0.103396 0.152350 -0.131210
C90   C     C_R   0.641293 0.126007 0.381870 -0.001708
H38   H     H_    0.778806 0.031083 0.128827 0.123148
H39   H     H_    0.822298 0.900515 0.196021 0.107860
H40   H     H_    0.818837 0.871075 0.283394 0.114951
H41   H     H_    0.750475 0.946072 0.363433 0.135663
O14   O     O_R   0.818720 0.150820 0.967160 -0.509013
O15   O     O_R   0.006410 0.181720 0.970200 -0.496107
C91   C     C_R   0.049422 0.236119 0.949769 0.544655
O16   O     O_R   0.027890 0.334070 0.964920 -0.508061
O17   O     O_R   0.809600 0.521790 0.967960 -0.495618
C92   C     C_R   0.711621 0.563072 0.948198 0.544524
O18   O     O_R   0.635520 0.542770 0.964420 -0.507333
O19   O     O_R   0.665950 0.325030 0.970100 -0.494622
C93   C     C_R   0.722290 0.225418 0.950879 0.544363
O20   O     O_R   0.816620 0.158530 0.074540 -0.517856
O21   O     O_R   0.004460 0.188870 0.069750 -0.500297
C94   C     C_R   0.050528 0.243593 0.087596 0.549778
O22   O     O_R   0.025800 0.341780 0.072300 -0.522767
O23   O     O_R   0.807650 0.528950 0.067500 -0.501247
C95   C     C_R   0.707794 0.575168 0.086364 0.545874
O24   O     O_R   0.633420 0.550490 0.071810 -0.523814
O25   O     O_R   0.664000 0.332180 0.069640 -0.502692
C96   C     C_R   0.718056 0.234313 0.089223 0.547823
Cr4   Cr    Cr6+3 0.909170 0.177380 0.020380 1.021160
Cr5   Cr    Cr6+3 0.912710 0.429210 0.018220 1.019626
Cr6   Cr    Cr6+3 0.657170 0.432570 0.019030 1.019767
O26   O     O_3   0.826350 0.346390 0.019210 -0.242572
N1    N     N_R   0.253685 0.317369 0.373118 0.089310
O27   O     O_R   0.335591 0.340526 0.378594 -0.380052
O28   O     O_R   0.149972 0.393298 0.386024 -0.327022

loop_
_geom_bond_atom_site_label_1
_geom_bond_atom_site_label_2
_geom_bond_distance
_ccdc_geom_bond_type
C35   C37   1.548155 S    
C63   H30   1.082338 S    
C50   C58   1.403205 A    
C77   C78   1.403407 A    
O14   Cr4   2.046804 S    
C19   C20   1.551667 S    
O23   C95   1.275924 A    
C9    C92   1.431916 S    
C54   H24   1.083920 S    
C82   C83   1.383148 A    
Cr5   O26   1.974905 S    
O4    Cr2   1.920350 S    
C43   C44   1.398545 A    
C44   C52   1.411439 A    
C37   H17   1.110157 S    
C4    O9    1.262082 A    
O8    Cr1   1.924523 S    
C59   C60   1.399440 A    
C70   H32   1.084112 S    
O25   C96   1.269356 A    
C87   C89   1.387667 A    
C36   C41   1.466587 S    
C71   C73   1.385069 A    
C31   C35   1.549513 S    
C11   C12   1.538848 S    
C13   H5    1.110161 S    
N1    O27   1.298409 A    
C69   C70   1.385488 A    
C34   C42   1.205753 T    
C70   C71   1.395582 A    
O23   Cr5   1.925987 S    
C60   C63   1.403174 A    
C65   C73   1.399946 A    
C15   C16   1.548628 S    
O22   Cr5   2.041874 S    
C7    H2    1.110238 S    
C65   C94   1.463370 S    
C78   H36   1.082461 S    
C66   C67   1.396129 A    
C61   C62   1.402771 A    
Cr6   O26   1.978777 S    
O15   C91   1.272857 A    
C66   N1    1.434741 S    
C32   C36   1.536279 S    
O6    C3    1.271963 A    
C7    C14   1.535141 S    
C49   C57   1.401181 A    
C39   H16   1.110297 S    
C76   C79   1.402509 A    
C25   C27   1.548289 S    
C7    C8    1.551327 S    
C75   C90   1.400069 A    
C38   C42   1.466553 S    
C39   C40   1.549190 S    
C51   C53   1.398821 A    
C24   C29   1.465485 S    
O19   Cr6   1.926184 S    
C12   C17   1.463483 S    
C47   H22   1.083583 S    
C59   H28   1.084247 S    
C82   C90   1.403749 A    
C35   C36   1.539337 S    
H9    C28   1.110639 S    
C31   C32   1.551353 S    
C55   C57   1.382974 A    
Cr3   O13   1.974887 S    
C62   H29   1.083531 S    
C59   C74   1.405250 A    
O18   Cr6   2.036869 S    
C1    C34   1.434813 S    
C62   C63   1.398266 A    
C52   C56   1.397572 A    
C2    O5    1.269018 A    
C64   C65   1.406178 A    
C73   H31   1.084720 S    
O1    Cr1   2.043089 S    
C8    C16   1.550098 S    
C69   H33   1.082137 S    
C7    C11   1.549584 S    
O10   Cr2   1.926397 S    
O25   Cr6   1.918578 S    
Cr1   O13   1.971424 S    
O1    C3    1.266915 A    
C8    H1    1.110059 S    
C45   C56   1.410550 A    
C83   C85   1.399223 A    
O20   C96   1.268582 A    
C5    C58   1.459667 S    
C66   C74   1.424465 A    
C37   C38   1.536212 S    
C32   C40   1.550475 S    
H3    C16   1.110660 S    
O5    Cr3   2.039705 S    
O12   Cr3   1.922386 S    
C45   C46   1.403430 A    
C75   H35   1.083518 S    
C67   C69   1.407501 A    
C32   H13   1.110053 S    
C26   C28   1.539124 S    
C13   C15   1.548361 S    
C2    C10   1.431925 S    
C46   H21   1.083588 S    
C60   C68   1.410604 A    
C81   C89   1.398129 A    
C94   O22   1.266682 A    
O7    Cr1   2.045744 S    
O8    C4    1.278737 A    
C24   C27   1.535354 S    
C35   H18   1.110627 S    
C21   C29   1.205128 T    
O12   C6    1.309156 A    
C12   C15   1.534946 S    
C11   H6    1.110627 S    
C25   C26   1.535865 S    
C55   C56   1.410091 A    
C68   C72   1.403814 A    
C87   C88   1.412982 A    
C50   H26   1.084710 S    
C31   C38   1.535548 S    
C23   C24   1.539221 S    
C21   C91   1.433734 S    
H15   C40   1.110638 S    
C3    C22   1.433838 S    
C82   H41   1.085129 S    
O21   C94   1.273227 A    
C19   H8    1.110238 S    
C89   H38   1.085038 S    
C61   C72   1.411010 A    
C20   H7    1.110040 S    
C81   C96   1.456397 S    
C1    O3    1.268535 A    
C6    C74   1.478251 S    
C53   C54   1.387527 A    
O17   Cr5   1.924423 S    
C27   C28   1.548857 S    
O21   Cr4   1.928570 S    
C22   C30   1.205159 T    
C67   C68   1.408924 A    
C84   C88   1.400235 A    
C86   H39   1.084006 S    
C31   H14   1.110254 S    
C43   C58   1.404024 A    
O9    Cr2   2.036517 S    
O2    Cr1   1.929073 S    
C15   H4    1.110308 S    
C25   H11   1.110165 S    
O15   Cr4   1.924614 S    
Cr2   O13   1.978903 S    
C46   C47   1.398053 A    
O6    Cr3   1.925746 S    
O20   Cr4   2.040151 S    
C43   H20   1.084177 S    
C45   C48   1.396720 A    
C86   C87   1.398909 A    
C57   H23   1.084919 S    
O11   Cr3   2.042882 S    
C23   H12   1.110633 S    
C78   C79   1.397650 A    
C95   O24   1.268769 A    
C33   C93   1.434781 S    
C77   C88   1.409540 A    
C38   C40   1.539220 S    
C77   C80   1.395957 A    
C4    C90   1.458095 S    
C85   H40   1.080333 S    
C36   C39   1.535451 S    
C76   C84   1.413582 A    
C13   C14   1.535636 S    
O2    C1    1.274230 A    
C80   H34   1.084622 S    
C8    C12   1.535671 S    
C20   C28   1.550591 S    
C71   C72   1.410159 A    
C11   C13   1.548063 S    
C44   C47   1.402407 A    
O4    C2    1.274038 A    
N1    O28   1.301348 A    
O7    C6    1.279539 A    
O16   Cr5   2.043555 S    
C23   C25   1.547900 S    
C54   C55   1.399024 A    
C14   C16   1.538855 S    
C19   C23   1.549578 S    
O24   Cr6   2.043189 S    
C61   C64   1.400477 A    
C26   C30   1.465500 S    
C33   C41   1.205756 T    
C14   C18   1.463534 S    
C85   C86   1.388594 A    
C20   C24   1.535970 S    
C80   C81   1.405746 A    
O3    Cr2   2.044465 S    
C27   H10   1.110306 S    
C48   C49   1.405487 A    
C49   C95   1.458678 S    
C75   C76   1.400670 A    
C50   C51   1.381349 A    
C9    C17   1.204008 T    
Cr4   O26   1.971291 S    
C37   C39   1.548741 S    
C48   H19   1.084270 S    
C64   H27   1.084100 S    
C10   C18   1.204025 T    
O19   C93   1.273726 A    
O10   C5    1.278718 A    
C83   C84   1.406984 A    
O17   C92   1.275338 A    
O14   C93   1.267736 A    
C53   H25   1.083356 S    
C51   C52   1.407938 A    
C79   H37   1.083632 S    
C19   C26   1.535519 S    
C5    O11   1.265937 A    
C91   O16   1.265860 A    
C92   O18   1.269066 A    
