data_mof_unit_14781.cif
_audit_creation_date              2012-12-11T14:17:45-0500
_audit_creation_method            fapswitch 2.2
_symmetry_space_group_name_H-M    P1
_symmetry_Int_Tables_number       1
_space_group_crystal_system       triclinic
_cell_length_a                    6.948765
_cell_length_b                    13.62369
_cell_length_c                    20.463093
_cell_angle_alpha                 102.003016
_cell_angle_beta                  90.68881
_cell_angle_gamma                 90.532147
_cell_volume                      1894.56827986

loop_
_atom_site_label
_atom_site_type_symbol
_atom_type_description
_atom_site_fract_x
_atom_site_fract_y
_atom_site_fract_z
_atom_type_partial_charge
O1    O     O_R   0.506860 0.599390 0.449240 -0.539081
O2    O     O_R   0.180220 0.594600 0.586780 -0.543198
O3    O     O_R   0.004500 0.400610 0.550760 -0.538861
C1    C     C_R   0.349732 0.616007 0.613472 0.743225
O4    O     O_R   0.177490 0.611290 0.451970 -0.540336
O5    O     O_R   0.001750 0.417420 0.414990 -0.543779
C2    C     C_R   0.345698 0.637758 0.434966 0.699092
O6    O     O_R   0.509610 0.582580 0.585010 -0.542143
O7    O     O_3   0.337420 0.436370 0.488020 -0.374032
V1    V     V_3+5 0.064680 0.511800 0.502220 1.424432
O8    O     O_R   0.671710 0.405400 0.413220 -0.550643
C3    C     C_R   0.837493 0.386795 0.385775 0.715867
O9    O     O_R   0.674440 0.388710 0.548030 -0.539713
C4    C     C_R   0.843080 0.361062 0.564196 0.715037
V2    V     V_3+5 0.564010 0.488200 0.497780 1.418849
O10   O     O_3   0.841140 0.563630 0.511980 -0.370751
C5    C     C_R   0.824980 0.108067 0.611498 0.359354
H1    H     H_    0.816322 0.160554 0.519469 0.124327
H2    H     H_    0.778278 0.986530 0.700895 0.129768
C6    C     C_R   0.849179 0.283070 0.604005 -0.111872
C7    C     C_R   0.903616 0.320260 0.928037 0.081067
C8    C     C_R   0.921116 0.392239 0.888225 -0.126096
C9    C     C_R   0.905547 0.366445 0.819350 -0.200181
C10   C     C_R   0.869563 0.266776 0.785694 0.102255
C11   C     C_R   0.849750 0.192108 0.824766 0.054578
C12   C     C_R   0.856913 0.239161 0.714305 0.046748
C13   C     C_R   0.832135 0.136226 0.682619 0.038731
C14   C     C_R   0.808254 0.064624 0.722483 -0.198380
C15   C     C_R   0.817213 0.091868 0.791813 -0.182796
C16   C     C_R   0.865050 0.311139 0.673341 -0.219918
C17   C     C_R   0.828040 0.182146 0.573436 -0.172715
C18   C     C_R   0.866476 0.218722 0.895932 -0.123813
H3    H     H_    0.876522 0.390538 0.693414 0.106312
H4    H     H_    0.926943 0.427417 0.794127 0.115134
H5    H     H_    0.950698 0.470399 0.909220 0.110869
H6    H     H_    0.798424 0.032780 0.819362 0.120633
C19   C     C_2   0.985432 0.273702 0.290472 -0.171272
C20   C     C_2   0.831924 0.329680 0.315530 -0.123848
H7    H     H_    0.112639 0.274839 0.322039 0.131515
C21   C     C_2   0.007748 0.222823 0.219353 0.356671
C22   C     C_2   0.867795 0.162169 0.185510 -0.364427
H8    H     H_    0.743502 0.143780 0.212074 0.114442
C23   C     C_2   0.204367 0.790224 0.781688 -0.136650
C24   C     C_2   0.362748 0.815827 0.820016 -0.306964
H9    H     H_    0.066279 0.819724 0.800331 0.131654
H10   H     H_    0.501445 0.786597 0.802443 0.128690
C25   C     C_2   0.204068 0.721897 0.714237 -0.130565
C26   C     C_2   0.362374 0.684120 0.680279 -0.307843
H11   H     H_    0.062986 0.702754 0.691503 0.134918
H12   H     H_    0.505421 0.702751 0.700955 0.125255
C27   C     C_R   0.291276 0.886379 0.385881 -0.142726
H13   H     H_    0.285318 0.835675 0.478253 0.118412
H14   H     H_    0.256236 0.009508 0.301960 0.127693
H15   H     H_    0.258010 0.962818 0.410006 0.121442
C28   C     C_R   0.350338 0.715379 0.395181 -0.040383
C29   C     C_R   0.410437 0.688235 0.073314 -0.168248
C30   C     C_R   0.436488 0.614158 0.109682 -0.128184
C31   C     C_R   0.417868 0.636008 0.178893 -0.177232
C32   C     C_R   0.372177 0.733819 0.213799 0.081017
C33   C     C_R   0.345354 0.809728 0.175991 0.063190
C34   C     C_R   0.354873 0.759082 0.284885 0.074192
C35   C     C_R   0.312333 0.859656 0.316326 0.131821
C36   C     C_R   0.288587 0.932751 0.278226 -0.200160
C37   C     C_R   0.304537 0.908368 0.209228 -0.201164
C38   C     C_R   0.375396 0.687927 0.326037 -0.219431
C39   C     C_R   0.307966 0.814430 0.424899 -0.144514
C40   C     C_R   0.364953 0.785719 0.105595 -0.076360
H16   H     H_    0.403649 0.609900 0.305993 0.095897
H17   H     H_    0.429616 0.669936 0.019676 0.100318
H18   H     H_    0.440479 0.574815 0.203551 0.121844
H19   H     H_    0.471738 0.539229 0.083714 0.125272
H20   H     H_    0.284329 0.967885 0.182130 0.138073
O11   O     O_R   0.203230 0.917310 0.915020 -0.538218
O12   O     O_R   0.535500 0.888690 0.048040 -0.539953
O13   O     O_R   0.711080 0.082610 0.085000 -0.539629
C41   C     C_R   0.367700 0.863239 0.065708 0.690902
O14   O     O_R   0.532630 0.905370 0.913230 -0.549090
O15   O     O_R   0.708190 0.099410 0.949230 -0.539105
C42   C     C_R   0.363719 0.884261 0.886545 0.741974
O16   O     O_R   0.206120 0.900510 0.050790 -0.541085
O17   O     O_3   0.375360 0.063570 0.011990 -0.370348
V3    V     V_3+5 0.648170 0.988200 0.997780 1.416896
O18   O     O_R   0.038240 0.111390 0.951940 -0.542207
C43   C     C_R   0.869849 0.139338 0.935789 0.679876
O19   O     O_R   0.041120 0.094710 0.086750 -0.536505
C44   C     C_R   0.874581 0.111250 0.114500 0.740025
V4    V     V_3+5 0.148810 0.011930 0.002180 1.425139
O20   O     O_3   0.871750 0.936430 0.988010 -0.373934
C45   C     C_3   0.649799 0.339371 0.274425 -0.304580
C46   C     C_3   0.687309 0.390694 0.215722 -0.326312
C47   C     C_3   0.528490 0.365143 0.162685 -0.759434
H21   H     H_    0.517316 0.282628 0.144314 0.259956
H22   H     H_    0.389344 0.395011 0.183690 0.245686
H23   H     H_    0.561781 0.398627 0.119307 0.198243
H24   H     H_    0.695559 0.473250 0.234551 0.181165
H25   H     H_    0.825607 0.367842 0.191610 0.212348
H26   H     H_    0.577314 0.265636 0.258459 0.194963
H27   H     H_    0.539459 0.385298 0.305217 0.174721
O21   O     O_3   0.177002 0.242197 0.189841 -0.654254
H28   H     H_    0.144884 0.254803 0.145024 0.282975
O22   O     O_3   0.812696 0.009713 0.577073 -0.647530
H29   H     H_    0.887989 0.967684 0.601849 0.278451
C48   C     C_3   0.925341 0.350563 0.004144 -0.369918
C49   C     C_3   0.977795 0.462245 0.031096 -0.312042
C50   C     C_3   0.991963 0.489488 0.106922 -0.778367
H30   H     H_    0.846481 0.490103 0.127954 0.231899
H31   H     H_    0.086098 0.436605 0.126572 0.225208
H32   H     H_    0.051188 0.566696 0.122845 0.241563
H33   H     H_    0.119058 0.479397 0.010773 0.198175
H34   H     H_    0.865502 0.510762 0.015632 0.194520
H35   H     H_    0.788107 0.332863 0.026762 0.166581
H36   H     H_    0.040267 0.304602 0.020684 0.170934

loop_
_geom_bond_atom_site_label_1
_geom_bond_atom_site_label_2
_ccdc_geom_bond_type
O18   V4    S    
V4    O20   S    
O22   H29   S    
C22   H8    S    
C2    C28   S    
C1    O6    A    
C21   O21   S    
O17   V3    S    
C30   C31   A    
C46   H24   S    
C25   H11   S    
C6    C16   A    
O19   C44   A    
C8    H5    S    
C50   H31   S    
C20   C45   S    
C12   C13   A    
C35   C36   A    
O12   C41   A    
C14   C15   A    
C10   C12   A    
C19   C21   S    
O5    C3    A    
C49   H33   S    
V2    O10   S    
C29   C30   A    
C48   H35   S    
C5    O22   S    
O11   V4    S    
O8    V2    S    
O18   C43   A    
C33   C40   A    
C9    C10   A    
O1    V2    S    
O7    V1    S    
C9    H4    S    
C11   C18   A    
C26   H12   S    
C32   C33   A    
O9    C4    A    
C27   C35   A    
O12   V3    S    
C49   C50   S    
C28   C38   A    
C24   H10   S    
O14   C42   A    
C11   C15   A    
C18   C43   S    
C7    C18   A    
C32   C34   A    
O19   V4    S    
C5    C13   A    
C25   C26   D    
C4    C6    S    
C10   C11   A    
C47   H21   S    
O4    C2    A    
C31   H18   S    
C31   C32   A    
C45   H26   S    
C48   H36   S    
C27   C39   A    
O2    C1    A    
C23   C24   D    
C19   C20   D    
C22   C44   S    
C34   C38   A    
C47   H22   S    
O15   V3    S    
O13   C44   A    
O21   H28   S    
C15   H6    S    
C38   H16   S    
O11   C42   A    
C50   H32   S    
C30   H19   S    
H2    C14   S    
C23   H9    S    
O17   V4    S    
O3    C4    A    
C21   C22   D    
C12   C16   A    
O6    V2    S    
O9    V2    S    
C5    C17   A    
O2    V1    S    
C48   C49   S    
C28   C39   A    
H13   C39   S    
C1    C26   S    
C16   H3    S    
O1    C2    A    
C24   C42   S    
C41   O16   A    
O5    V1    S    
O8    C3    A    
O13   V3    S    
C46   H25   S    
H1    C17   S    
O16   V4    S    
C29   C40   A    
C50   H30   S    
C45   H27   S    
C33   C37   A    
C27   H15   S    
O7    V2    S    
O4    V1    S    
C19   H7    S    
O3    V1    S    
V1    O10   S    
C47   H23   S    
C49   H34   S    
H14   C36   S    
C46   C47   S    
O14   V3    S    
V3    O20   S    
C37   H20   S    
C3    C20   S    
C34   C35   A    
C36   C37   A    
C7    C48   S    
O15   C43   A    
C29   H17   S    
C13   C14   A    
C8    C9    A    
C40   C41   S    
C45   C46   S    
C7    C8    A    
C23   C25   S    
C6    C17   A    
