data_mof_unit_15690.cif
_audit_creation_date              2012-10-26T19:35:14-0400
_audit_creation_method            fapswitch 2.2
_symmetry_space_group_name_H-M    P1
_symmetry_Int_Tables_number       1
_space_group_crystal_system       triclinic
_cell_length_a                    10.808322
_cell_length_b                    10.797627
_cell_length_c                    9.551141
_cell_angle_alpha                 90.556238
_cell_angle_beta                  90.150516
_cell_angle_gamma                 90.6
_cell_volume                      1114.54075894

loop_
_atom_site_label
_atom_site_type_symbol
_atom_type_description
_atom_site_fract_x
_atom_site_fract_y
_atom_site_fract_z
_atom_type_partial_charge
C1    C     C_R   0.497788 0.262958 0.499288 0.553247
C2    C     C_R   0.388070 0.931203 0.455927 -0.157924
C3    C     C_R   0.494855 0.869337 0.500818 -0.008462
C4    C     C_R   0.262847 0.507094 0.499967 0.530923
C5    C     C_R   0.596266 0.939873 0.540855 0.020192
C6    C     C_3   0.726450 0.933001 0.591597 -0.023513
C7    C     C_3   0.727767 0.077205 0.585299 -0.094113
C8    C     C_R   0.571378 0.583344 0.074835 0.166430
C9    C     C_R   0.437068 0.412058 0.073248 -0.012298
C10   C     C_R   0.437002 0.412083 0.924460 -0.007007
C11   C     C_R   0.571364 0.583390 0.927353 0.155118
C12   C     C_R   0.067973 0.595276 0.599535 0.022576
C13   C     C_3   0.560938 0.721078 0.923767 -0.281233
C14   C     C_3   0.561345 0.720927 0.082176 -0.270077
C15   C     C_R   0.499556 0.737079 0.500467 0.558156
C16   C     C_R   0.737572 0.507573 0.500634 0.550334
C17   C     C_R   0.133129 0.676367 0.691854 -0.109178
C18   C     C_R   0.070785 0.746530 0.791654 -0.130565
C19   C     C_R   0.942724 0.740321 0.799253 -0.134315
C20   C     C_R   0.876163 0.665893 0.705188 -0.087663
C21   C     C_R   0.937012 0.592221 0.603586 0.037990
C22   C     C_3   0.820055 0.140638 0.483633 -0.266298
C23   C     C_R   0.129575 0.520517 0.499528 -0.003678
C24   C     C_3   0.777708 0.152152 0.330827 -0.426413
C25   C     C_3   0.266234 0.125947 0.415376 -0.278082
C26   C     C_3   0.195505 0.167523 0.545405 -0.438407
C27   C     C_R   0.063080 0.455680 0.396609 -0.165039
C28   C     C_R   0.935767 0.456609 0.396767 -0.169676
C29   C     C_R   0.871784 0.519541 0.501970 0.002041
C30   C     C_R   0.596376 0.064618 0.536109 -0.004774
C31   C     C_R   0.492797 0.130303 0.497131 0.018072
C32   C     C_R   0.385063 0.062361 0.455384 -0.014329
Cu1   Cu    Cu3+1 0.499990 0.499980 0.640670 0.917310
Cu2   Cu    Cu3+1 0.500010 0.500020 0.359330 0.924919
H1    H     H_    0.109908 0.400686 0.317768 0.126166
H2    H     H_    0.122007 0.807575 0.861834 0.106485
H3    H     H_    0.894344 0.796536 0.875489 0.097158
H4    H     H_    0.777088 0.672320 0.710193 0.154236
H5    H     H_    0.886893 0.403645 0.316801 0.131495
H6    H     H_    0.307018 0.877749 0.424475 0.109680
H7    H     H_    0.732734 0.896645 0.699590 0.118282
H8    H     H_    0.792100 0.894984 0.390000 0.244017
H9    H     H_    0.898561 0.884014 0.520127 0.236029
H10   H     H_    0.733191 0.066295 0.290082 0.148212
H11   H     H_    0.711340 0.228981 0.320887 0.182526
H12   H     H_    0.732394 0.119261 0.692040 0.109323
H13   H     H_    0.858864 0.173913 0.264073 0.117761
H14   H     H_    0.838621 0.235737 0.524238 0.143034
H15   H     H_    0.910232 0.092762 0.487053 0.142032
H16   H     H_    0.251386 0.234533 0.608452 0.172368
H17   H     H_    0.108536 0.213157 0.513512 0.131107
H18   H     H_    0.171692 0.086299 0.610983 0.144614
H19   H     H_    0.285768 0.206730 0.347586 0.154237
H20   H     H_    0.205681 0.061851 0.353569 0.130143
H21   H     H_    0.383845 0.342477 0.128090 0.106309
H22   H     H_    0.383647 0.342539 0.867874 0.114117
H23   H     H_    0.644431 0.766451 0.879531 0.101714
H24   H     H_    0.471592 0.752320 0.878984 0.150735
H25   H     H_    0.645368 0.765318 0.128668 0.126733
H26   H     H_    0.472159 0.752388 0.127274 0.154779
H27   H     H_    0.232086 0.689871 0.685969 0.141645
N1    N     N_R   0.500790 0.500930 0.147930 -0.232787
N2    N     N_R   0.500790 0.500890 0.852020 -0.232555
N3    N     N_3   0.806263 0.866812 0.492818 -0.635318
O1    O     O_R   0.500000 0.319640 0.618810 -0.505687
O2    O     O_R   0.500010 0.319680 0.381230 -0.520000
O3    O     O_R   0.319640 0.499980 0.618820 -0.514471
O4    O     O_R   0.319650 0.500020 0.381230 -0.505197
O5    O     O_R   0.499990 0.680320 0.618770 -0.518715
O6    O     O_R   0.500000 0.680360 0.381190 -0.500625
O7    O     O_R   0.680350 0.499980 0.618770 -0.507924
O8    O     O_R   0.680360 0.500020 0.381180 -0.495922

loop_
_geom_bond_atom_site_label_1
_geom_bond_atom_site_label_2
_ccdc_geom_bond_type
C12   C17   A    
C4    O3    A    
C22   H14   S    
H8    N3    S    
C6    N3    S    
C6    C7    S    
C9    H21   S    
C23   C27   A    
C2    C3    A    
C7    C22   S    
C14   H26   S    
C9    C10   A    
Cu2   O6    S    
C1    O1    A    
C19   C20   A    
C16   O8    A    
Cu1   O5    S    
Cu1   N2    S    
C17   H27   S    
Cu2   O2    S    
C25   C32   S    
C17   C18   A    
C25   C26   S    
Cu1   O1    S    
C7    C30   S    
C13   C14   S    
C25   H20   S    
C14   H25   S    
C11   C13   S    
C12   C23   A    
C30   C31   A    
C16   O7    A    
C21   C29   A    
C8    C11   A    
C24   H10   S    
C24   H11   S    
C28   C29   A    
C25   H19   S    
H9    N3    S    
Cu1   Cu2   S    
C11   N2    A    
C26   H16   S    
C5    C6    S    
C15   O5    A    
C22   C24   S    
C13   H23   S    
Cu1   O7    S    
Cu2   O8    S    
Cu2   O4    S    
C9    N1    A    
C15   O6    A    
C7    H12   S    
C2    H6    S    
C1    C31   S    
C20   H4    S    
C20   C21   A    
Cu1   O3    S    
C2    C32   A    
C10   H22   S    
C5    C30   A    
C22   H15   S    
C27   C28   A    
C4    O4    A    
C4    C23   S    
Cu2   N1    S    
C18   C19   A    
C3    C15   S    
C8    C14   S    
C13   H24   S    
C19   H3    S    
C28   H5    S    
C27   H1    S    
C16   C29   S    
C26   H17   S    
C24   H13   S    
C18   H2    S    
C12   C21   A    
C10   N2    A    
C26   H18   S    
C31   C32   A    
C8    N1    A    
C3    C5    A    
C6    H7    S    
C1    O2    A    
