data_mof_unit_8175.cif
_audit_creation_date              2012-12-11T15:07:39-0500
_audit_creation_method            fapswitch 2.2
_symmetry_space_group_name_H-M    P1
_symmetry_Int_Tables_number       1
_space_group_crystal_system       triclinic
_cell_length_a                    21.668894
_cell_length_b                    7.199739
_cell_length_c                    18.755297
_cell_angle_alpha                 89.99978
_cell_angle_beta                  95.569893
_cell_angle_gamma                 90.000013
_cell_volume                      2912.20594092

loop_
_atom_site_label
_atom_site_type_symbol
_atom_type_description
_atom_site_fract_x
_atom_site_fract_y
_atom_site_fract_z
_atom_type_partial_charge
O1    O     O_R   0.449650 0.506500 0.414480 -0.544725
O2    O     O_R   0.550350 0.006500 0.585520 -0.544724
O3    O     O_R   0.432010 0.173150 0.560250 -0.517057
O4    O     O_R   0.567990 0.673150 0.439750 -0.517057
C1    C     C_R   0.416557 0.344514 0.581507 0.753690
C2    C     C_R   0.583442 0.844515 0.418493 0.753691
O5    O     O_R   0.442320 0.176650 0.413480 -0.516433
O6    O     O_R   0.557680 0.676650 0.586520 -0.516434
O7    O     O_R   0.560730 0.008380 0.437700 -0.551259
O8    O     O_R   0.439270 0.508380 0.562300 -0.551260
C3    C     C_R   0.426708 0.345708 0.389192 0.756297
C4    C     C_R   0.573292 0.845707 0.610808 0.756298
O9    O     O_3   0.538840 0.339860 0.508120 -0.371036
O10   O     O_3   0.461160 0.839860 0.491880 -0.371036
V1    V     V_3+5 0.492800 0.064220 0.498490 1.503948
V2    V     V_3+5 0.507200 0.564220 0.501510 1.503947
C5    C     C_R   0.878952 0.885710 0.692806 -0.132486
C6    C     C_R   0.121047 0.385697 0.307194 -0.132485
H1    H     H_    0.965365 0.919411 0.756825 0.172958
H2    H     H_    0.034635 0.419396 0.243175 0.172963
H3    H     H_    0.901687 0.865978 0.644362 0.129980
H4    H     H_    0.098313 0.365961 0.355638 0.129981
C7    C     C_R   0.887945 0.937032 0.820460 -0.049326
C8    C     C_R   0.112055 0.437029 0.179540 -0.049327
C9    C     C_R   0.586410 0.890607 0.740118 -0.177819
C10   C     C_R   0.413590 0.390620 0.259883 -0.177818
C11   C     C_R   0.620607 0.924158 0.805178 -0.114460
C12   C     C_R   0.379392 0.424174 0.194823 -0.114460
C13   C     C_R   0.684976 0.928468 0.810095 -0.130297
C14   C     C_R   0.315024 0.428477 0.189905 -0.130297
C15   C     C_R   0.717624 0.894718 0.749696 0.035602
C16   C     C_R   0.282376 0.394720 0.250304 0.035603
C17   C     C_R   0.682381 0.853376 0.682256 -0.005241
C18   C     C_R   0.317619 0.353374 0.317743 -0.005242
C19   C     C_R   0.784280 0.902028 0.754463 0.078004
C20   C     C_R   0.215720 0.402026 0.245537 0.078004
C21   C     C_R   0.814180 0.875222 0.691338 0.063759
C22   C     C_R   0.185820 0.375213 0.308662 0.063759
C23   C     C_R   0.779895 0.830368 0.627232 -0.198955
C24   C     C_R   0.220106 0.330356 0.372768 -0.198956
C25   C     C_R   0.715820 0.811983 0.622644 0.320847
C26   C     C_R   0.284180 0.311974 0.377356 0.320847
C27   C     C_R   0.822860 0.932023 0.819563 -0.203684
C28   C     C_R   0.177140 0.432025 0.180437 -0.203683
C29   C     C_R   0.915400 0.916249 0.756766 -0.129671
C30   C     C_R   0.084600 0.416238 0.243234 -0.129669
C31   C     C_R   0.615593 0.856656 0.678078 -0.060065
C32   C     C_R   0.384407 0.356659 0.321923 -0.060066
H5    H     H_    0.804257 0.946108 0.870517 0.086188
H6    H     H_    0.195742 0.446116 0.129484 0.086189
H7    H     H_    0.536232 0.894330 0.737889 0.094212
H8    H     H_    0.463768 0.394348 0.262112 0.094212
H9    H     H_    0.707839 0.960927 0.862134 0.103752
H10   H     H_    0.292160 0.460939 0.137866 0.103752
H11   H     H_    0.596825 0.951146 0.852290 0.114924
H12   H     H_    0.403174 0.451167 0.147710 0.114924
C33   C     C_R   0.645415 0.710403 0.323565 -0.203963
C34   C     C_R   0.354584 0.210401 0.676434 -0.203961
C35   C     C_R   0.633945 0.856656 0.370360 -0.042639
C36   C     C_R   0.366054 0.356656 0.629639 -0.042640
C37   C     C_R   0.670532 0.018254 0.370445 -0.179542
C38   C     C_R   0.329468 0.518256 0.629555 -0.179547
C39   C     C_R   0.717551 0.035245 0.324526 0.082078
C40   C     C_R   0.282450 0.535247 0.675474 0.082079
C41   C     C_R   0.728061 0.890282 0.276713 0.078371
C42   C     C_R   0.271939 0.390281 0.723286 0.078371
C43   C     C_R   0.691754 0.727131 0.276225 0.094160
C44   C     C_R   0.308245 0.227128 0.723774 0.094160
C45   C     C_R   0.754106 0.195562 0.325577 -0.206632
C46   C     C_R   0.245895 0.695566 0.674423 -0.206634
C47   C     C_R   0.800560 0.213393 0.279405 -0.124000
C48   C     C_R   0.199442 0.713397 0.720596 -0.124001
C49   C     C_R   0.811531 0.071507 0.230259 0.020890
C50   C     C_R   0.188469 0.571510 0.769741 0.020891
C51   C     C_R   0.774791 0.908712 0.229253 -0.002305
C52   C     C_R   0.225209 0.408711 0.770746 -0.002306
C53   C     C_R   0.784658 0.763747 0.181165 0.101333
C54   C     C_R   0.215340 0.263744 0.818834 0.101333
C55   C     C_R   0.748133 0.602452 0.180893 -0.154521
C56   C     C_R   0.251865 0.102448 0.819105 -0.154520
C57   C     C_R   0.702156 0.584336 0.227949 -0.206292
C58   C     C_R   0.297842 0.084332 0.772049 -0.206295
C59   C     C_R   0.858336 0.088109 0.182684 0.325592
C60   C     C_R   0.141665 0.588112 0.817316 0.325590
C61   C     C_R   0.867692 0.942592 0.133447 -0.150589
C62   C     C_R   0.132307 0.442593 0.866553 -0.150592
C63   C     C_R   0.830663 0.781773 0.133958 -0.238331
C64   C     C_R   0.169335 0.281771 0.866040 -0.238326
H13   H     H_    0.617438 0.585454 0.322856 0.117446
H14   H     H_    0.382560 0.085451 0.677142 0.117447
H15   H     H_    0.746620 0.308292 0.362071 0.154517
H16   H     H_    0.253381 0.808298 0.637930 0.154518
H17   H     H_    0.827182 0.340610 0.282482 0.196635
H18   H     H_    0.172820 0.840615 0.717519 0.196635
H19   H     H_    0.837372 0.669652 0.096885 0.164629
H20   H     H_    0.162626 0.169648 0.903113 0.164635
O11   O     O_R   0.060820 0.290050 0.937800 -0.540562
O12   O     O_R   0.939180 0.790050 0.062200 -0.540562
O13   O     O_R   0.057690 0.616620 0.086540 -0.541925
O14   O     O_R   0.942310 0.116620 0.913460 -0.541926
C65   C     C_R   0.071697 0.448323 0.111860 0.707132
C66   C     C_R   0.928303 0.948324 0.888140 0.707130
O15   O     O_R   0.068010 0.619890 0.939770 -0.507485
O16   O     O_R   0.931990 0.119890 0.060230 -0.507486
O17   O     O_R   0.949640 0.787940 0.914460 -0.526423
O18   O     O_R   0.050360 0.287940 0.085540 -0.526423
C67   C     C_R   0.083514 0.451854 0.917753 0.743446
C68   C     C_R   0.916486 0.951854 0.082247 0.743447
O19   O     O_3   0.961210 0.453080 0.991940 -0.373968
O20   O     O_3   0.038790 0.953080 0.008060 -0.373967
V3    V     V_3+5 0.007200 0.728820 0.001500 1.516586
V4    V     V_3+5 0.992800 0.228820 0.998500 1.516584
H21   H     H_    0.662782 0.131062 0.406832 0.147739
H22   H     H_    0.337220 0.631065 0.593169 0.147739
Cl1   Cl    Cl    0.907027 0.286742 0.188272 -0.712292
Cl2   Cl    Cl    0.092977 0.786752 0.811732 -0.712292
H23   H     H_    0.755269 0.489604 0.144343 0.139312
H24   H     H_    0.244728 0.989598 0.855654 0.139316
H25   H     H_    0.674713 0.458343 0.226559 0.130941
H26   H     H_    0.325285 0.958337 0.773439 0.130942
H27   H     H_    0.803732 0.801372 0.580172 0.169568
H28   H     H_    0.196268 0.301355 0.419827 0.169568
Cl3   Cl    Cl    0.683687 0.714641 0.541933 -0.690557
Cl4   Cl    Cl    0.316313 0.214630 0.458066 -0.690554

loop_
_geom_bond_atom_site_label_1
_geom_bond_atom_site_label_2
_ccdc_geom_bond_type
C42   C44   A    
C39   C41   A    
C7    C29   A    
C11   C13   A    
C62   C67   S    
O1    C3    A    
C58   H26   S    
O2    C4    A    
C2    O7    A    
C64   H20   S    
C12   H12   S    
C26   Cl4   S    
C23   C25   A    
O18   V4    S    
O5    C3    A    
C14   H10   S    
C60   Cl2   S    
C50   C52   A    
C16   C20   A    
O15   V3    S    
C19   C21   A    
C5    C29   A    
C38   H22   S    
C54   C56   A    
C33   C35   A    
C7    C66   S    
C54   C64   A    
O12   C68   A    
C66   O17   A    
C36   C38   A    
C8    C65   S    
C45   C47   A    
O20   V3    S    
C38   C40   A    
C39   C45   A    
C18   C26   A    
C41   C43   A    
C63   H19   S    
C15   C17   A    
C40   C46   A    
C61   C68   S    
C19   C27   A    
C9    C31   A    
C10   C32   A    
C48   H18   S    
C61   C63   A    
O17   V3    S    
C42   C52   A    
O6    V2    S    
C22   C24   A    
C49   C51   A    
C3    C32   S    
C33   C43   A    
C4    C31   S    
C6    C30   A    
C53   C55   A    
C56   H24   S    
C35   C37   A    
C62   C64   A    
C59   Cl1   S    
C17   C25   A    
C48   C50   A    
O19   V4    S    
C50   C60   A    
C55   C57   A    
O11   V4    S    
C27   H5    S    
O5    V1    S    
C5    H3    S    
C40   C42   A    
O4    V2    S    
C9    H7    S    
C10   H8    S    
C51   C53   A    
O6    C4    A    
O13   V3    S    
O14   C66   A    
O1    V2    S    
C5    C21   A    
O2    V1    S    
C34   H14   S    
C33   H13   S    
C56   C58   A    
O13   C65   A    
O14   V4    S    
C37   H21   S    
C17   C31   A    
C15   C19   A    
C20   C28   A    
O4    C2    A    
C18   C32   A    
O16   C68   A    
O3    V1    S    
O16   V4    S    
C28   H6    S    
C65   O18   A    
O12   V3    S    
C1    C36   S    
C59   C61   A    
C6    H4    S    
C7    C27   A    
C2    C35   S    
C37   C39   A    
C46   H16   S    
C52   C54   A    
O3    C1    A    
C41   C51   A    
O15   C67   A    
H1    C29   S    
C43   C57   A    
C47   H17   S    
C9    C11   A    
C24   H28   S    
C57   H25   S    
C10   C12   A    
C23   H27   S    
C44   C58   A    
C25   Cl3   S    
C20   C22   A    
C6    C22   A    
C8    C30   A    
C12   C14   A    
C21   C23   A    
O8    V2    S    
C14   C16   A    
C34   C44   A    
C13   H9    S    
C8    C28   A    
C55   H23   S    
C24   C26   A    
C11   H11   S    
O7    V1    S    
O11   C67   A    
C1    O8    A    
C53   C63   A    
C13   C15   A    
O9    V2    S    
C47   C49   A    
O10   V1    S    
C60   C62   A    
C46   C48   A    
C45   H15   S    
C34   C36   A    
C49   C59   A    
H2    C30   S    
C16   C18   A    
