data_mof_unit_48407.cif
_audit_creation_date              2012-12-10T19:45:39-0500
_audit_creation_method            fapswitch 2.2
_symmetry_space_group_name_H-M    P1
_symmetry_Int_Tables_number       1
_space_group_crystal_system       triclinic
_cell_length_a                    10.797606
_cell_length_b                    14.694301
_cell_length_c                    14.677314
_cell_angle_alpha                 65.247467
_cell_angle_beta                  102.945864
_cell_angle_gamma                 102.896043
_cell_volume                      2038.9006905

loop_
_atom_site_label
_atom_site_type_symbol
_atom_type_description
_atom_site_fract_x
_atom_site_fract_y
_atom_site_fract_z
_atom_type_partial_charge
C1    C     C_R   0.476816 0.119672 0.312287 0.796515
C2    C     C_R   0.523511 0.880401 0.687639 0.815731
C3    C     C_R   0.870853 0.996845 0.501311 -0.132213
C4    C     C_R   0.129146 0.003089 0.498516 -0.144142
C5    C     C_R   0.911195 0.013574 0.409746 -0.062334
C6    C     C_R   0.088728 0.986407 0.589879 -0.063537
C7    C     C_R   0.462976 0.187515 0.204736 -0.041187
C8    C     C_R   0.547593 0.812801 0.794620 -0.039414
C9    C     C_R   0.404104 0.217074 0.026887 -0.221203
C10   C     C_R   0.635841 0.783026 0.969493 -0.225549
C11   C     C_R   0.411247 0.150690 0.128288 -0.189070
C12   C     C_R   0.609094 0.850060 0.869365 -0.202704
C13   C     C_R   0.503530 0.291304 0.179038 -0.265818
C14   C     C_R   0.513992 0.708443 0.820708 -0.276613
C15   C     C_R   0.497607 0.360031 0.077567 0.083274
C16   C     C_R   0.545908 0.639079 0.919879 0.086591
C17   C     C_R   0.446740 0.321116 0.001000 0.161268
C18   C     C_R   0.604569 0.678095 0.995275 0.164666
C19   C     C_R   0.537978 0.466171 0.050297 0.063252
C20   C     C_R   0.518262 0.532423 0.946350 0.065220
C21   C     C_R   0.473642 0.489873 0.872207 -0.226052
C22   C     C_R   0.597844 0.508383 0.123117 -0.226680
C23   C     C_R   0.262864 0.000744 0.499783 0.821560
C24   C     C_R   0.737229 0.998875 0.500769 0.833058
C25   C     C_R   0.438624 0.386258 0.899353 -0.232770
C26   C     C_R   0.631297 0.612177 0.095630 -0.231451
C27   C     C_R   0.700028 0.278902 0.677396 -0.325630
C28   C     C_R   0.305776 0.723177 0.319640 -0.327906
C29   C     C_R   0.672690 0.199893 0.643942 0.081714
C30   C     C_R   0.334055 0.802641 0.352336 0.067913
C31   C     C_R   0.521496 0.286442 0.507262 0.000273
C32   C     C_R   0.474392 0.711654 0.495467 -0.002199
C33   C     C_R   0.546319 0.370450 0.536451 -0.025090
C34   C     C_R   0.451066 0.628091 0.465662 -0.024357
C35   C     C_R   0.636478 0.363897 0.624617 0.162804
C36   C     C_R   0.364249 0.635991 0.375563 0.166138
C37   C     C_R   0.484481 0.459268 0.482708 0.074931
C38   C     C_R   0.512092 0.538845 0.520023 0.074623
C39   C     C_R   0.600340 0.526720 0.609864 -0.241365
C40   C     C_R   0.397251 0.471728 0.392349 -0.236767
C41   C     C_R   0.661703 0.441449 0.660312 -0.198160
C42   C     C_R   0.338348 0.558067 0.340405 -0.197807
C43   C     C_R   0.291407 0.863804 0.843036 -0.130320
C44   C     C_R   0.720927 0.133729 0.149705 -0.112677
C45   C     C_R   0.208156 0.876052 0.752107 -0.157362
C46   C     C_R   0.802639 0.123034 0.241006 -0.189228
C47   C     C_R   0.183645 0.973196 0.683358 0.113610
C48   C     C_R   0.816246 0.026176 0.316180 0.128518
C49   C     C_R   0.245474 0.057984 0.705408 -0.111259
C50   C     C_R   0.742587 0.940603 0.300801 -0.087146
C51   C     C_R   0.330329 0.045539 0.795636 -0.140856
C52   C     C_R   0.659616 0.951708 0.210005 -0.154639
C53   C     C_R   0.352566 0.948460 0.864739 -0.117274
C54   C     C_R   0.650149 0.048093 0.133965 -0.117442
C55   C     C_R   0.957889 0.980915 0.592386 0.110837
C56   C     C_R   0.042068 0.018180 0.407537 0.097074
Cu1   Cu    Cu3+1 0.466270 0.918260 0.475690 0.935798
Cu2   Cu    Cu3+1 0.533730 0.081740 0.524310 0.934831
H1    H     H_    0.417615 0.938834 0.934893 0.119319
H2    H     H_    0.586932 0.056531 0.063220 0.118351
H3    H     H_    0.365085 0.187079 0.968598 0.127941
H4    H     H_    0.681803 0.813168 0.026733 0.133694
H5    H     H_    0.467035 0.534393 0.791885 0.143830
H6    H     H_    0.623261 0.463622 0.202339 0.144799
H7    H     H_    0.729469 0.435980 0.728561 0.143060
H8    H     H_    0.272582 0.564355 0.271044 0.141169
H9    H     H_    0.541670 0.713472 0.561084 0.122819
H10   H     H_    0.450197 0.282750 0.444227 0.123792
H11   H     H_    0.293739 0.871576 0.306744 0.128480
H12   H     H_    0.719863 0.133451 0.685823 0.112010
H13   H     H_    0.769383 0.273044 0.744895 0.135366
H14   H     H_    0.240651 0.730790 0.249762 0.136973
H15   H     H_    0.624854 0.582228 0.643410 0.132516
H16   H     H_    0.373288 0.416402 0.358599 0.132617
H17   H     H_    0.309248 0.788716 0.896417 0.143140
H18   H     H_    0.712200 0.208424 0.091195 0.140266
H19   H     H_    0.227348 0.133377 0.652972 0.123852
H20   H     H_    0.751556 0.865384 0.358318 0.129594
H21   H     H_    0.378041 0.111045 0.812355 0.118702
H22   H     H_    0.603820 0.885543 0.198141 0.124602
H23   H     H_    0.403551 0.357044 0.840114 0.146631
H24   H     H_    0.677165 0.641096 0.153829 0.144132
H25   H     H_    0.460450 0.683158 0.762270 0.153092
H26   H     H_    0.537913 0.316687 0.240201 0.152324
H27   H     H_    0.636447 0.930678 0.850492 0.152600
H28   H     H_    0.377954 0.070672 0.146774 0.148296
N1    N     N_R   0.584450 0.204570 0.560790 -0.175039
N2    N     N_R   0.415550 0.795430 0.439210 -0.173839
O1    O     O_R   0.455540 0.022090 0.338120 -0.582429
O2    O     O_R   0.544460 0.977910 0.661880 -0.583099
O3    O     O_R   0.512510 0.160150 0.379180 -0.596681
O4    O     O_R   0.487490 0.839850 0.620820 -0.600493
O5    O     O_R   0.291160 0.930970 0.479480 -0.572289
O6    O     O_R   0.708840 0.069030 0.520520 -0.590365
O7    O     O_R   0.348130 0.069020 0.520540 -0.583310
O8    O     O_R   0.651870 0.930980 0.479460 -0.582762
H29   H     H_    0.161812 0.810072 0.735777 0.126225
H30   H     H_    0.857654 0.189771 0.252215 0.124670
C57   C     C_3   0.909907 0.950132 0.693162 -0.409881
C58   C     C_3   0.856219 0.837495 0.734847 -0.826986
H31   H     H_    0.770308 0.820687 0.683409 0.245058
H32   H     H_    0.929692 0.791259 0.743420 0.249072
H33   H     H_    0.828555 0.815397 0.810496 0.251852
H34   H     H_    0.986899 0.965334 0.751328 0.210507
H35   H     H_    0.835698 0.995154 0.685387 0.203563
C59   C     C_3   0.089440 0.043205 0.307804 -0.365287
C60   C     C_3   0.064417 0.951260 0.279378 -0.809807
H36   H     H_    0.095459 0.883907 0.345498 0.258954
H37   H     H_    0.961367 0.933517 0.252335 0.249220
H38   H     H_    0.118314 0.967914 0.216696 0.219854
H39   H     H_    0.043908 0.106049 0.245202 0.197311
H40   H     H_    0.193594 0.072432 0.311167 0.180030

loop_
_geom_bond_atom_site_label_1
_geom_bond_atom_site_label_2
_ccdc_geom_bond_type
C1    O1    A    
Cu1   O4    S    
C27   C29   A    
C5    C56   A    
C36   C42   A    
C19   C20   A    
C18   C26   A    
C6    C55   A    
Cu2   N1    S    
C53   H1    S    
C39   C41   A    
C54   H2    S    
C29   N1    A    
C15   C19   A    
C13   H26   S    
C40   H16   S    
Cu1   O1    S    
C12   H27   S    
C9    H3    S    
C37   C40   A    
C24   O8    A    
C38   C39   A    
C59   C60   S    
C11   H28   S    
C32   N2    A    
C2    O2    A    
C44   H18   S    
C3    C55   A    
C43   C53   A    
C52   C54   A    
C49   C51   A    
Cu1   O8    S    
C50   C52   A    
C60   H36   S    
C31   C33   A    
Cu2   O3    S    
C8    C12   A    
C40   C42   A    
C57   H34   S    
C46   H30   S    
C1    O3    A    
C1    C7    S    
C4    C56   A    
C25   H23   S    
C60   H37   S    
C3    C24   S    
C28   H14   S    
C14   H25   S    
C50   H20   S    
C44   C46   A    
C26   H24   S    
C59   H39   S    
C45   C47   A    
C43   H17   S    
C31   H10   S    
C57   H35   S    
C5    C48   S    
C46   C48   A    
C31   N1    A    
C6    C47   S    
C19   C22   A    
C4    C6    A    
C4    C23   S    
C41   H7    S    
C27   C35   A    
C58   H33   S    
C33   C37   A    
C23   O5    A    
C51   C53   A    
C32   C34   A    
C7    C11   A    
Cu2   O7    S    
C37   C38   A    
C24   O6    A    
C9    C11   A    
C57   C58   S    
C16   C20   A    
C58   H32   S    
C2    O4    A    
C43   C45   A    
C56   C59   S    
C10   C12   A    
Cu2   O2    S    
C32   H9    S    
C9    C17   A    
C13   C15   A    
C60   H38   S    
C14   C16   A    
C10   H4    S    
C30   N2    A    
C30   H11   S    
C27   H13   S    
C29   H12   S    
C15   C17   A    
C21   C25   A    
C8    C14   A    
C34   C38   A    
C2    C8    S    
C3    C5    A    
C47   C49   A    
Cu1   N2    S    
C17   C25   A    
C28   C30   A    
Cu2   O6    S    
C45   H29   S    
C49   H19   S    
Cu1   Cu2   S    
C59   H40   S    
C10   C18   A    
C48   C50   A    
C58   H31   S    
C33   C35   A    
C23   O7    A    
C34   C36   A    
C39   H15   S    
C35   C41   A    
C51   H21   S    
C21   H5    S    
C22   H6    S    
C44   C54   A    
C7    C13   A    
C20   C21   A    
C28   C36   A    
C16   C18   A    
C22   C26   A    
C55   C57   S    
C42   H8    S    
Cu1   O5    S    
C52   H22   S    
