data_mof_unit_7000.cif
_audit_creation_date              2012-12-10T19:00:17-0500
_audit_creation_method            fapswitch 2.2
_symmetry_space_group_name_H-M    P1
_symmetry_Int_Tables_number       1
_space_group_crystal_system       triclinic
_cell_length_a                    9.522397
_cell_length_b                    10.829644
_cell_length_c                    13.429351
_cell_angle_alpha                 89.541446
_cell_angle_beta                  72.34435
_cell_angle_gamma                 89.732362
_cell_volume                      1319.61159618

loop_
_atom_site_label
_atom_site_type_symbol
_atom_type_description
_atom_site_fract_x
_atom_site_fract_y
_atom_site_fract_z
_atom_type_partial_charge
C1    C     C_R   0.503294 0.737610 0.492678 0.800377
C2    C     C_R   0.436283 0.493750 0.979499 0.111445
C3    C     C_R   0.467416 0.459061 0.873490 0.094761
C4    C     C_R   0.543543 0.469221 0.031752 0.031918
C5    C     C_R   0.673465 0.400493 0.981053 0.027498
C6    C     C_R   0.691944 0.356159 0.880414 -0.167632
C7    C     C_R   0.590328 0.383232 0.828464 -0.219352
C8    C     C_R   0.525298 0.511757 0.133111 -0.252163
C9    C     C_R   0.751738 0.413566 0.136886 -0.284715
C10   C     C_R   0.373689 0.499948 0.815405 -0.094026
C11   C     C_R   0.373062 0.935108 0.514338 0.103032
C12   C     C_R   0.421131 0.496647 0.700397 0.784893
C13   C     C_R   0.506807 0.871808 0.489280 -0.182349
C14   C     C_R   0.639258 0.937794 0.479714 0.063200
C15   C     C_R   0.626665 0.060794 0.516687 0.063892
C16   C     C_R   0.497920 0.127915 0.516281 -0.187360
C17   C     C_R   0.370889 0.061723 0.520944 0.122180
C18   C     C_3   0.261629 0.076725 0.462403 -0.447745
C19   C     C_3   0.262681 0.937107 0.455075 -0.459324
C20   C     C_R   0.948625 0.410228 0.448405 0.218191
C21   C     C_R   0.899864 0.581342 0.558925 -0.073170
C22   C     C_R   0.048922 0.581387 0.558902 -0.068664
C23   C     C_R   0.498489 0.262097 0.505777 0.809836
C24   C     C_R   0.096239 0.410146 0.448334 0.251307
C25   C     C_3   0.150010 0.384337 0.333936 -0.468199
C26   C     C_3   0.990747 0.384125 0.334449 -0.480380
C27   C     C_R   0.578846 0.497787 0.299962 0.825547
C28   C     C_R   0.779541 0.375191 0.033633 0.448855
C29   C     C_R   0.623733 0.479124 0.187055 -0.124095
C30   C     C_R   0.239848 0.558104 0.866883 -0.097661
C31   C     C_R   0.200909 0.579690 0.973465 -0.088936
C32   C     C_R   0.298229 0.550221 0.029187 -0.160534
Cu1   Cu    Cu3+1 0.359330 0.500020 0.500010 0.950967
Cu2   Cu    Cu3+1 0.640670 0.499980 0.499990 0.921851
H1    H     H_    0.826363 0.387136 0.179990 0.187795
H2    H     H_    0.154914 0.114868 0.511773 0.201635
H3    H     H_    0.309242 0.122859 0.385381 0.197172
H4    H     H_    0.156720 0.893895 0.500368 0.188805
H5    H     H_    0.308869 0.902734 0.373781 0.198419
H6    H     H_    0.823829 0.648753 0.604948 0.138984
H7    H     H_    0.084967 0.648804 0.604875 0.134431
H8    H     H_    0.213519 0.462111 0.287544 0.212197
H9    H     H_    0.203672 0.292483 0.316476 0.194469
H10   H     H_    0.964794 0.462113 0.288647 0.216949
H11   H     H_    0.785205 0.300064 0.840038 0.213291
H12   H     H_    0.952012 0.291943 0.318190 0.198100
H13   H     H_    0.433578 0.569342 0.173460 0.143767
H14   H     H_    0.166090 0.589221 0.824222 0.152681
H15   H     H_    0.260276 0.570702 0.111361 0.117455
H16   H     H_    0.096185 0.622954 0.012752 0.135575
H17   H     H_    0.608459 0.341251 0.753030 0.159763
N1    N     N_R   0.852320 0.499070 0.499340 -0.182866
N2    N     N_R   0.148230 0.499110 0.499340 -0.182671
O1    O     O_R   0.381190 0.680360 0.500000 -0.578311
O2    O     O_R   0.618780 0.680320 0.499990 -0.594383
O3    O     O_R   0.323230 0.500000 0.650990 -0.561307
O4    O     O_R   0.560820 0.499960 0.650980 -0.587488
O5    O     O_R   0.381220 0.319680 0.500010 -0.567201
O6    O     O_R   0.618810 0.319640 0.500000 -0.598000
O7    O     O_R   0.439180 0.500040 0.349020 -0.585542
O8    O     O_R   0.676770 0.500000 0.349010 -0.588199
C33   C     C_3   0.736457 0.115516 0.566973 -0.344432
C34   C     C_3   0.811056 0.020604 0.620853 -0.408551
C35   C     C_3   0.861600 0.079110 0.707072 -0.810960
H18   H     H_    0.929394 0.162456 0.677232 0.257143
H19   H     H_    0.764125 0.104576 0.773402 0.267114
H20   H     H_    0.928891 0.011719 0.735803 0.248942
H21   H     H_    0.734190 0.943937 0.655819 0.233061
H22   H     H_    0.910200 0.982377 0.562877 0.214787
H23   H     H_    0.821322 0.170781 0.509346 0.185844
H24   H     H_    0.674161 0.179991 0.628667 0.206563
S1    S     S_3+6 0.942962 0.289114 0.976122 -0.043242
O9    O     O_2   0.025803 0.345503 0.872424 -0.332726
O10   O     O_2   0.040439 0.287378 0.045720 -0.297241
O11   O     O_3   0.896247 0.143481 0.957570 -0.556357
H25   H     H_    0.989361 0.103963 0.915879 0.371110
C36   C     C_3   0.788108 0.883712 0.416001 -0.358127
C37   C     C_3   0.889387 0.976305 0.340048 -0.361560
C38   C     C_3   0.018102 0.910662 0.261857 -0.826900
H26   H     H_    0.082184 0.856210 0.303646 0.245139
H27   H     H_    0.977217 0.847957 0.211752 0.251574
H28   H     H_    0.092176 0.980065 0.211008 0.262099
H29   H     H_    0.825668 0.028375 0.296418 0.238681
H30   H     H_    0.936858 0.042690 0.383041 0.218152
H31   H     H_    0.845510 0.840582 0.467967 0.186408
H32   H     H_    0.768263 0.808995 0.365699 0.214514

loop_
_geom_bond_atom_site_label_1
_geom_bond_atom_site_label_2
_ccdc_geom_bond_type
C23   O5    A    
Cu1   O5    S    
C6    H11   S    
C27   C29   S    
C4    C8    A    
C25   H9    S    
C26   H10   S    
C36   C37   S    
C23   O6    A    
C11   C19   S    
C8    C29   A    
C19   H5    S    
C30   H14   S    
C18   H3    S    
C3    C7    A    
C27   O7    A    
C5    C6    A    
C22   H7    S    
C15   C16   A    
C33   H23   S    
C2    C32   A    
C18   C19   S    
C14   C36   S    
C27   O8    A    
C37   H29   S    
C20   C24   A    
C16   C17   A    
Cu2   O4    S    
C9    C29   A    
Cu1   O3    S    
C36   H31   S    
Cu2   O2    S    
C13   C14   A    
C28   S1    S    
S1    O11   S    
Cu1   Cu2   S    
C22   N2    A    
Cu1   N2    S    
C35   H20   S    
C34   H22   S    
C24   C25   S    
S1    O10   D    
C38   H27   S    
C37   C38   S    
S1    O9    D    
C24   N2    A    
Cu2   O8    S    
C34   C35   S    
C35   H19   S    
C2    C4    A    
O11   H25   S    
C33   C34   S    
C19   H4    S    
C5    C28   A    
C10   C30   A    
C31   C32   A    
C17   C18   S    
C12   O3    A    
C10   C12   S    
C1    O1    A    
C12   O4    A    
C36   H32   S    
C16   C23   S    
Cu2   O6    S    
C1    C13   S    
C31   H16   S    
Cu1   O1    S    
C34   H21   S    
C11   C17   A    
C4    C5    A    
C25   H8    S    
C38   H28   S    
C6    C7    A    
Cu1   O7    S    
Cu2   N1    S    
C35   H18   S    
C2    C3    A    
C25   C26   S    
C8    H13   S    
C7    H17   S    
C20   N1    A    
C3    C10   A    
C11   C13   A    
C30   C31   A    
C21   H6    S    
C20   C26   S    
C15   C33   S    
C33   H24   S    
C1    O2    A    
C32   H15   S    
C26   H12   S    
C38   H26   S    
C37   H30   S    
C9    H1    S    
C14   C15   A    
C21   C22   A    
C18   H2    S    
C21   N1    A    
C9    C28   A    
