data_mof_unit_60150.cif
_audit_creation_date              2012-12-11T15:47:07-0500
_audit_creation_method            fapswitch 2.2
_symmetry_space_group_name_H-M    P1
_symmetry_Int_Tables_number       1
_space_group_crystal_system       triclinic
_cell_length_a                    19.034129
_cell_length_b                    18.981202
_cell_length_c                    19.044565
_cell_angle_alpha                 109.066337
_cell_angle_beta                  106.823725
_cell_angle_gamma                 109.751817
_cell_volume                      5467.4437702

loop_
_atom_site_label
_atom_site_type_symbol
_atom_type_description
_atom_site_fract_x
_atom_site_fract_y
_atom_site_fract_z
_atom_type_partial_charge
C1    C     C_R   0.008310 0.065684 0.735869 -0.107533
C2    C     C_3   0.457225 0.438172 0.022517 0.268694
C3    C     C_3   0.512646 0.354641 0.027224 -0.218080
C4    C     C_3   0.533301 0.499501 0.021230 -0.222198
C5    C     C_1   0.318302 0.263383 0.819526 -0.013194
C6    C     C_1   0.710858 0.640336 0.210536 -0.026517
C7    C     C_3   0.532656 0.424673 0.956490 -0.224772
C8    C     C_3   0.514186 0.430862 0.092961 -0.221110
C9    C     C_3   0.456572 0.363800 0.958209 0.086995
C10   C     C_3   0.590022 0.491512 0.090782 0.087723
C11   C     C_1   0.381181 0.303595 0.882657 0.016329
C12   C     C_R   0.983624 0.933179 0.262288 -0.092176
C13   C     C_1   0.658879 0.570130 0.158957 0.024469
C14   C     C_1   0.324238 0.999789 0.476863 0.020889
C15   C     C_1   0.671763 0.998619 0.509550 0.023041
C16   C     C_R   0.169448 0.929955 0.437913 0.185290
C17   C     C_R   0.828570 0.069352 0.557616 0.185461
C18   C     C_1   0.388754 0.999561 0.480693 0.028234
C19   C     C_1   0.606663 0.998569 0.503522 0.029622
C20   C     C_1   0.464973 0.999155 0.487902 0.013817
C21   C     C_1   0.530148 0.998823 0.495083 0.014298
C22   C     C_1   0.009348 0.336103 0.506998 -0.023460
C23   C     C_R   0.248193 0.999770 0.476654 0.035242
C24   C     C_1   0.992005 0.664926 0.494356 -0.024135
C25   C     C_1   0.006576 0.397867 0.504739 0.019838
C26   C     C_1   0.995019 0.603333 0.496850 0.020310
C27   C     C_1   0.002648 0.469932 0.502038 0.010684
C28   C     C_1   0.999082 0.531365 0.499681 0.011029
C29   C     C_1   0.978499 0.992770 0.821653 -0.027755
C30   C     C_1   0.008723 0.005524 0.174897 -0.028229
C31   C     C_1   0.982364 0.994179 0.886950 0.018722
C32   C     C_1   0.002981 0.003874 0.109085 0.017721
C33   C     C_1   0.988961 0.997391 0.964656 0.009616
C34   C     C_R   0.749116 0.999182 0.513995 0.030443
C35   C     C_1   0.995365 0.000536 0.031110 0.009107
C36   C     C_R   0.946758 0.777391 0.520466 -0.127410
C37   C     C_R   0.053720 0.222989 0.480031 -0.123607
C38   C     C_R   0.238964 0.199194 0.666697 -0.125583
C39   C     C_R   0.769347 0.770717 0.341739 -0.124428
C40   C     C_R   0.021024 0.778399 0.449910 -0.103994
C41   C     C_R   0.979764 0.222193 0.550853 -0.102594
C42   C     C_R   0.164946 0.198054 0.738142 -0.095714
C43   C     C_R   0.843205 0.771940 0.270365 -0.117252
C44   C     C_R   0.239204 0.070393 0.511288 -0.177642
C45   C     C_R   0.989336 0.738613 0.491249 0.076619
C46   C     C_R   0.758889 0.928693 0.480473 -0.165441
C47   C     C_R   0.941293 0.924715 0.667159 -0.121658
C48   C     C_R   0.054400 0.074632 0.331340 -0.121188
C49   C     C_R   0.977295 0.993860 0.745407 0.083584
C50   C     C_R   0.013720 0.004943 0.252263 0.079671
C51   C     C_R   0.011545 0.262084 0.509638 0.075015
C52   C     C_R   0.244282 0.222078 0.745049 0.082509
C53   C     C_R   0.768624 0.725906 0.268269 0.086036
C54   C     C_3   0.590052 0.417445 0.026886 0.271086
H1    H     H_    0.029977 0.129744 0.781401 0.122350
H2    H     H_    0.951445 0.243339 0.588485 0.150954
H3    H     H_    0.148123 0.209834 0.788528 0.116818
H4    H     H_    0.868229 0.749438 0.228821 0.122311
H5    H     H_    0.284821 0.135173 0.534140 0.116066
H6    H     H_    0.711633 0.862971 0.449931 0.120225
H7    H     H_    0.903621 0.859168 0.650129 0.100975
H8    H     H_    0.091283 0.139969 0.347234 0.102878
H9    H     H_    0.502830 0.293861 0.027920 0.158344
H10   H     H_    0.542134 0.559689 0.019420 0.158789
H11   H     H_    0.954411 0.867924 0.215132 0.115997
H12   H     H_    0.507867 0.434843 0.150090 0.157342
H13   H     H_    0.539330 0.421127 0.899587 0.157266
H14   H     H_    0.907249 0.756996 0.548358 0.101792
H15   H     H_    0.093480 0.243556 0.452422 0.102718
H16   H     H_    0.290417 0.211973 0.651185 0.105200
H17   H     H_    0.726704 0.747077 0.365685 0.102307
H18   H     H_    0.050352 0.757896 0.413168 0.151319
I1    I     I_    0.697665 0.403025 0.032601 -0.368543
I2    I     I_    0.351769 0.456202 0.020067 -0.390842
I3    I     I_    0.132976 0.818299 0.331047 -0.426989
I4    I     I_    0.859955 0.180017 0.662641 -0.420295
N1    N     N_R   0.996890 0.041250 0.656740 -0.044288
N2    N     N_R   0.999280 0.159070 0.543360 -0.044780
N3    N     N_R   0.112670 0.157030 0.656740 -0.044650
N4    N     N_R   0.887330 0.842970 0.343260 -0.044034
N5    N     N_R   0.159720 0.044030 0.499880 -0.051244
N6    N     N_R   0.840280 0.955970 0.500120 -0.052910
N7    N     N_R   0.953670 0.953920 0.613510 -0.044374
N8    N     N_R   0.046330 0.046080 0.386490 -0.045020
N9    N     N_R   0.003110 0.958750 0.343260 -0.043803
N10   N     N_R   0.116500 0.956710 0.456640 -0.064043
N11   N     N_R   0.883500 0.043290 0.543360 -0.064355
N12   N     N_R   0.955840 0.840160 0.499880 -0.044553
N13   N     N_R   0.044160 0.159840 0.500120 -0.045187
N14   N     N_R   0.157540 0.157800 0.613510 -0.043783
N15   N     N_R   0.842460 0.842200 0.386490 -0.043063
N16   N     N_R   0.000720 0.840930 0.456640 -0.044219
Ni1   Ni    Ni4+2 0.998100 0.099260 0.599150 0.247405
Ni2   Ni    Ni4+2 0.001900 0.900740 0.400850 0.242510
Ni3   Ni    Ni4+2 0.898980 0.898980 0.500000 0.213740
Ni4   Ni    Ni4+2 0.101020 0.101020 0.500000 0.217245

loop_
_geom_bond_atom_site_label_1
_geom_bond_atom_site_label_2
_ccdc_geom_bond_type
C38   H16   S    
C8    H12   S    
C37   H15   S    
C16   I3    S    
C1    N1    A    
C14   C18   T    
C47   C49   A    
C29   C49   S    
C36   N12   A    
C15   C19   T    
C12   N9    A    
C24   C45   S    
C19   C21   S    
C24   C26   T    
C5    C11   T    
C37   C51   A    
C3    C54   S    
C38   C52   A    
N1    N7    A    
N2    Ni1   S    
N6    N11   A    
N8    Ni4   S    
N3    N14   A    
N10   Ni2   S    
C43   H4    S    
C46   N6    A    
C43   C53   A    
N12   N16   A    
C22   C25   T    
C17   I4    S    
C31   C33   S    
C5    C52   S    
C34   C46   A    
C47   N7    A    
C15   C34   S    
N5    N10   A    
C2    I2    S    
C48   C50   A    
C30   C50   S    
N12   Ni3   S    
C42   N3    A    
C16   N10   A    
C4    C7    S    
C42   H3    S    
C39   N15   A    
N2    N13   A    
C40   C45   A    
C32   C35   S    
N8    N9    A    
C3    C8    S    
C41   N2    A    
N5    Ni4   S    
C43   N4    A    
N15   Ni3   S    
C23   C44   A    
C48   N8    A    
C14   C23   S    
C2    C4    S    
C41   H2    S    
C3    C9    S    
C54   I1    S    
N9    Ni2   S    
C48   H8    S    
N7    Ni3   S    
N16   Ni2   S    
C36   C45   A    
C40   N16   A    
N14   Ni4   S    
C9    C11   S    
C44   N5    A    
C16   C23   A    
C17   C34   A    
C6    C53   S    
N4    Ni2   S    
C7    C9    S    
C38   N14   A    
N6    Ni3   S    
C40   H18   S    
C46   H6    S    
C17   N11   A    
C2    C8    S    
C4    C10   S    
C10   C13   S    
C47   H7    S    
C12   C50   A    
C36   H14   S    
N3    Ni1   S    
C3    H9    S    
C25   C27   S    
C12   H11   S    
C4    H10   S    
C26   C28   S    
C37   N13   A    
N4    N15   A    
C1    H1    S    
C29   C31   T    
C6    C13   T    
C30   C32   T    
C39   C53   A    
N13   Ni4   S    
N11   Ni1   S    
N1    Ni1   S    
C33   C35   T    
C18   C20   S    
C10   C54   S    
C7    H13   S    
C20   C21   T    
C8    C10   S    
C27   C28   T    
C39   H17   S    
C44   H5    S    
C7    C54   S    
C2    C9    S    
C1    C49   A    
C41   C51   A    
C42   C52   A    
C22   C51   S    
