data_mof_unit_41639.cif
_audit_creation_date              2013-03-05T15:54:14-0500
_audit_creation_method            fapswitch 2.2
_symmetry_space_group_name_H-M    P1
_symmetry_Int_Tables_number       1
_space_group_crystal_system       triclinic
_cell_length_a                    10.493515
_cell_length_b                    10.626772
_cell_length_c                    9.976328
_cell_angle_alpha                 88.684744
_cell_angle_beta                  90.266004
_cell_angle_gamma                 91.96591
_cell_volume                      1111.52620245

loop_
_atom_site_label
_atom_site_type_symbol
_atom_site_description
_atom_site_fract_x
_atom_site_fract_y
_atom_site_fract_z
_atom_type_partial_charge
O1    O     O_R   0.500000 0.316780 0.614690 -0.558117
O2    O     O_R   0.499990 0.316750 0.385360 -0.655729
C1    C     C_R   0.503985 0.260870 0.501309 0.887273
O3    O     O_R   0.313960 0.499980 0.614650 -0.612515
O4    O     O_R   0.313940 0.499960 0.385310 -0.656763
C2    C     C_R   0.257801 0.501238 0.499837 0.894410
Zn1   Zn    Zn3+2 0.500010 0.500020 0.653130 0.978000
Zn2   Zn    Zn3+2 0.499990 0.499980 0.346870 0.986413
O5    O     O_R   0.500010 0.683250 0.614640 -0.619833
O6    O     O_R   0.500000 0.683220 0.385310 -0.578637
O7    O     O_R   0.686060 0.500040 0.614690 -0.650434
O8    O     O_R   0.686040 0.500020 0.385350 -0.562659
C3    C     C_R   0.504967 0.739257 0.498793 0.857368
C4    C     C_R   0.742466 0.500236 0.500046 0.829273
C5    C     C_3   0.042317 0.510219 0.626655 -0.121077
C6    C     C_3   0.955939 0.402082 0.573420 -0.146725
H1    H     H_    0.917755 0.321342 0.634712 0.132109
H2    H     H_    0.079963 0.517885 0.730417 0.145053
C7    C     C_3   0.877880 0.500688 0.499471 0.020359
C8    C     C_3   0.961871 0.608838 0.552470 -0.192495
C9    C     C_3   0.045182 0.600686 0.425961 -0.174659
C10   C     C_3   0.958569 0.492543 0.372623 -0.135886
C11   C     C_3   0.039060 0.393875 0.446874 -0.158160
C12   C     C_3   0.122803 0.501931 0.500029 0.035478
H3    H     H_    0.927413 0.696567 0.595702 0.132787
H4    H     H_    0.086415 0.681385 0.366086 0.142720
H5    H     H_    0.920876 0.485187 0.268798 0.168719
H6    H     H_    0.075372 0.306501 0.404152 0.139064
H7    H     H_    0.350580 0.111839 0.368124 0.146750
C13   C     C_R   0.703686 0.133521 0.650448 -0.165012
H8    H     H_    0.707509 0.234925 0.654337 0.143218
C14   C     C_R   0.797939 0.069135 0.719968 -0.116150
H9    H     H_    0.870034 0.120767 0.776419 0.137646
C15   C     C_R   0.800419 0.938601 0.715461 -0.136411
H10   H     H_    0.874485 0.888780 0.768190 0.135070
C16   C     C_R   0.708410 0.872062 0.641805 -0.185790
H11   H     H_    0.716091 0.771112 0.638219 0.140301
C17   C     C_R   0.610568 0.935703 0.572712 0.108660
C18   C     C_R   0.608402 0.067381 0.576669 0.108888
C19   C     C_R   0.512158 0.128496 0.503277 -0.053494
C20   C     C_R   0.423186 0.063220 0.424879 -0.159773
H12   H     H_    0.353143 0.884274 0.363415 0.153360
C21   C     C_R   0.425028 0.934938 0.421521 -0.199686
C22   C     C_R   0.515750 0.871948 0.496723 -0.090358
C23   C     C_R   0.306031 0.370219 0.144614 -0.099952
H13   H     H_    0.315598 0.341228 0.247083 0.198518
C24   C     C_R   0.193036 0.335410 0.081264 -0.256501
H14   H     H_    0.114559 0.293233 0.138512 0.159591
C25   C     C_R   0.186764 0.340411 0.942960 -0.252167
H15   H     H_    0.104474 0.295675 0.895472 0.174435
C26   C     C_R   0.298380 0.366003 0.869398 0.371267
C27   C     C_R   0.402454 0.434944 0.930289 0.029243
C28   C     C_R   0.403819 0.436095 0.074253 0.054241
N1    N     N_R   0.498800 0.498800 0.142780 -0.124962
C29   C     C_R   0.592090 0.563249 0.070734 0.507688
H16   H     H_    0.665986 0.613486 0.871412 0.141725
C30   C     C_R   0.591730 0.562380 0.927046 -0.222874
N2    N     N_R   0.498760 0.498720 0.857170 -0.128931
O9    O     O_3   0.685350 0.629560 0.139899 -0.739964
H17   H     H_    0.745516 0.670565 0.074724 0.304474
N3    N     N_R   0.320559 0.273564 0.772009 0.235196
O10   O     O_R   0.394923 0.182474 0.806261 -0.388682
O11   O     O_R   0.235516 0.252690 0.678974 -0.454900

loop_
_geom_bond_atom_site_label_1
_geom_bond_atom_site_label_2
_geom_bond_distance
_ccdc_geom_bond_type
C1    C19   1.411936 S    
C5    H2    1.110003 S    
Zn1   O7    1.991364 S    
C9    H4    1.110342 S    
C17   C22   1.412094 A    
C26   C27   1.434503 A    
C29   O9    1.378084 S    
O4    Zn2   1.991363 S    
Zn1   N2    2.035400 S    
C24   H14   1.082832 S    
C26   N3    1.422924 S    
Zn2   O8    1.987941 S    
C21   C22   1.389697 A    
C2    C12   1.416882 S    
C14   H9    1.082732 S    
N3    O10   1.302637 A    
C16   C17   1.416439 A    
O2    C1    1.289253 A    
C23   C28   1.403784 A    
O9    H17   0.991556 S    
C24   C25   1.380919 A    
O1    Zn1   1.993268 S    
C9    C10   1.543310 S    
C8    C9    1.544383 S    
C13   C14   1.394868 A    
C20   C21   1.365203 A    
C30   N2    1.365809 A    
C13   H8    1.078549 S    
H7    C20   1.085167 S    
C27   N2    1.396382 A    
N3    O11   1.302017 A    
O3    Zn1   1.987941 S    
O4    C2    1.288476 A    
O3    C2    1.285690 A    
C5    C12   1.528737 S    
O8    C4    1.285941 A    
C13   C18   1.415695 A    
C15   H10   1.082926 S    
C6    C11   1.543602 S    
C15   C16   1.393756 A    
C10   H5    1.110498 S    
C29   C30   1.433705 A    
C6    C7    1.526766 S    
C5    C8    1.542065 S    
O7    C4    1.290171 A    
C9    C12   1.525859 S    
C11   H6    1.110364 S    
C8    H3    1.108571 S    
C11   C12   1.525245 S    
C5    C6    1.541518 S    
C23   H13   1.066172 S    
C7    C10   1.531614 S    
C17   C18   1.401746 A    
H16   C30   1.082273 S    
Zn2   O6    1.993268 S    
C25   H15   1.083740 S    
H12   C21   1.085046 S    
C23   C24   1.384144 A    
Zn2   N1    2.036372 S    
C18   C19   1.412148 A    
Zn1   O5    1.975977 S    
O5    C3    1.288215 A    
N1    C29   1.371836 A    
C16   H11   1.079972 S    
C19   C20   1.392209 A    
C25   C26   1.400472 A    
C3    C22   1.410415 S    
C28   N1    1.368862 A    
C4    C7    1.420845 S    
C10   C11   1.542997 S    
O2    Zn2   1.975977 S    
C7    C8    1.526854 S    
C27   C28   1.436571 A    
C6    H1    1.106900 S    
O1    C1    1.291200 A    
O6    C3    1.291264 A    
C14   C15   1.390050 A    
