data_mof_unit_48157.cif
_audit_creation_date              2012-12-10T20:17:48-0500
_audit_creation_method            fapswitch 2.2
_symmetry_space_group_name_H-M    P1
_symmetry_Int_Tables_number       1
_space_group_crystal_system       triclinic
_cell_length_a                    25.652745
_cell_length_b                    25.6245
_cell_length_c                    34.440868
_cell_angle_alpha                 90.015765
_cell_angle_beta                  89.99482
_cell_angle_gamma                 90.043293
_cell_volume                      22639.310199

loop_
_atom_site_label
_atom_site_type_symbol
_atom_type_description
_atom_site_fract_x
_atom_site_fract_y
_atom_site_fract_z
_atom_type_partial_charge
C1    C     C_1   0.828194 0.671366 0.749429 -0.004162
C2    C     C_1   0.170611 0.672510 0.748840 0.002001
C3    C     C_R   0.406704 0.016753 0.479456 0.411630
C4    C     C_R   0.982566 0.594075 0.520301 0.411088
C5    C     C_R   0.013116 0.406331 0.479480 0.424587
C6    C     C_R   0.405944 0.014528 0.519791 0.420081
C7    C     C_R   0.594471 0.987112 0.480482 0.420368
C8    C     C_R   0.511458 0.905744 0.019856 0.422333
C9    C     C_R   0.486992 0.094757 0.980024 0.422850
C10   C     C_R   0.093695 0.488464 0.020481 0.424580
C11   C     C_R   0.905549 0.514933 0.979669 0.414367
C12   C     C_R   0.485300 0.094352 0.020358 0.413239
C13   C     C_1   0.328689 0.171762 0.249888 -0.023530
C14   C     C_R   0.510162 0.905769 0.979492 0.426346
C15   C     C_R   0.905078 0.512905 0.020007 0.422742
C16   C     C_R   0.093629 0.486563 0.980125 0.422133
C17   C     C_R   0.499401 0.999963 0.644146 0.555627
C18   C     C_R   0.500865 0.999958 0.355932 0.570525
C19   C     C_R   0.999980 0.500004 0.644083 0.582426
C20   C     C_R   0.000040 0.500522 0.355844 0.554360
C21   C     C_R   0.999444 0.499942 0.144136 0.556140
C22   C     C_R   0.000011 0.500024 0.855915 0.582032
C23   C     C_R   0.499949 0.999944 0.144100 0.580664
C24   C     C_1   0.671906 0.828653 0.748651 0.014530
C25   C     C_R   0.500046 0.000497 0.855851 0.555681
C26   C     C_R   0.598901 0.099019 0.750041 0.488987
C27   C     C_R   0.401041 0.901029 0.250018 0.510642
C28   C     C_R   0.900978 0.598932 0.750075 0.492216
C29   C     C_R   0.098950 0.400996 0.249991 0.512595
C30   C     C_R   0.401020 0.901040 0.749993 0.488243
C31   C     C_R   0.598985 0.098955 0.250036 0.506983
C32   C     C_R   0.099025 0.401073 0.750069 0.492530
C33   C     C_R   0.901089 0.599064 0.250076 0.505776
C34   C     C_R   0.599026 0.901045 0.250049 0.493267
C35   C     C_1   0.170262 0.672860 0.250874 -0.015569
C36   C     C_R   0.401033 0.099011 0.749990 0.510057
C37   C     C_R   0.900942 0.401128 0.249889 0.487722
C38   C     C_R   0.098894 0.599034 0.749926 0.506415
C39   C     C_R   0.401075 0.098997 0.250002 0.494042
C40   C     C_R   0.598954 0.900977 0.750001 0.508770
C41   C     C_R   0.098900 0.599023 0.250028 0.489652
C42   C     C_R   0.901083 0.400992 0.749955 0.509767
C43   C     C_R   0.735561 0.697094 0.742868 0.239320
C44   C     C_R   0.263944 0.302918 0.254021 0.244144
C45   C     C_R   0.297547 0.741047 0.731077 0.239388
C46   C     C_1   0.828673 0.328184 0.749632 0.005574
C47   C     C_R   0.699158 0.262078 0.263972 0.242765
C48   C     C_R   0.264235 0.302694 0.741971 0.239526
C49   C     C_R   0.740180 0.701193 0.266102 0.229258
C50   C     C_R   0.700057 0.261738 0.734576 0.241768
C51   C     C_R   0.297525 0.740748 0.268620 0.241308
C52   C     C_R   0.737551 0.301186 0.263315 0.240945
C53   C     C_R   0.258966 0.702135 0.731541 0.244200
C54   C     C_R   0.302860 0.264366 0.253854 0.243424
C55   C     C_R   0.697179 0.736190 0.742609 0.245271
C56   C     C_R   0.258200 0.702569 0.269073 0.242328
C57   C     C_1   0.672856 0.829620 0.251656 0.008733
C58   C     C_R   0.739239 0.300017 0.734471 0.244511
C59   C     C_R   0.701895 0.740314 0.267580 0.233582
C60   C     C_R   0.302584 0.263568 0.741570 0.246088
C61   C     C_R   0.236034 0.197070 0.245410 0.243021
C62   C     C_R   0.764529 0.802841 0.749951 0.231939
C63   C     C_R   0.798681 0.240160 0.233120 0.240617
C64   C     C_R   0.199555 0.761849 0.765135 0.238360
C65   C     C_R   0.763509 0.802578 0.239672 0.226627
C66   C     C_R   0.235398 0.197093 0.750367 0.231778
C67   C     C_R   0.199616 0.762235 0.234799 0.240864
C68   C     C_1   0.327998 0.171254 0.748451 0.015729
C69   C     C_R   0.799542 0.238775 0.765180 0.240686
C70   C     C_R   0.238775 0.800131 0.765632 0.243138
C71   C     C_R   0.760603 0.200794 0.234243 0.241154
C72   C     C_R   0.802657 0.763584 0.752302 0.226941
C73   C     C_R   0.197311 0.235825 0.245470 0.244153
C74   C     C_R   0.760334 0.200518 0.765535 0.243172
C75   C     C_R   0.238717 0.800614 0.234949 0.242954
C76   C     C_R   0.197305 0.236393 0.752713 0.226843
C77   C     C_R   0.803111 0.764630 0.241500 0.230019
C78   C     C_3   0.917772 0.592359 0.606025 0.049869
C79   C     C_R   0.788377 0.710928 0.747975 -0.058909
C80   C     C_3   0.903153 0.636458 0.633820 -0.223188
C81   C     C_3   0.844197 0.640437 0.638810 -0.493795
C82   C     C_3   0.953445 0.389322 0.389897 0.040623
C83   C     C_3   0.954940 0.348162 0.357796 -0.230429
C84   C     C_3   0.900398 0.328290 0.348037 -0.486092
C85   C     C_3   0.395908 0.951081 0.619866 0.038331
C86   C     C_3   0.341762 0.929524 0.610074 -0.231242
C87   C     C_3   0.341479 0.899372 0.571812 -0.394767
C88   C     C_3   0.588069 0.921062 0.383937 0.044399
C89   C     C_3   0.631854 0.886468 0.399958 -0.227115
C90   C     C_R   0.211272 0.288625 0.249787 -0.057085
C91   C     C_3   0.615323 0.857331 0.436640 -0.403622
C92   C     C_3   0.081253 0.407551 0.605231 0.048136
C93   C     C_3   0.095906 0.363733 0.633236 -0.222480
C94   C     C_3   0.154873 0.359590 0.637997 -0.493839
C95   C     C_3   0.046606 0.605139 0.379572 0.039184
C96   C     C_3   0.067126 0.659825 0.389100 -0.230271
C97   C     C_3   0.097907 0.660850 0.427054 -0.395001
C98   C     C_3   0.609312 0.050881 0.609177 0.044006
C99   C     C_3   0.651171 0.051903 0.640730 -0.234604
C100  C     C_3   0.670094 0.107406 0.648524 -0.487196
C101  C     C_R   0.287673 0.789655 0.748753 -0.059105
C102  C     C_3   0.409655 0.082885 0.394304 0.049194
C103  C     C_3   0.366515 0.098283 0.365967 -0.220430
C104  C     C_3   0.364074 0.157331 0.360570 -0.489187
C105  C     C_3   0.420656 0.094101 0.106373 0.047676
C106  C     C_3   0.407127 0.137658 0.134943 -0.221458
C107  C     C_3   0.348311 0.142189 0.140685 -0.486809
C108  C     C_3   0.452203 0.889580 0.889537 0.040638
C109  C     C_3   0.454016 0.847178 0.858363 -0.227838
C110  C     C_3   0.399456 0.828178 0.847836 -0.489371
C111  C     C_3   0.895635 0.451344 0.120629 0.039067
C112  C     C_1   0.171470 0.328275 0.249840 0.009966
C113  C     C_R   0.710803 0.211886 0.249486 -0.056806
C114  C     C_3   0.841594 0.429550 0.110788 -0.229557
C115  C     C_3   0.841948 0.397848 0.073227 -0.393278
C116  C     C_3   0.094618 0.421939 0.893458 0.045586
C117  C     C_3   0.138435 0.409641 0.864851 -0.221989
C118  C     C_3   0.142949 0.351113 0.857502 -0.486141
C119  C     C_3   0.573043 0.901462 0.107810 0.045899
C120  C     C_3   0.581784 0.857085 0.136675 -0.224864
C121  C     C_3   0.639603 0.848742 0.144685 -0.489783
C122  C     C_3   0.548951 0.104234 0.879941 0.038932
C123  C     C_3   0.570621 0.158270 0.890131 -0.226774
C124  C     C_R   0.211522 0.288977 0.747822 -0.058536
C125  C     C_3   0.601911 0.157707 0.927864 -0.394662
C126  C     C_3   0.109237 0.550224 0.108717 0.041951
C127  C     C_3   0.151281 0.551158 0.140129 -0.228082
C128  C     C_3   0.170122 0.606654 0.148017 -0.485478
C129  C     C_3   0.905515 0.578927 0.892929 0.046714
C130  C     C_3   0.861487 0.591376 0.864548 -0.221742
C131  C     C_3   0.857344 0.649889 0.857040 -0.486481
C132  C     C_3   0.628150 0.725007 0.701992 0.016987
C133  C     C_3   0.572435 0.704202 0.699442 -0.239407
C134  C     C_3   0.552169 0.705634 0.657804 -0.495034
C135  C     C_R   0.790786 0.713438 0.253290 -0.048478
C136  C     C_3   0.375861 0.269006 0.292364 0.014964
C137  C     C_3   0.416431 0.310624 0.302239 -0.245598
C138  C     C_3   0.439555 0.301762 0.342511 -0.498487
C139  C     C_3   0.249442 0.644730 0.680750 0.014955
C140  C     C_3   0.235334 0.587067 0.676032 -0.250752
C141  C     C_3   0.209228 0.576662 0.636958 -0.475939
C142  C     C_3   0.742036 0.362127 0.311921 0.018124
C143  C     C_3   0.748247 0.421120 0.316726 -0.253470
C144  C     C_3   0.766560 0.435378 0.357527 -0.477922
C145  C     C_3   0.369901 0.273844 0.699294 0.018285
C146  C     C_R   0.710732 0.211864 0.750000 -0.061666
C147  C     C_3   0.424664 0.296530 0.694861 -0.241406
C148  C     C_3   0.442585 0.295124 0.652619 -0.493013
C149  C     C_3   0.644404 0.748246 0.318411 0.023318
C150  C     C_3   0.651175 0.705063 0.348658 -0.247047
C151  C     C_3   0.638489 0.724757 0.389391 -0.496984
C152  C     C_3   0.742740 0.353664 0.681897 0.023948
C153  C     C_3   0.727368 0.407428 0.666564 -0.251844
C154  C     C_3   0.742425 0.413716 0.623946 -0.492240
C155  C     C_3   0.247762 0.649318 0.321580 0.021946
C156  C     C_3   0.258154 0.594456 0.337063 -0.247243
C157  C     C_R   0.287659 0.789735 0.251532 -0.057224
C158  C     C_3   0.232051 0.585871 0.376366 -0.490137
C159  C     C_3   0.639535 0.254111 0.313492 0.013557
C160  C     C_3   0.581940 0.239164 0.316708 -0.249075
C161  C     C_3   0.570116 0.212670 0.355420 -0.472676
C162  C     C_3   0.350630 0.751735 0.678497 0.021435
C163  C     C_3   0.404987 0.740324 0.662522 -0.246831
C164  C     C_3   0.413689 0.766999 0.623437 -0.491584
C165  C     C_3   0.275044 0.372223 0.294632 0.019976
C166  C     C_3   0.295879 0.427987 0.297107 -0.242958
C167  C     C_3   0.294706 0.448285 0.338754 -0.493010
C168  C     C_R   0.787380 0.290008 0.248232 -0.059586
C169  C     C_3   0.732517 0.623285 0.705098 0.011635
C170  C     C_3   0.692117 0.581612 0.695014 -0.242070
C171  C     C_3   0.704518 0.555570 0.656257 -0.500432
C172  C     C_3   0.356693 0.749721 0.318325 0.013322
C173  C     C_3   0.415025 0.760979 0.322163 -0.246246
C174  C     C_3   0.427955 0.786281 0.361114 -0.475806
C175  C     C_3   0.639368 0.251400 0.685974 0.015922
C176  C     C_3   0.604337 0.287538 0.662283 -0.251133
C177  C     C_3   0.588626 0.262423 0.623832 -0.496622
C178  C     C_3   0.710617 0.620281 0.250189 0.027872
C179  C     C_R   0.210030 0.712576 0.748522 -0.056475
C180  C     C_3   0.705754 0.564263 0.265018 -0.265876
C181  C     C_3   0.686681 0.527448 0.233210 -0.474542
C182  C     C_3   0.266313 0.375860 0.703476 0.011806
C183  C     C_3   0.306716 0.416980 0.692213 -0.242951
C184  C     C_3   0.293421 0.442118 0.653302 -0.498093
C185  C     C_3   0.128366 0.223451 0.204870 0.022150
C186  C     C_3   0.073392 0.200751 0.202342 -0.244163
C187  C     C_3   0.053485 0.200502 0.160599 -0.494384
C188  C     C_3   0.864158 0.783215 0.797437 0.031190
C189  C     C_3   0.922846 0.788154 0.804044 -0.262358
C190  C     C_R   0.288904 0.211361 0.249685 -0.066095
C191  C     C_3   0.935378 0.795516 0.847025 -0.493082
C192  C     C_3   0.754471 0.137640 0.186914 0.015125
C193  C     C_3   0.741958 0.079262 0.185726 -0.248291
C194  C     C_3   0.717611 0.063418 0.147051 -0.475842
C195  C     C_3   0.245641 0.852794 0.818838 0.015930
C196  C     C_3   0.251047 0.910307 0.829860 -0.247835
C197  C     C_3   0.267663 0.916785 0.872145 -0.482358
C198  C     C_3   0.885978 0.785623 0.261279 0.018838
C199  C     C_3   0.887305 0.843695 0.271795 -0.253310
C200  C     C_3   0.928204 0.854906 0.302868 -0.479525
C201  C     C_R   0.711577 0.788901 0.746901 -0.055726
C202  C     C_3   0.136136 0.217197 0.798208 0.030938
C203  C     C_3   0.077618 0.210736 0.804926 -0.261067
C204  C     C_3   0.065342 0.203582 0.847960 -0.493327
C205  C     C_3   0.244061 0.853539 0.181952 0.024164
C206  C     C_3   0.229812 0.907404 0.166206 -0.253193
C207  C     C_3   0.246695 0.913570 0.123967 -0.489575
C208  C     C_3   0.751620 0.143380 0.816306 0.014304
C209  C     C_3   0.740603 0.085303 0.822324 -0.243565
C210  C     C_3   0.714035 0.075216 0.861252 -0.476911
C211  C     C_3   0.136971 0.752090 0.812776 0.014693
C212  C     C_R   0.209581 0.712992 0.251582 -0.061673
C213  C     C_3   0.078748 0.739074 0.813094 -0.250260
C214  C     C_3   0.062682 0.711521 0.850507 -0.471472
C215  C     C_3   0.852798 0.247159 0.180928 0.021358
C216  C     C_3   0.907246 0.234339 0.165762 -0.248510
C217  C     C_3   0.915804 0.256686 0.125176 -0.490110
C218  C     C_3   0.779688 0.879692 0.717716 0.016430
C219  C     C_3   0.833812 0.875820 0.699132 -0.252185
C220  C     C_3   0.837051 0.908303 0.662086 -0.477597
C221  C     C_3   0.233237 0.123513 0.207149 0.013892
C222  C     C_3   0.192864 0.081884 0.196873 -0.245226
C223  C     C_1   0.327765 0.829058 0.749497 -0.004219
C224  C     C_R   0.788817 0.288572 0.749738 -0.058235
C225  C     C_3   0.205405 0.056022 0.158062 -0.498916
C226  C     C_3   0.860851 0.245789 0.813596 0.016485
C227  C     C_3   0.919260 0.257390 0.816056 -0.250495
C228  C     C_3   0.933934 0.281537 0.855064 -0.477396
C229  C     C_3   0.142095 0.750259 0.184360 0.013314
C230  C     C_3   0.108074 0.785357 0.159016 -0.250134
C231  C     C_3   0.096734 0.759907 0.119840 -0.488172
C232  C     C_3   0.219618 0.119780 0.718886 0.016901
C233  C     C_3   0.165203 0.123545 0.700768 -0.251901
C234  C     C_3   0.161208 0.090403 0.664074 -0.477580
C235  C     C_R   0.713152 0.790473 0.253017 -0.049624
C236  C     C_3   0.777093 0.855159 0.187244 0.027566
C237  C     C_3   0.777516 0.912327 0.174604 -0.265502
C238  C     C_3   0.780512 0.917425 0.130519 -0.493055
C239  C     C_R   0.288289 0.210961 0.746636 -0.055861
C240  C     C_R   0.986027 0.545871 0.581873 0.219225
C241  C     C_R   0.002410 0.453324 0.417924 0.226756
C242  C     C_R   0.451396 0.000655 0.581580 0.233396
C243  C     C_R   0.546759 0.986361 0.418709 0.231716
C244  C     C_R   0.012987 0.454429 0.581603 0.219650
C245  C     C_R   0.998478 0.548866 0.418270 0.235414
C246  C     C_R   0.546892 0.999097 0.582218 0.226442
C247  C     C_1   0.671355 0.171831 0.249841 0.003837
C248  C     C_R   0.455339 0.013843 0.418083 0.223482
C249  C     C_R   0.487718 0.046182 0.081916 0.221392
C250  C     C_R   0.501409 0.953127 0.917919 0.226909
C251  C     C_R   0.951047 0.500174 0.081721 0.235176
C252  C     C_R   0.045871 0.488210 0.918336 0.219339
C253  C     C_R   0.510169 0.953514 0.081703 0.218193
C254  C     C_R   0.499539 0.048726 0.918317 0.236520
C255  C     C_R   0.046537 0.498558 0.082009 0.227197
C256  C     C_R   0.953765 0.512512 0.918100 0.220003
C257  C     C_1   0.638646 0.861749 0.749548 0.021333
C258  C     C_1   0.171749 0.328579 0.749333 -0.004101
C259  C     C_1   0.361808 0.138537 0.249976 -0.014026
C260  C     C_1   0.137845 0.638925 0.749359 -0.002032
C261  C     C_1   0.860954 0.362276 0.249280 -0.006541
C262  C     C_1   0.361285 0.138187 0.749448 0.024258
C263  C     C_1   0.639106 0.862218 0.250762 0.003314
C264  C     C_1   0.861790 0.361427 0.749757 0.010457
C265  C     C_1   0.137718 0.639043 0.250480 -0.008010
C266  C     C_1   0.638329 0.138485 0.249981 -0.000207
C267  C     C_1   0.361286 0.861904 0.749771 -0.004293
C268  C     C_1   0.138330 0.361492 0.249924 0.021521
C269  C     C_1   0.829966 0.673171 0.252018 0.015715
C270  C     C_1   0.861551 0.638375 0.750007 -0.003562
C271  C     C_1   0.361338 0.861870 0.250388 0.010255
C272  C     C_1   0.638086 0.138676 0.750179 -0.012070
C273  C     C_1   0.862447 0.639318 0.250975 0.021342
C274  C     C_1   0.138426 0.361604 0.749958 -0.003328
C275  C     C_R   0.999830 0.500146 0.601756 0.009352
C276  C     C_R   0.000370 0.501068 0.398066 -0.000694
C277  C     C_R   0.499056 0.999685 0.601932 -0.000809
C278  C     C_R   0.501042 0.999742 0.398274 -0.000533
C279  C     C_R   0.499684 0.999964 0.101796 0.009586
C280  C     C_1   0.671027 0.172102 0.750109 -0.013328
C281  C     C_R   0.500378 0.000930 0.898086 0.000199
C282  C     C_R   0.998840 0.499512 0.101904 -0.000000
C283  C     C_R   0.999859 0.500144 0.898219 0.008664
C284  C     C_R   0.009052 0.453308 0.540777 -0.036552
C285  C     C_R   0.993722 0.548303 0.458996 -0.023219
C286  C     C_R   0.547519 0.996224 0.541404 -0.036521
C287  C     C_R   0.453717 0.010450 0.458893 -0.038216
C288  C     C_R   0.989331 0.547216 0.541022 -0.036341
C289  C     C_R   0.005239 0.453007 0.458750 -0.035217
C290  C     C_R   0.452132 0.005793 0.540882 -0.023097
C291  C     C_1   0.327877 0.828975 0.250872 0.005669
C292  C     C_R   0.547661 0.991719 0.459409 -0.025429
C293  C     C_R   0.506849 0.952689 0.040840 -0.034174
C294  C     C_R   0.494908 0.048265 0.959048 -0.023973
C295  C     C_R   0.046908 0.495467 0.041195 -0.036212
C296  C     C_R   0.952506 0.509224 0.958942 -0.035730
C297  C     C_R   0.490800 0.047332 0.041071 -0.036792
C298  C     C_R   0.503890 0.952694 0.958767 -0.034502
C299  C     C_R   0.951485 0.504784 0.040975 -0.023583
C300  C     C_R   0.046793 0.491793 0.959174 -0.035782
C301  C     C_R   0.999189 0.500346 0.520410 -0.164447
C302  C     C_1   0.827329 0.329552 0.248755 -0.007033
C303  C     C_R   0.999325 0.500537 0.479349 -0.168000
C304  C     C_R   0.500058 0.001113 0.520674 -0.168966
C305  C     C_R   0.500479 0.001140 0.479625 -0.168676
C306  C     C_R   0.499028 0.000132 0.020462 -0.163985
C307  C     C_R   0.499226 0.000349 0.979390 -0.167419
C308  C     C_R   0.999318 0.500254 0.020607 -0.167784
C309  C     C_R   0.999541 0.500449 0.979546 -0.164444
C310  C     C_R   0.015104 0.406496 0.519839 0.419797
C311  C     C_R   0.984498 0.594561 0.479963 0.421050
C312  C     C_R   0.594413 0.989352 0.520823 0.413556
F1    F     F_    0.021636 0.360043 0.538179 -0.564810
F2    F     F_    0.479567 0.141127 0.961747 -0.556726
F3    F     F_    0.139972 0.482097 0.039032 -0.558049
F4    F     F_    0.859226 0.521186 0.961161 -0.565284
F5    F     F_    0.479577 0.140795 0.038881 -0.564563
F6    F     F_    0.516156 0.859358 0.960977 -0.558304
F7    F     F_    0.858755 0.520308 0.038299 -0.559840
F8    F     F_    0.140173 0.480867 0.961817 -0.560738
F9    F     F_    0.975893 0.640712 0.461666 -0.563886
F10   F     F_    0.640632 0.983170 0.539487 -0.569308
F11   F     F_    0.360586 0.023532 0.460766 -0.568202
F12   F     F_    0.975457 0.640327 0.538820 -0.571237
F13   F     F_    0.020202 0.360085 0.460951 -0.560788
F14   F     F_    0.359624 0.022445 0.537968 -0.565266
F15   F     F_    0.641075 0.981289 0.462294 -0.565571
F16   F     F_    0.516139 0.859006 0.038102 -0.563513
H1    H     H_    0.901231 0.555190 0.617455 0.129964
H2    H     H_    0.972586 0.365417 0.331239 0.168789
H3    H     H_    0.125800 0.565985 0.081245 0.174803
H4    H     H_    0.135176 0.534481 0.167422 0.168608
H5    H     H_    0.184867 0.526815 0.130789 0.208180
H6    H     H_    0.187547 0.623792 0.121387 0.155417
H7    H     H_    0.200086 0.606171 0.171280 0.165489
H8    H     H_    0.137055 0.631350 0.157672 0.140913
H9    H     H_    0.942338 0.596178 0.881526 0.128921
H10   H     H_    0.896640 0.597445 0.921413 0.171370
H11   H     H_    0.868762 0.571044 0.836550 0.178077
H12   H     H_    0.823960 0.576979 0.876639 0.211334
H13   H     H_    0.979534 0.314817 0.367269 0.206167
H14   H     H_    0.850813 0.671264 0.884674 0.152681
H15   H     H_    0.823967 0.657584 0.837347 0.164030
H16   H     H_    0.893568 0.664492 0.843070 0.152302
H17   H     H_    0.653325 0.701077 0.682582 0.121336
H18   H     H_    0.628541 0.766179 0.691662 0.127311
H19   H     H_    0.571428 0.663277 0.710122 0.182230
H20   H     H_    0.546512 0.728189 0.718165 0.184278
H21   H     H_    0.550846 0.746478 0.647046 0.155640
H22   H     H_    0.512206 0.689076 0.656827 0.146834
H23   H     H_    0.577634 0.682032 0.638514 0.144889
H24   H     H_    0.881894 0.310666 0.374081 0.152925
H25   H     H_    0.395781 0.230583 0.291499 0.148636
H26   H     H_    0.346028 0.268114 0.315997 0.101699
H27   H     H_    0.448244 0.309588 0.280331 0.184566
H28   H     H_    0.398013 0.349835 0.301340 0.177182
H29   H     H_    0.408732 0.305046 0.365036 0.146934
H30   H     H_    0.469981 0.331581 0.348368 0.150768
H31   H     H_    0.457588 0.262487 0.344233 0.143950
H32   H     H_    0.279145 0.654954 0.658572 0.136977
H33   H     H_    0.213816 0.668580 0.675063 0.116695
H34   H     H_    0.271220 0.562976 0.678344 0.171644
H35   H     H_    0.902927 0.298177 0.324924 0.167945
H36   H     H_    0.208316 0.575201 0.699645 0.195568
H37   H     H_    0.172959 0.600043 0.634240 0.168215
H38   H     H_    0.198793 0.534729 0.634663 0.144210
H39   H     H_    0.236127 0.586760 0.612824 0.141863
H40   H     H_    0.780136 0.343286 0.318767 0.113860
H41   H     H_    0.712639 0.347897 0.333068 0.133945
H42   H     H_    0.777127 0.435800 0.295265 0.183917
H43   H     H_    0.710279 0.440534 0.311003 0.170341
H44   H     H_    0.737905 0.421691 0.379464 0.143937
H45   H     H_    0.770359 0.478426 0.359947 0.159731
H46   H     H_    0.875776 0.360845 0.337328 0.148132
H47   H     H_    0.805113 0.417494 0.363618 0.146157
H48   H     H_    0.343049 0.296078 0.680011 0.120066
H49   H     H_    0.370534 0.232297 0.689840 0.128821
H50   H     H_    0.424834 0.337638 0.705175 0.180896
H51   H     H_    0.452444 0.273798 0.712947 0.185511
H52   H     H_    0.445168 0.254160 0.642233 0.158806
H53   H     H_    0.481615 0.313490 0.650158 0.145332
H54   H     H_    0.415001 0.317140 0.633928 0.145274
H55   H     H_    0.603710 0.762952 0.319900 0.151082
H56   H     H_    0.670147 0.781987 0.325863 0.109729
H57   H     H_    0.397107 0.957924 0.651714 0.132986
H58   H     H_    0.624992 0.671848 0.341479 0.181541
H59   H     H_    0.692086 0.690908 0.348192 0.203410
H60   H     H_    0.665306 0.757003 0.397526 0.153737
H61   H     H_    0.643283 0.692493 0.410599 0.154302
H62   H     H_    0.597602 0.738900 0.390767 0.143020
H63   H     H_    0.722976 0.323418 0.663955 0.125734
H64   H     H_    0.785694 0.349081 0.678747 0.134130
H65   H     H_    0.684549 0.412703 0.669595 0.173845
H66   H     H_    0.747229 0.438097 0.683977 0.181339
H67   H     H_    0.785295 0.409898 0.620393 0.162058
H68   H     H_    0.425825 0.920694 0.613137 0.116154
H69   H     H_    0.730428 0.452873 0.613499 0.144936
H70   H     H_    0.722571 0.383693 0.605960 0.147232
H71   H     H_    0.204884 0.655847 0.321398 0.127892
H72   H     H_    0.265860 0.678210 0.341567 0.114189
H73   H     H_    0.242869 0.565174 0.316113 0.185662
H74   H     H_    0.300889 0.588587 0.340079 0.169200
H75   H     H_    0.246393 0.614885 0.397830 0.143513
H76   H     H_    0.241301 0.546108 0.387138 0.149682
H77   H     H_    0.189063 0.589453 0.373527 0.149013
H78   H     H_    0.648149 0.284637 0.335441 0.130425
H79   H     H_    0.329314 0.902469 0.633563 0.097147
H80   H     H_    0.663631 0.219139 0.320682 0.119361
H81   H     H_    0.557482 0.274747 0.313838 0.169608
H82   H     H_    0.571541 0.212059 0.292754 0.195397
H83   H     H_    0.594143 0.176903 0.358789 0.169234
H84   H     H_    0.528416 0.201172 0.356454 0.143583
H85   H     H_    0.578284 0.239763 0.379857 0.142009
H86   H     H_    0.345178 0.794789 0.679195 0.127422
H87   H     H_    0.321107 0.734770 0.658490 0.113049
H88   H     H_    0.434835 0.754547 0.683418 0.184963
H89   H     H_    0.409830 0.697477 0.659015 0.169035
H90   H     H_    0.313027 0.961924 0.608705 0.217377
H91   H     H_    0.384090 0.753766 0.602045 0.143395
H92   H     H_    0.453025 0.757002 0.612251 0.147951
H93   H     H_    0.411188 0.810049 0.626773 0.148973
H94   H     H_    0.298734 0.347099 0.314189 0.124045
H95   H     H_    0.233903 0.371984 0.304899 0.136795
H96   H     H_    0.336690 0.428996 0.286280 0.181259
H97   H     H_    0.271823 0.453941 0.278469 0.184122
H98   H     H_    0.253967 0.449691 0.349644 0.158051
H99   H     H_    0.311334 0.488252 0.339687 0.146956
H100  H     H_    0.318339 0.422754 0.357965 0.146516
H101  H     H_    0.354520 0.924439 0.547495 0.224053
H102  H     H_    0.771222 0.604150 0.707079 0.149327
H103  H     H_    0.733523 0.652531 0.681047 0.097053
H104  H     H_    0.691479 0.551415 0.718182 0.189797
H105  H     H_    0.652854 0.599785 0.693360 0.173032
H106  H     H_    0.704080 0.584840 0.632473 0.145487
H107  H     H_    0.674759 0.525253 0.649930 0.148032
H108  H     H_    0.743472 0.536722 0.657397 0.147699
H109  H     H_    0.345407 0.721029 0.340969 0.136259
H110  H     H_    0.334843 0.786672 0.323797 0.118096
H111  H     H_    0.437187 0.723903 0.319364 0.176743
H112  H     H_    0.899941 0.600315 0.577161 0.169877
H113  H     H_    0.301347 0.885470 0.565557 0.146545
H114  H     H_    0.427488 0.787555 0.298414 0.193145
H115  H     H_    0.407401 0.824231 0.364002 0.168332
H116  H     H_    0.470590 0.793442 0.362973 0.144895
H117  H     H_    0.416295 0.760212 0.385375 0.141090
H118  H     H_    0.617739 0.214560 0.691252 0.149831
H119  H     H_    0.674938 0.242403 0.668478 0.100977
H120  H     H_    0.568657 0.296617 0.679287 0.180052
H121  H     H_    0.625209 0.324703 0.656344 0.168968
H122  H     H_    0.623763 0.253316 0.606241 0.147589
H123  H     H_    0.563641 0.289775 0.607161 0.146221
H124  H     H_    0.367613 0.864945 0.573736 0.114624
H125  H     H_    0.566333 0.225926 0.629155 0.152414
H126  H     H_    0.737856 0.620471 0.224930 0.127394
H127  H     H_    0.671542 0.634114 0.240559 0.172238
H128  H     H_    0.744394 0.550617 0.275541 0.179070
H129  H     H_    0.677921 0.563129 0.289749 0.172608
H130  H     H_    0.647716 0.539850 0.222616 0.161789
H131  H     H_    0.683514 0.487230 0.244976 0.169028
H132  H     H_    0.714593 0.527107 0.208548 0.159654
H133  H     H_    0.227853 0.395383 0.705965 0.148950
H134  H     H_    0.264253 0.346170 0.679755 0.097712
H135  H     H_    0.593606 0.923623 0.352003 0.152268
H136  H     H_    0.308182 0.447744 0.714956 0.188364
H137  H     H_    0.345795 0.398503 0.690196 0.173345
H138  H     H_    0.293404 0.412302 0.629881 0.146195
H139  H     H_    0.322892 0.472413 0.646226 0.150208
H140  H     H_    0.254459 0.460832 0.654722 0.144392
H141  H     H_    0.154327 0.200369 0.185480 0.125022
H142  H     H_    0.127373 0.264562 0.194464 0.137383
H143  H     H_    0.073622 0.160077 0.213557 0.181837
H144  H     H_    0.046521 0.224297 0.220627 0.182398
H145  H     H_    0.050957 0.241012 0.149280 0.157977
H146  H     H_    0.549581 0.901598 0.388707 0.118592
H147  H     H_    0.014095 0.182617 0.159665 0.146466
H148  H     H_    0.079874 0.177266 0.141758 0.147443
H149  H     H_    0.849713 0.749116 0.814432 0.123007
H150  H     H_    0.844751 0.819275 0.808208 0.180223
H151  H     H_    0.942656 0.752346 0.793335 0.176413
H152  H     H_    0.938003 0.822151 0.787466 0.179232
H153  H     H_    0.915760 0.830986 0.858420 0.156293
H154  H     H_    0.978070 0.800207 0.850870 0.149088
H155  H     H_    0.922368 0.760981 0.863947 0.145564
H156  H     H_    0.784856 0.146063 0.164818 0.137788
H157  H     H_    0.642579 0.856986 0.377648 0.088059
H158  H     H_    0.718590 0.159840 0.178941 0.117931
H159  H     H_    0.778318 0.056501 0.190317 0.171295
H160  H     H_    0.714364 0.069514 0.209512 0.193971
H161  H     H_    0.680759 0.085182 0.142140 0.169752
H162  H     H_    0.708588 0.021034 0.147443 0.148202
H163  H     H_    0.745060 0.071440 0.122829 0.140051
H164  H     H_    0.284218 0.833620 0.823213 0.115145
H165  H     H_    0.216916 0.834057 0.838502 0.132933
H166  H     H_    0.280602 0.929005 0.810764 0.185890
H167  H     H_    0.213107 0.930369 0.825409 0.183494
H168  H     H_    0.667129 0.910331 0.406000 0.240688
H169  H     H_    0.238065 0.899346 0.891798 0.147433
H170  H     H_    0.271425 0.958946 0.879054 0.161670
H171  H     H_    0.305887 0.897707 0.877279 0.142751
H172  H     H_    0.925858 0.773247 0.252718 0.159594
H173  H     H_    0.875456 0.761985 0.287366 0.121084
H174  H     H_    0.896360 0.867046 0.245441 0.188200
H175  H     H_    0.848549 0.855851 0.282952 0.198872
H176  H     H_    0.919517 0.832369 0.329653 0.161125
H177  H     H_    0.927898 0.897147 0.310061 0.164706
H178  H     H_    0.967656 0.844305 0.292170 0.159583
H179  H     H_    0.602345 0.884846 0.459461 0.200907
H180  H     H_    0.149696 0.251996 0.814812 0.123354
H181  H     H_    0.156530 0.181873 0.809309 0.180171
H182  H     H_    0.056806 0.245836 0.793994 0.177035
H183  H     H_    0.063383 0.176116 0.788597 0.179122
H184  H     H_    0.086027 0.168879 0.859596 0.156198
H185  H     H_    0.022807 0.197631 0.851840 0.148959
H186  H     H_    0.077309 0.238730 0.864623 0.145113
H187  H     H_    0.224642 0.823395 0.163733 0.127715
H188  H     H_    0.287053 0.848486 0.179653 0.134801
H189  H     H_    0.186935 0.913054 0.168241 0.173133
H190  H     H_    0.648770 0.834475 0.447973 0.150717
H191  H     H_    0.249192 0.937926 0.184058 0.181474
H192  H     H_    0.289649 0.909303 0.121397 0.164388
H193  H     H_    0.235545 0.952892 0.113318 0.145833
H194  H     H_    0.227275 0.883779 0.105511 0.148608
H195  H     H_    0.714781 0.165416 0.821695 0.117074
H196  H     H_    0.780854 0.156354 0.838043 0.130294
H197  H     H_    0.714846 0.070921 0.798668 0.193638
H198  H     H_    0.777837 0.063203 0.821099 0.175067
H199  H     H_    0.738778 0.089565 0.885479 0.141869
H200  H     H_    0.707590 0.032664 0.865011 0.165134
H201  H     H_    0.582936 0.829964 0.429965 0.114799
H202  H     H_    0.675647 0.095176 0.862215 0.144432
H203  H     H_    0.144907 0.780538 0.836346 0.133481
H204  H     H_    0.159531 0.715901 0.819253 0.120348
H205  H     H_    0.055904 0.775665 0.809978 0.168609
H206  H     H_    0.069326 0.713453 0.788041 0.192066
H207  H     H_    0.084309 0.674224 0.853712 0.173243
H208  H     H_    0.020301 0.702705 0.849602 0.149520
H209  H     H_    0.070668 0.736869 0.875990 0.141095
H210  H     H_    0.847424 0.290212 0.179594 0.129034
H211  H     H_    0.823419 0.228488 0.161621 0.113921
H212  H     H_    0.098097 0.444781 0.616347 0.126441
H213  H     H_    0.936973 0.250966 0.185753 0.183882
H214  H     H_    0.912322 0.191279 0.164855 0.170204
H215  H     H_    0.886488 0.240704 0.104622 0.144877
H216  H     H_    0.955303 0.245995 0.114701 0.149389
H217  H     H_    0.912709 0.299924 0.125802 0.149105
H218  H     H_    0.770512 0.921527 0.722715 0.157863
H219  H     H_    0.749440 0.864771 0.697207 0.110192
H220  H     H_    0.863734 0.889823 0.720037 0.193436
H221  H     H_    0.842346 0.834476 0.691825 0.191869
H222  H     H_    0.807850 0.894479 0.640591 0.162837
H223  H     H_    0.921335 0.629187 0.662605 0.177259
H224  H     H_    0.098724 0.399137 0.576310 0.168942
H225  H     H_    0.876536 0.904415 0.649201 0.164842
H226  H     H_    0.829870 0.950138 0.668632 0.158264
H227  H     H_    0.271919 0.104302 0.208870 0.151066
H228  H     H_    0.234243 0.153025 0.183284 0.101902
H229  H     H_    0.192173 0.051568 0.219953 0.189161
H230  H     H_    0.153599 0.100023 0.195206 0.171339
H231  H     H_    0.204900 0.085392 0.134347 0.147802
H232  H     H_    0.175777 0.025613 0.151635 0.148472
H233  H     H_    0.244420 0.037294 0.159178 0.147858
H234  H     H_    0.850749 0.216117 0.835852 0.134758
H235  H     H_    0.077980 0.371437 0.662056 0.177840
H236  H     H_    0.839021 0.282296 0.820547 0.119614
H237  H     H_    0.941528 0.220618 0.811910 0.170460
H238  H     H_    0.930354 0.284846 0.792489 0.191088
H239  H     H_    0.912644 0.318806 0.859484 0.169497
H240  H     H_    0.976428 0.289813 0.855626 0.148598
H241  H     H_    0.924458 0.254230 0.879095 0.141730
H242  H     H_    0.120621 0.713277 0.189382 0.148941
H243  H     H_    0.178813 0.741318 0.168210 0.103745
H244  H     H_    0.070611 0.793186 0.174157 0.182239
H245  H     H_    0.128175 0.823222 0.154145 0.169911
H246  H     H_    0.080505 0.326033 0.622103 0.206178
H247  H     H_    0.133633 0.752806 0.103804 0.146209
H248  H     H_    0.071740 0.786148 0.102213 0.152703
H249  H     H_    0.075990 0.722241 0.124007 0.154209
H250  H     H_    0.228747 0.077994 0.724128 0.159518
H251  H     H_    0.249577 0.134301 0.697989 0.110738
H252  H     H_    0.135568 0.110061 0.722083 0.193423
H253  H     H_    0.156725 0.164784 0.693128 0.192552
H254  H     H_    0.190123 0.103686 0.642183 0.163696
H255  H     H_    0.121535 0.094252 0.651512 0.165239
H256  H     H_    0.168288 0.048656 0.670964 0.157724
H257  H     H_    0.173530 0.350252 0.609737 0.153667
H258  H     H_    0.742766 0.835543 0.173785 0.121139
H259  H     H_    0.813360 0.836128 0.176630 0.185399
H260  H     H_    0.741485 0.931839 0.185133 0.174867
H261  H     H_    0.811661 0.932383 0.187764 0.175665
H262  H     H_    0.816430 0.898413 0.119384 0.156033
H263  H     H_    0.781527 0.959338 0.122400 0.147911
H264  H     H_    0.745896 0.899095 0.116756 0.148166
H265  H     H_    0.164217 0.328071 0.658986 0.147392
H266  H     H_    0.170912 0.396960 0.649130 0.141251
H267  H     H_    0.039557 0.603582 0.347758 0.132483
H268  H     H_    0.077597 0.575839 0.386256 0.115814
H269  H     H_    0.093457 0.672826 0.365332 0.098227
H270  H     H_    0.034173 0.687886 0.390772 0.219963
H271  H     H_    0.918317 0.674080 0.622378 0.205735
H272  H     H_    0.073663 0.647085 0.451607 0.223259
H273  H     H_    0.110839 0.701369 0.433225 0.147676
H274  H     H_    0.132940 0.635614 0.424733 0.114528
H275  H     H_    0.576695 0.076750 0.618562 0.122497
H276  H     H_    0.625999 0.066703 0.581766 0.174599
H277  H     H_    0.634878 0.035386 0.668015 0.165114
H278  H     H_    0.684767 0.027445 0.631572 0.196298
H279  H     H_    0.687675 0.124371 0.621889 0.153258
H280  H     H_    0.699986 0.106943 0.671838 0.161820
H281  H     H_    0.637073 0.132275 0.658055 0.142579
H282  H     H_    0.825297 0.649331 0.610566 0.152799
H283  H     H_    0.447231 0.099373 0.383619 0.127749
H284  H     H_    0.400993 0.100338 0.423194 0.168256
H285  H     H_    0.373856 0.079581 0.337369 0.181683
H286  H     H_    0.328376 0.084129 0.377111 0.208607
H287  H     H_    0.355772 0.176862 0.388690 0.153935
H288  H     H_    0.332528 0.167197 0.339765 0.155767
H289  H     H_    0.401655 0.172066 0.348886 0.140517
H290  H     H_    0.403325 0.056985 0.117252 0.129131
H291  H     H_    0.402839 0.103290 0.077711 0.172338
H292  H     H_    0.425812 0.129463 0.163412 0.177429
H293  H     H_    0.834874 0.672198 0.659614 0.147323
H294  H     H_    0.422507 0.175372 0.123837 0.211021
H295  H     H_    0.328847 0.151317 0.112697 0.156638
H296  H     H_    0.339755 0.174008 0.161619 0.159864
H297  H     H_    0.332359 0.105071 0.152355 0.142156
H298  H     H_    0.426364 0.921586 0.879066 0.123730
H299  H     H_    0.435037 0.872981 0.916525 0.174816
H300  H     H_    0.473055 0.863008 0.831846 0.169781
H301  H     H_    0.477470 0.813682 0.869064 0.210283
H302  H     H_    0.379473 0.812103 0.873829 0.152295
H303  H     H_    0.402153 0.797083 0.825466 0.167794
H304  H     H_    0.828370 0.603161 0.650271 0.143156
H305  H     H_    0.376161 0.860907 0.835856 0.151028
H306  H     H_    0.896594 0.458740 0.152414 0.133134
H307  H     H_    0.925661 0.420898 0.114336 0.117488
H308  H     H_    0.828613 0.403501 0.134742 0.099170
H309  H     H_    0.812979 0.461947 0.108391 0.223563
H310  H     H_    0.855946 0.421763 0.048552 0.221349
H311  H     H_    0.801829 0.384142 0.066694 0.151214
H312  H     H_    0.867622 0.363222 0.076353 0.114191
H313  H     H_    0.057794 0.404408 0.882276 0.128230
H314  H     H_    0.103882 0.403627 0.921938 0.170840
H315  H     H_    0.926819 0.421300 0.380472 0.121225
H316  H     H_    0.130694 0.429729 0.836834 0.177657
H317  H     H_    0.175981 0.424406 0.876658 0.211056
H318  H     H_    0.150140 0.329992 0.885144 0.153036
H319  H     H_    0.176049 0.343564 0.837511 0.163531
H320  H     H_    0.106617 0.336095 0.843935 0.152312
H321  H     H_    0.591960 0.937390 0.119383 0.128032
H322  H     H_    0.591974 0.891229 0.079745 0.174166
H323  H     H_    0.561709 0.866387 0.164438 0.173354
H324  H     H_    0.564831 0.820460 0.124823 0.208957
H325  H     H_    0.660589 0.839309 0.117364 0.150527
H326  H     H_    0.937314 0.371468 0.416792 0.175096
H327  H     H_    0.644512 0.815753 0.165252 0.155614
H328  H     H_    0.656797 0.884389 0.157851 0.157160
H329  H     H_    0.542132 0.103415 0.848085 0.137173
H330  H     H_    0.579191 0.074080 0.886415 0.115512
H331  H     H_    0.596881 0.171433 0.866371 0.101599
H332  H     H_    0.538237 0.186903 0.892460 0.231232
H333  H     H_    0.577775 0.143658 0.952384 0.221420
H334  H     H_    0.615607 0.197821 0.934562 0.153298
H335  H     H_    0.636482 0.131953 0.924900 0.114869
H336  H     H_    0.076733 0.576172 0.118198 0.122553
O1    O     O_3   0.500000 0.000000 0.750000 -0.437219
O2    O     O_R   0.500000 0.957280 0.337460 -0.558712
O3    O     O_3   0.774845 0.853075 0.228165 -0.561364
O4    O     O_R   0.957280 0.500000 0.662540 -0.543579
O5    O     O_R   0.042720 0.500000 0.337460 -0.547216
O6    O     O_R   0.000000 0.457280 0.162540 -0.548346
O7    O     O_R   0.000000 0.542720 0.837460 -0.545306
O8    O     O_R   0.542720 0.000000 0.162540 -0.547558
O9    O     O_R   0.457280 1.000000 0.837460 -0.538539
O10   O     O_R   0.000000 0.542720 0.162540 -0.538090
O11   O     O_R   1.000000 0.457280 0.837460 -0.544838
O12   O     O_R   0.457280 0.000000 0.162540 -0.542510
O13   O     O_3   0.500000 1.000000 0.250000 -0.430643
O14   O     O_R   0.542720 1.000000 0.837460 -0.545747
O15   O     O_R   0.560140 0.102800 0.727040 -0.544254
O16   O     O_R   0.439860 0.897200 0.272960 -0.543579
O17   O     O_R   0.897200 0.560140 0.727040 -0.548961
O18   O     O_R   0.102800 0.439860 0.272960 -0.533086
O19   O     O_R   0.439860 0.897200 0.727040 -0.549382
O20   O     O_R   0.560140 0.102800 0.272960 -0.543608
O21   O     O_R   0.102800 0.439860 0.727040 -0.550195
O22   O     O_R   0.897200 0.560140 0.272960 -0.534690
O23   O     O_R   0.560140 0.897200 0.272960 -0.555876
O24   O     O_3   0.000000 0.500000 0.750000 -0.431457
O25   O     O_R   0.439860 0.102800 0.727040 -0.538200
O26   O     O_R   0.897200 0.439860 0.272960 -0.550167
O27   O     O_R   0.102800 0.560140 0.727040 -0.542208
O28   O     O_R   0.439860 0.102800 0.272960 -0.548941
O29   O     O_R   0.560140 0.897200 0.727040 -0.537114
O30   O     O_R   0.102800 0.560140 0.272960 -0.549031
O31   O     O_R   0.897200 0.439860 0.727040 -0.533889
O32   O     O_R   0.060140 0.602800 0.227040 -0.546421
O33   O     O_R   0.939860 0.397200 0.772960 -0.545179
O34   O     O_R   0.397200 0.060140 0.227040 -0.547338
O35   O     O_3   0.000000 0.500000 0.250000 -0.437721
O36   O     O_R   0.602800 0.939860 0.772960 -0.526722
O37   O     O_R   0.939860 0.397200 0.227040 -0.548972
O38   O     O_R   0.060140 0.602800 0.772960 -0.543904
O39   O     O_R   0.602800 0.939860 0.227040 -0.545550
O40   O     O_R   0.397200 0.060140 0.772960 -0.527428
O41   O     O_R   0.060140 0.397200 0.772960 -0.546337
O42   O     O_R   0.939860 0.602800 0.227040 -0.530147
O43   O     O_R   0.397200 0.939860 0.772960 -0.548296
O44   O     O_R   0.602800 0.060140 0.227040 -0.541288
O45   O     O_R   0.939860 0.602800 0.772960 -0.547463
O46   O     O_R   0.500000 0.957280 0.662540 -0.549429
O47   O     O_R   0.060140 0.397200 0.227040 -0.532931
O48   O     O_R   0.602800 0.060140 0.772960 -0.555335
O49   O     O_R   0.397200 0.939860 0.227040 -0.533568
O50   O     O_3   0.972712 0.589921 0.602965 -0.512581
O51   O     O_3   0.004762 0.407351 0.396819 -0.502851
O52   O     O_3   0.404009 0.999826 0.601169 -0.501527
O53   O     O_3   0.591900 0.972565 0.398956 -0.505701
O54   O     O_3   0.026309 0.410188 0.602435 -0.510517
O55   O     O_3   0.998223 0.596179 0.398515 -0.498283
O56   O     O_3   0.592750 0.998757 0.603461 -0.507861
O57   O     O_R   0.500000 0.042720 0.337460 -0.541357
O58   O     O_3   0.411596 0.027814 0.396932 -0.507985
O59   O     O_3   0.475525 0.090582 0.102995 -0.510557
O60   O     O_3   0.503570 0.907166 0.896797 -0.501360
O61   O     O_3   0.903815 0.499787 0.101523 -0.498185
O62   O     O_3   0.090566 0.476725 0.897474 -0.510157
O63   O     O_3   0.518802 0.908204 0.102614 -0.511617
O64   O     O_3   0.500207 0.096017 0.898550 -0.494719
O65   O     O_3   0.092528 0.498136 0.103084 -0.503176
O66   O     O_3   0.909301 0.524129 0.897012 -0.510482
O67   O     O_3   0.645160 0.722029 0.740941 -0.517454
O68   O     O_R   0.042720 0.500000 0.662540 -0.545238
O69   O     O_3   0.354612 0.279853 0.255299 -0.522176
O70   O     O_3   0.270932 0.652540 0.718182 -0.524026
O71   O     O_3   0.724484 0.351692 0.273766 -0.531325
O72   O     O_3   0.354526 0.277633 0.738594 -0.516542
O73   O     O_3   0.652340 0.727859 0.280613 -0.551835
O74   O     O_3   0.727727 0.349707 0.721263 -0.522896
O75   O     O_3   0.269246 0.653585 0.283892 -0.525357
O76   O     O_3   0.649086 0.274543 0.275922 -0.526633
O77   O     O_3   0.346251 0.729610 0.715981 -0.526278
O78   O     O_3   0.278226 0.354980 0.255726 -0.522079
O79   O     O_R   0.957280 0.500000 0.337460 -0.539160
O80   O     O_3   0.719856 0.645366 0.741560 -0.521453
O81   O     O_3   0.347153 0.727839 0.281249 -0.524842
O82   O     O_3   0.650554 0.275408 0.722053 -0.524429
O83   O     O_3   0.729379 0.652042 0.280620 -0.556421
O84   O     O_3   0.279948 0.354383 0.739932 -0.521292
O85   O     O_3   0.145393 0.221256 0.243847 -0.522911
O86   O     O_3   0.854534 0.776790 0.757340 -0.558461
O87   O     O_3   0.774210 0.150236 0.224148 -0.525714
O88   O     O_3   0.227840 0.849336 0.780051 -0.527925
O89   O     O_3   0.852911 0.777015 0.228972 -0.562746
O90   O     O_R   0.500000 0.042720 0.662540 -0.541682
O91   O     O_3   0.145471 0.223238 0.758051 -0.558731
O92   O     O_3   0.227526 0.850012 0.220995 -0.525587
O93   O     O_3   0.772058 0.150737 0.778499 -0.528930
O94   O     O_3   0.149533 0.775291 0.776644 -0.528890
O95   O     O_3   0.848037 0.228443 0.219399 -0.527075
O96   O     O_3   0.779138 0.854552 0.754331 -0.554106
O97   O     O_3   0.220736 0.145188 0.243812 -0.522747
O98   O     O_3   0.849674 0.225387 0.776308 -0.527366
O99   O     O_3   0.150798 0.775178 0.220477 -0.528982
O100  O     O_3   0.220858 0.145454 0.755296 -0.554165
Zn1   Zn    Zn3+2 0.561040 0.000000 0.782730 0.939904
Zn2   Zn    Zn3+2 0.938960 0.500000 0.717270 0.947192
Zn3   Zn    Zn3+2 0.500000 0.061040 0.282730 0.939435
Zn4   Zn    Zn3+2 0.500000 0.938960 0.717270 0.934060
Zn5   Zn    Zn3+2 0.938960 0.500000 0.282730 0.936456
Zn6   Zn    Zn3+2 0.061040 0.500000 0.717270 0.939614
Zn7   Zn    Zn3+2 0.500000 0.938960 0.282730 0.932667
Zn8   Zn    Zn3+2 0.500000 0.061040 0.717270 0.938564
Zn9   Zn    Zn3+2 0.438960 0.000000 0.217270 0.948501
Zn10  Zn    Zn3+2 0.000000 0.561040 0.782730 0.938490
Zn11  Zn    Zn3+2 1.000000 0.438960 0.217270 0.938369
Zn12  Zn    Zn3+2 0.438960 0.000000 0.782730 0.945650
Zn13  Zn    Zn3+2 0.561040 0.000000 0.217270 0.939620
Zn14  Zn    Zn3+2 1.000000 0.438960 0.782730 0.940632
Zn15  Zn    Zn3+2 1.000000 0.561040 0.217270 0.944257
Zn16  Zn    Zn3+2 0.061040 0.500000 0.282730 0.938130

loop_
_geom_bond_atom_site_label_1
_geom_bond_atom_site_label_2
_ccdc_geom_bond_type
C119  O63   S    
C126  C127  S    
C128  H7    S    
C126  H3    S    
C154  H69   S    
C234  H254  S    
C157  C291  S    
C41   C265  S    
C252  C300  A    
C220  H225  S    
C95   H267  S    
C186  H143  S    
C114  C115  S    
C215  H210  S    
C148  H53   S    
C185  H142  S    
C105  H291  S    
C81   H304  S    
C236  O3    S    
C77   O89   S    
O41   Zn14  S    
C207  H193  S    
C161  H85   S    
C191  H154  S    
C84   H24   S    
C31   O44   A    
C106  C107  S    
C143  C144  S    
C53   C179  A    
O10   Zn15  S    
C46   C224  S    
C108  C109  S    
C71   C113  A    
C184  H139  S    
C122  H329  S    
O1    Zn12  S    
C44   O78   S    
C182  C183  S    
C197  H171  S    
C227  H238  S    
C125  H335  S    
C247  C266  T    
C11   C15   A    
C195  H165  S    
C57   C263  T    
C25   O9    A    
C250  C298  A    
C244  C275  A    
C41   O32   A    
C176  C177  S    
C120  H324  S    
C29   O18   A    
C112  C268  T    
C118  H318  S    
C126  O65   S    
O24   Zn14  S    
C75   C157  A    
C10   F3    S    
C137  C138  S    
C15   C299  A    
C199  C200  S    
C36   O40   A    
C86   H79   S    
C31   O20   A    
C31   C266  S    
C168  C302  S    
C121  H328  S    
C147  H51   S    
C70   O88   S    
C60   O72   S    
C271  C291  T    
C57   C235  S    
C232  H251  S    
C185  H141  S    
C122  C123  S    
C24   C201  S    
C97   H273  S    
C244  C284  A    
C65   C77   A    
C202  C203  S    
O42   Zn15  S    
O18   Zn16  S    
C119  H321  S    
C172  H110  S    
C128  H8    S    
C140  C141  S    
C173  H111  S    
C206  C207  S    
C196  C197  S    
C192  O87   S    
C55   O67   S    
C151  H62   S    
C216  H213  S    
C51   C157  A    
O13   Zn3   S    
C196  H167  S    
C188  H150  S    
C215  C216  S    
O40   Zn12  S    
C62   C201  A    
C165  H94   S    
C225  H231  S    
C121  H325  S    
C255  C295  A    
C7    C292  A    
C62   O96   S    
C181  H130  S    
C141  H37   S    
C194  H163  S    
C169  H102  S    
C66   C76   A    
C103  H286  S    
C306  C307  A    
C99   H278  S    
C69   C74   A    
C87   H113  S    
C91   H179  S    
C159  O76   S    
C192  H158  S    
C207  H192  S    
C91   H190  S    
C238  H263  S    
C88   H135  S    
C139  O70   S    
O24   Zn10  S    
C63   C71   A    
C1    C79   S    
C25   C281  S    
C107  H296  S    
C23   O12   A    
C106  H294  S    
O46   Zn4   S    
C80   H271  S    
C164  H92   S    
C228  H239  S    
O1    Zn1   S    
C34   O39   A    
C5    F13   S    
C21   O10   A    
C240  C288  A    
C174  H116  S    
C129  H10   S    
C27   O49   A    
C107  H295  S    
C59   C235  A    
C78   O50   S    
C229  H243  S    
C32   O41   A    
C38   C260  S    
C139  C140  S    
C47   C52   A    
C86   H90   S    
C42   O31   A    
C72   C79   A    
C285  C311  A    
C145  H48   S    
C199  H175  S    
C132  O67   S    
C156  C158  S    
C130  C131  S    
C49   O83   S    
C94   H257  S    
C10   C16   A    
C214  H207  S    
O57   Zn3   S    
C149  H56   S    
C183  H136  S    
C232  H250  S    
C133  H19   S    
C7    C312  A    
C87   H101  S    
C250  O60   S    
C173  H114  S    
C104  H288  S    
C123  C125  S    
C177  H122  S    
C74   O93   S    
C170  H105  S    
C241  C289  A    
C195  C196  S    
C123  H332  S    
C61   O97   S    
C98   C99   S    
C8    C293  A    
C155  C156  S    
C29   C268  S    
C234  H255  S    
C30   C267  S    
C198  H172  S    
C131  H16   S    
C109  C110  S    
C292  C305  A    
C6    C290  A    
C71   O87   S    
C245  O55   S    
C67   O99   S    
C184  H140  S    
C27   C271  S    
O20   Zn3   S    
C12   C297  A    
C22   O11   A    
C258  C274  T    
C21   O6    A    
C147  C148  S    
O31   Zn2   S    
C82   H326  S    
C3    C6    A    
C117  H317  S    
C110  H302  S    
C68   C262  T    
C169  H103  S    
C70   C101  A    
C109  H301  S    
C141  H39   S    
C163  H89   S    
C85   C86   S    
C237  H261  S    
C253  O63   S    
C221  C222  S    
C128  H6    S    
C34   C263  S    
C218  H218  S    
C241  C276  A    
C209  H198  S    
C83   H13   S    
C214  H209  S    
C73   C90   A    
C134  H23   S    
C241  O51   S    
C4    C311  A    
O47   Zn11  S    
C82   O51   S    
C215  H211  S    
C148  H52   S    
C181  H132  S    
C170  C171  S    
C193  H159  S    
C194  H161  S    
C229  H242  S    
C55   C201  A    
C135  C269  S    
C236  C237  S    
C217  H216  S    
C234  H256  S    
C50   O82   S    
C117  H316  S    
C232  C233  S    
C158  H77   S    
C191  H155  S    
C34   O23   A    
C109  H300  S    
C208  O93   S    
C39   O34   A    
C237  H260  S    
C3    F11   S    
C47   O76   S    
C30   O43   A    
C29   O47   A    
O19   Zn4   S    
C189  H151  S    
C184  H138  S    
C167  H100  S    
C232  O100  S    
C89   C91   S    
C205  O92   S    
C233  C234  S    
C248  C278  A    
C58   O74   S    
C182  O84   S    
C27   O16   A    
C182  H133  S    
C228  H241  S    
C49   C135  A    
C45   C53   A    
C92   H212  S    
O13   Zn13  S    
C237  C238  S    
C142  H40   S    
C12   F5    S    
O39   Zn13  S    
C146  C280  S    
C162  H86   S    
C152  H63   S    
C104  H289  S    
C311  F9    S    
O28   Zn3   S    
O4    Zn2   S    
C209  C210  S    
C143  H43   S    
O34   Zn9   S    
C95   O55   S    
C185  O85   S    
C284  C301  A    
C136  O69   S    
C111  H307  S    
C76   C124  A    
C220  H222  S    
C18   O57   A    
C166  H97   S    
C252  C283  A    
C64   C179  A    
C23   C279  S    
C196  H166  S    
C16   F8    S    
C222  C225  S    
C113  C247  S    
C286  C312  A    
C230  H244  S    
C13   C190  S    
C249  C279  A    
C205  H188  S    
C218  O96   S    
C246  C277  A    
C202  H180  S    
C35   C212  S    
C139  H32   S    
C83   C84   S    
C197  H169  S    
C200  H176  S    
C153  H66   S    
C127  H5    S    
C187  H147  S    
C35   C265  T    
C131  H14   S    
C125  H333  S    
C26   C272  S    
C205  C206  S    
C43   C55   A    
C87   H124  S    
O6    Zn11  S    
C132  H18   S    
C7    F15   S    
C165  O78   S    
C250  C281  A    
O13   Zn9   S    
C246  C286  A    
C202  H181  S    
C67   C75   A    
C249  C297  A    
C160  H81   S    
C296  C309  A    
C120  C121  S    
C129  C130  S    
O5    Zn16  S    
C304  C305  A    
C38   O27   A    
C54   C190  A    
C256  C283  A    
C85   H57   S    
C154  H70   S    
O90   Zn8   S    
C220  H226  S    
C136  C137  S    
C186  H144  S    
C33   O42   A    
C248  C287  A    
C4    C288  A    
C148  H54   S    
C63   O95   S    
C261  C302  T    
C16   C300  A    
C28   O45   A    
C49   C59   A    
C240  C275  A    
C51   O81   S    
C203  H182  S    
O38   Zn10  S    
C233  H253  S    
C93   H235  S    
C161  H84   S    
C158  H75   S    
C191  H153  S    
C117  C118  S    
C175  H119  S    
C293  C306  A    
O9    Zn12  S    
O24   Zn6   S    
C156  H73   S    
C166  C167  S    
C33   C273  S    
O35   Zn16  S    
C312  F10   S    
C202  O91   S    
C155  H72   S    
C167  H98   S    
C122  H330  S    
C102  C103  S    
C59   O73   S    
C9    C12   A    
C197  H170  S    
C227  H237  S    
C162  O77   S    
C176  H120  S    
C125  H334  S    
O2    Zn7   S    
C222  H229  S    
C211  H204  S    
C44   C54   A    
C231  H247  S    
C152  C153  S    
C52   O71   S    
C226  C227  S    
C175  H118  S    
C150  C151  S    
C97   H272  S    
C138  H29   S    
C17   C277  S    
C118  H319  S    
C150  H59   S    
O23   Zn7   S    
C111  H306  S    
C155  H71   S    
C200  H177  S    
C149  O73   S    
C127  H4    S    
C121  H327  S    
C225  H233  S    
O22   Zn5   S    
C44   C90   A    
C145  O72   S    
C213  C214  S    
C172  C173  S    
C3    C287  A    
C193  C194  S    
C155  O75   S    
C93   C94   S    
C285  C303  A    
C245  C276  A    
C108  H299  S    
C286  C304  A    
C102  H283  S    
C40   O29   A    
C236  H259  S    
C249  O59   S    
C110  H305  S    
C66   C239  A    
C171  H108  S    
C242  C290  A    
C130  H11   S    
C151  H61   S    
C11   F4    S    
C295  C308  A    
O14   Zn1   S    
C226  O98   S    
C154  H67   S    
C204  H185  S    
C213  H206  S    
C221  H227  S    
C253  C279  A    
C85   O52   S    
C210  H202  S    
C126  H336  S    
C300  C309  A    
C244  O54   S    
C116  H313  S    
C95   C96   S    
C88   H146  S    
C208  C209  S    
C103  H285  S    
C99   H277  S    
C98   H276  S    
C208  H195  S    
C26   O48   A    
C206  H191  S    
C92   H224  S    
C199  H174  S    
C240  O50   S    
C114  H308  S    
C50   C146  A    
C124  C258  S    
C20   O79   A    
C252  O62   S    
C45   O77   S    
C95   H268  S    
C145  C147  S    
O27   Zn6   S    
C78   H112  S    
C301  C303  A    
C228  H240  S    
C26   O15   A    
C174  H117  S    
C129  H9    S    
C50   C58   A    
C195  O88   S    
C192  H156  S    
C76   O91   S    
C28   C270  S    
C238  H262  S    
C219  C220  S    
C256  C296  A    
C114  H309  S    
C284  C310  A    
C86   C87   S    
C210  H199  S    
C54   O69   S    
C294  C307  A    
C61   C73   A    
C172  O81   S    
C245  C285  A    
C24   C257  T    
C251  C299  A    
C115  H312  S    
C36   C262  S    
C37   O37   A    
C253  C293  A    
C21   C282  S    
C73   O85   S    
O45   Zn10  S    
C175  C176  S    
O26   Zn5   S    
C214  H208  S    
C149  H55   S    
C159  C160  S    
C175  O82   S    
C23   O8    A    
C207  H194  S    
C78   C80   S    
C67   C212  A    
C60   C239  A    
C170  H104  S    
C159  H80   S    
C116  H314  S    
C48   O84   S    
C45   C101  A    
C186  C187  S    
C144  H44   S    
C42   O33   A    
C42   C264  S    
C123  H331  S    
C151  H60   S    
C133  C134  S    
C25   O14   A    
C219  H220  S    
C116  O62   S    
C290  C304  A    
O15   Zn8   S    
C198  H173  S    
C131  H15   S    
C127  C128  S    
C142  O71   S    
C84   H35   S    
C180  C181  S    
C210  H200  S    
C162  C163  S    
C105  H290  S    
C243  C292  A    
C47   C113  A    
C97   H274  S    
O36   Zn1   S    
C15   F7    S    
C136  H26   S    
C119  H322  S    
C204  H186  S    
C172  H109  S    
C74   C146  A    
C102  O58   S    
C36   O25   A    
C68   C239  S    
C105  O59   S    
C110  H303  S    
C178  C180  S    
C119  C120  S    
C171  H106  S    
C141  H38   S    
C40   O36   A    
C105  C106  S    
C78   H1    S    
C269  C273  T    
C218  H219  S    
C134  H21   S    
C89   H157  S    
C188  H149  S    
C209  H197  S    
O21   Zn6   S    
C165  H95   S    
C225  H232  S    
C149  C150  S    
C192  C193  S    
C166  H96   S    
C185  C186  S    
C181  H131  S    
C106  H292  S    
C194  H162  S    
O7    Zn10  S    
C178  O83   S    
C96   H269  S    
C145  H49   S    
C92   C93   S    
C122  O64   S    
C217  H215  S    
C111  C114  S    
C203  H183  S    
C243  O53   S    
C13   C259  T    
C230  C231  S    
C299  C308  A    
C206  H189  S    
C37   C261  S    
C30   O19   A    
C188  O86   S    
C100  H280  S    
O24   Zn2   S    
C82   C83   S    
C22   O7    A    
C103  C104  S    
C142  C143  S    
C167  H99   S    
C19   O68   A    
C231  H249  S    
C242  C277  A    
C134  H22   S    
O1    Zn8   S    
C46   C264  T    
C251  C282  A    
C189  C191  S    
C182  H134  S    
C310  F1    S    
C164  H91   S    
C2    C260  T    
C203  C204  S    
C215  O95   S    
C165  C166  S    
C180  H128  S    
C174  H115  S    
C142  H41   S    
C169  C170  S    
C80   H223  S    
C163  C164  S    
C90   C112  S    
C88   O53   S    
C183  C184  S    
C94   H265  S    
C162  H87   S    
C152  H64   S    
C20   C276  S    
C39   O28   A    
C221  H228  S    
C173  C174  S    
C150  H58   S    
C140  H34   S    
C37   O26   A    
O79   Zn5   S    
C85   H68   S    
C229  C230  S    
C115  H310  S    
C83   H2    S    
C211  O94   S    
O16   Zn7   S    
O49   Zn9   S    
C56   C212  A    
C22   C283  S    
C144  H45   S    
C65   O3    S    
C195  H164  S    
C133  H20   S    
C81   H282  S    
C43   C79   A    
C230  H245  S    
C116  C117  S    
O37   Zn11  S    
C6    F14   S    
C51   C56   A    
C205  H187  S    
C108  H298  S    
C159  H78   S    
C107  H297  S    
C104  H287  S    
C236  H258  S    
C177  H123  S    
C18   C278  S    
C115  H311  S    
C19   C275  S    
C227  C228  S    
C132  C133  S    
C178  H126  S    
C153  H65   S    
C147  H50   S    
C94   H266  S    
C198  C199  S    
C75   O92   S    
C64   C70   A    
C137  H28   S    
C223  C267  T    
C100  H279  S    
O48   Zn1   S    
C88   C89   S    
C101  C223  S    
O8    Zn13  S    
O12   Zn9   S    
C19   O4    A    
C98   O56   S    
O44   Zn13  S    
C287  C305  A    
C160  H82   S    
C243  C278  A    
C9    C294  A    
O33   Zn14  S    
C48   C60   A    
C213  H205  S    
C198  O89   S    
C11   C296  A    
C66   O100  S    
C92   O54   S    
C216  C217  S    
C84   H46   S    
C120  H323  S    
C43   O80   S    
C18   O2    A    
C1    C270  T    
C193  H160  S    
C65   C235  A    
C53   O70   S    
C98   H275  S    
C288  C301  A    
O13   Zn7   S    
C188  C189  S    
C139  H33   S    
C233  H252  S    
O68   Zn6   S    
C178  H127  S    
C161  H83   S    
C158  H76   S    
C129  O66   S    
C33   O22   A    
O29   Zn4   S    
C5    C310  A    
C156  H74   S    
C99   C100  S    
O35   Zn15  S    
C96   C97   S    
C183  H137  S    
C14   C298  A    
C189  H152  S    
C62   C72   A    
C17   O46   A    
C137  H27   S    
C229  O99   S    
C96   H270  S    
O35   Zn5   S    
C38   O38   A    
C39   C259  S    
C69   O98   S    
C222  H230  S    
C211  H203  S    
C63   C168  A    
C211  C213  S    
O1    Zn4   S    
C81   H293  S    
C17   O90   A    
C180  H129  S    
C20   O5    A    
O11   Zn14  S    
C187  H145  S    
C100  H281  S    
C204  H184  S    
C72   O86   S    
C41   O30   A    
C226  H234  S    
C2    C179  S    
C152  O74   S    
C221  O97   S    
C14   F6    S    
C238  H264  S    
C297  C306  A    
C138  H30   S    
C118  H320  S    
C308  C309  A    
C9    F2    S    
C144  H47   S    
C140  H36   S    
C8    C14   A    
C56   O75   S    
C200  H178  S    
C130  H12   S    
O17   Zn2   S    
C219  H221  S    
C111  O61   S    
C80   C81   S    
C254  C294  A    
C5    C289  A    
C48   C124  A    
C246  O56   S    
C136  H25   S    
C216  H214  S    
C176  H121  S    
C77   C135  A    
C32   O21   A    
C298  C307  A    
C169  O80   S    
C69   C224  A    
C160  C161  S    
C102  H284  S    
O43   Zn12  S    
C82   H315  S    
C143  H42   S    
C138  H31   S    
C177  H125  S    
C93   H246  S    
C52   C168  A    
C89   H168  S    
C171  H107  S    
C218  C219  S    
C61   C190  A    
C248  O58   S    
C254  O64   S    
C289  C303  A    
C255  C282  A    
C217  H217  S    
C58   C224  A    
C108  O60   S    
C187  H148  S    
C251  O61   S    
C164  H93   S    
O25   Zn8   S    
C242  O52   S    
C8    F16   S    
C32   C274  S    
C254  C281  A    
C256  O66   S    
C28   O17   A    
C91   H201  S    
C64   O94   S    
C255  O65   S    
C272  C280  T    
C132  H17   S    
C4    F12   S    
O32   Zn15  S    
C163  H88   S    
C40   C257  S    
C231  H248  S    
O35   Zn11  S    
C153  C154  S    
C208  H196  S    
C226  H236  S    
O30   Zn16  S    
C10   C295  A    
