data_mof_unit_65215.cif
_audit_creation_date              2012-12-10T20:26:54-0500
_audit_creation_method            fapswitch 2.2
_symmetry_space_group_name_H-M    P1
_symmetry_Int_Tables_number       1
_space_group_crystal_system       triclinic
_cell_length_a                    41.432155
_cell_length_b                    35.51312
_cell_length_c                    21.610283
_cell_angle_alpha                 89.998741
_cell_angle_beta                  121.077451
_cell_angle_gamma                 90.006407
_cell_volume                      27233.227328

loop_
_atom_site_label
_atom_site_type_symbol
_atom_type_description
_atom_site_fract_x
_atom_site_fract_y
_atom_site_fract_z
_atom_type_partial_charge
C1    C     C_R   0.073310 0.999989 0.073436 0.919154
C2    C     C_R   0.926690 0.999985 0.926566 0.919144
C3    C     C_R   0.573347 0.500003 0.073860 0.928381
C4    C     C_R   0.426660 0.499993 0.926177 0.922870
C5    C     C_R   0.000129 0.001966 0.313426 -0.090390
C6    C     C_R   0.999871 0.001964 0.686573 -0.090453
C7    C     C_R   0.500242 0.501432 0.313754 -0.083476
C8    C     C_R   0.499756 0.501394 0.686234 -0.082962
C9    C     C_R   0.027720 0.022248 0.307579 0.021927
C10   C     C_R   0.972289 0.022253 0.692427 0.021886
C11   C     C_R   0.525789 0.524160 0.305958 0.017163
C12   C     C_R   0.474357 0.524260 0.694185 0.017153
C13   C     C_R   0.027024 0.020775 0.242886 -0.230634
C14   C     C_R   0.972985 0.020782 0.757121 -0.230732
C15   C     C_R   0.524975 0.522989 0.241164 -0.227421
C16   C     C_R   0.475199 0.523107 0.759004 -0.225712
C17   C     C_R   0.999203 0.000053 0.185200 -0.070045
C18   C     C_R   0.000798 0.000056 0.814800 -0.070066
C19   C     C_R   0.498901 0.500100 0.185107 -0.075248
C20   C     C_R   0.501168 0.500095 0.814955 -0.074702
C21   C     C_R   0.971209 0.980610 0.190306 0.016649
C22   C     C_R   0.028782 0.980605 0.809686 0.016609
C23   C     C_R   0.473035 0.477867 0.192454 0.021347
C24   C     C_R   0.526888 0.477691 0.807443 0.022801
C25   C     C_R   0.094830 0.039504 0.394989 -0.172178
C26   C     C_R   0.905186 0.039513 0.605013 -0.172250
C27   C     C_R   0.591153 0.546000 0.394376 -0.167366
C28   C     C_R   0.409106 0.546342 0.605703 -0.166972
C29   C     C_R   0.121866 0.063011 0.448702 0.215319
C30   C     C_R   0.878159 0.063024 0.551308 0.215238
C31   C     C_R   0.616030 0.571817 0.445873 0.213839
C32   C     C_R   0.384360 0.572283 0.554344 0.213869
C33   C     C_R   0.110534 0.093848 0.473172 -0.143945
C34   C     C_R   0.889502 0.093865 0.526858 -0.143993
C35   C     C_R   0.601977 0.602703 0.464823 -0.137021
C36   C     C_R   0.398571 0.603180 0.535750 -0.136753
C37   C     C_R   0.072217 0.101204 0.443958 -0.155728
C38   C     C_R   0.927821 0.101220 0.556084 -0.155912
C39   C     C_R   0.563103 0.607753 0.432424 -0.157457
C40   C     C_R   0.437471 0.608115 0.568362 -0.157599
C41   C     C_R   0.045115 0.077604 0.390680 -0.114381
C42   C     C_R   0.954915 0.077616 0.609353 -0.114468
C43   C     C_R   0.538165 0.581738 0.381678 -0.130115
C44   C     C_R   0.462279 0.581971 0.618953 -0.130426
C45   C     C_R   0.999484 0.999989 0.119604 0.878583
C46   C     C_R   0.000516 0.999990 0.880396 0.878541
C47   C     C_R   0.499346 0.499996 0.119537 0.873449
C48   C     C_R   0.500697 0.499994 0.880503 0.872326
C49   C     C_R   0.056280 0.046512 0.365978 0.089149
C50   C     C_R   0.943738 0.046520 0.634035 0.089223
C51   C     C_R   0.552079 0.550699 0.362326 0.088723
C52   C     C_R   0.448204 0.550926 0.637957 0.088243
C53   C     C_R   0.326115 0.001892 0.271693 -0.105677
C54   C     C_R   0.673886 0.001876 0.728310 -0.105977
C55   C     C_R   0.826125 0.501018 0.271832 -0.107887
C56   C     C_R   0.173871 0.500993 0.728202 -0.106084
C57   C     C_R   0.365326 0.001608 0.310220 -0.180107
C58   C     C_R   0.634674 0.001600 0.689782 -0.180364
C59   C     C_R   0.865330 0.501147 0.310292 -0.179595
C60   C     C_R   0.134666 0.501041 0.689731 -0.179336
C61   C     C_R   0.385310 0.000087 0.386070 -0.051984
C62   C     C_R   0.614690 0.000082 0.613930 -0.051869
C63   C     C_R   0.885347 0.499656 0.386141 -0.049595
C64   C     C_R   0.114657 0.499777 0.613867 -0.051653
C65   C     C_R   0.365486 0.998825 0.422721 -0.177573
C66   C     C_R   0.634514 0.998817 0.577281 -0.177788
C67   C     C_R   0.865582 0.497951 0.422866 -0.178735
C68   C     C_R   0.134435 0.498415 0.577139 -0.177155
C69   C     C_R   0.326279 0.999055 0.384032 -0.109883
C70   C     C_R   0.673722 0.999040 0.615971 -0.110123
C71   C     C_R   0.826389 0.497760 0.384251 -0.124203
C72   C     C_R   0.173631 0.498316 0.615769 -0.112701
C73   C     C_R   0.306743 0.000612 0.308709 0.113539
C74   C     C_R   0.693257 0.000593 0.691295 0.113639
C75   C     C_R   0.806819 0.499331 0.308939 0.118248
C76   C     C_R   0.193191 0.499627 0.691100 0.117375
C77   C     C_1   0.266717 0.000685 0.269215 0.072120
C78   C     C_1   0.733284 0.000661 0.730791 0.071927
C79   C     C_1   0.766820 0.499422 0.269641 0.056934
C80   C     C_1   0.233195 0.499646 0.730470 0.070067
C81   C     C_1   0.233049 0.000588 0.235589 0.205931
C82   C     C_1   0.766951 0.000562 0.764421 0.205887
C83   C     C_1   0.733169 0.499618 0.236437 0.215573
C84   C     C_1   0.266849 0.499701 0.763902 0.209120
C85   C     C_R   0.173358 0.026921 0.139083 0.377367
C86   C     C_R   0.826646 0.026884 0.860962 0.377338
C87   C     C_R   0.673636 0.530170 0.149342 0.434030
C88   C     C_R   0.326417 0.529433 0.853160 0.379989
C89   C     C_R   0.914009 0.904447 0.055777 -0.191561
C90   C     C_R   0.085969 0.904420 0.944140 -0.191152
C91   C     C_R   0.415780 0.395355 0.077810 -0.197825
C92   C     C_R   0.584717 0.394884 0.919995 -0.197580
C93   C     C_R   0.134084 0.026997 0.100618 -0.297887
C94   C     C_R   0.865919 0.026966 0.899423 -0.297898
C95   C     C_R   0.634369 0.530149 0.110252 -0.273674
C96   C     C_R   0.365685 0.529548 0.891769 -0.301166
C97   C     C_R   0.114296 0.999988 0.114960 -0.171357
C98   C     C_R   0.885704 0.999975 0.885050 -0.171311
C99   C     C_R   0.614404 0.500047 0.116291 -0.216864
C100  C     C_R   0.385613 0.499995 0.884020 -0.187456
C101  C     C_R   0.133641 0.973155 0.169178 -0.204701
C102  C     C_R   0.866357 0.973151 0.830807 -0.204651
C103  C     C_R   0.633696 0.469998 0.162778 -0.234800
C104  C     C_R   0.366304 0.470429 0.836170 -0.227932
C105  C     C_R   0.172939 0.973447 0.210334 0.425805
C106  C     C_R   0.827059 0.973437 0.789654 0.426042
C107  C     C_R   0.672980 0.469943 0.203973 0.468979
C108  C     C_R   0.327011 0.470359 0.795165 0.441271
C109  C     C_R   0.192827 0.000320 0.194765 -0.134928
C110  C     C_R   0.807173 0.000295 0.805250 -0.134866
C111  C     C_R   0.692958 0.499938 0.196395 -0.180550
C112  C     C_R   0.307060 0.499814 0.804377 -0.155887
C113  C     C_R   0.000002 0.073415 0.500001 0.848048
C114  C     C_R   0.500002 0.573401 0.499996 0.857098
C115  C     C_R   0.000109 0.000964 0.379748 0.875371
C116  C     C_R   0.999891 0.000963 0.620252 0.875389
C117  C     C_R   0.500123 0.500804 0.379836 0.876339
C118  C     C_R   0.499876 0.500795 0.620160 0.876488
C119  C     C_R   0.999998 0.926587 0.499998 0.873036
C120  C     C_R   0.499998 0.426587 0.499999 0.869302
C121  C     C_R   0.500000 0.073279 0.499999 0.905644
C122  C     C_R   1.000000 0.573278 0.499999 0.906388
C123  C     C_R   0.426597 0.999912 0.426800 0.875244
C124  C     C_R   0.573403 0.999912 0.573200 0.875093
C125  C     C_R   0.926609 0.499839 0.426815 0.874204
C126  C     C_R   0.073392 0.499863 0.573186 0.875724
C127  C     C_R   0.943800 0.923078 0.114442 -0.180563
C128  C     C_R   0.056185 0.923055 0.885480 -0.180451
C129  C     C_R   0.444613 0.416258 0.133969 -0.203181
C130  C     C_R   0.555752 0.415919 0.864363 -0.203296
C131  C     C_R   0.500000 0.926516 0.500000 0.870547
C132  C     C_R   0.000000 0.426521 0.500001 0.870139
C133  C     C_R   0.500042 0.826154 0.556171 -0.145583
C134  C     C_R   0.499961 0.826156 0.443832 -0.145305
C135  C     C_R   0.000045 0.326176 0.556179 -0.146207
C136  C     C_R   0.999975 0.326177 0.443846 -0.145393
C137  C     C_R   0.500040 0.865343 0.556249 -0.179908
C138  C     C_R   0.499961 0.865345 0.443754 -0.179807
C139  C     C_R   0.000039 0.365361 0.556252 -0.181490
C140  C     C_R   0.999972 0.365362 0.443763 -0.180429
C141  C     C_R   0.500000 0.885244 0.500001 -0.046580
C142  C     C_R   0.000003 0.385256 0.500005 -0.046160
C143  C     C_R   0.500002 0.806688 0.500002 0.149848
C144  C     C_R   0.000012 0.306715 0.500015 0.150195
C145  C     C_1   0.500003 0.766639 0.500001 -0.048151
C146  C     C_1   0.000015 0.266676 0.500017 -0.047690
C147  C     C_1   0.000015 0.233019 0.500016 -0.052089
C148  C     C_1   0.500004 0.732977 0.499998 -0.050744
C149  C     C_R   0.032215 0.173523 0.550771 -0.157252
C150  C     C_R   0.967808 0.173522 0.449247 -0.157234
C151  C     C_R   0.531658 0.673472 0.552582 -0.162986
C152  C     C_R   0.468352 0.673466 0.447400 -0.162504
C153  C     C_R   0.032238 0.134347 0.550840 -0.219863
C154  C     C_R   0.967779 0.134346 0.449170 -0.219727
C155  C     C_R   0.531695 0.634293 0.552629 -0.220587
C156  C     C_R   0.468316 0.634287 0.447348 -0.220303
C157  C     C_R   0.000006 0.114543 0.500004 -0.049952
C158  C     C_R   0.500006 0.614504 0.499987 -0.051942
C159  C     C_R   0.939919 0.960864 0.128179 0.108267
C160  C     C_R   0.060065 0.960854 0.871807 0.108302
C161  C     C_R   0.443194 0.455713 0.132199 0.126030
C162  C     C_R   0.556671 0.455372 0.867531 0.121944
C163  C     C_R   0.000013 0.192984 0.500011 0.154420
C164  C     C_R   0.500005 0.692934 0.499993 0.150324
C165  C     C_R   0.499763 0.173554 0.443384 0.168769
C166  C     C_R   0.500216 0.173553 0.556591 0.168820
C167  C     C_R   0.999849 0.673552 0.443467 0.168682
C168  C     C_R   0.000128 0.673552 0.556503 0.168826
C169  C     C_R   0.499773 0.134365 0.443640 -0.204586
C170  C     C_R   0.500215 0.134364 0.556345 -0.204596
C171  C     C_R   0.999858 0.634364 0.443722 -0.204969
C172  C     C_R   0.000130 0.634364 0.556260 -0.204662
C173  C     C_R   0.499996 0.114529 0.499995 -0.122662
C174  C     C_R   0.999996 0.614528 0.499994 -0.122474
C175  C     C_R   0.499987 0.193161 0.499985 0.018825
C176  C     C_R   0.999986 0.693160 0.499982 0.019253
C177  C     C_1   0.499985 0.233247 0.499982 0.053775
C178  C     C_1   0.999984 0.733245 0.499978 0.054062
C179  C     C_1   0.999984 0.766888 0.499978 -0.001347
C180  C     C_1   0.499984 0.266889 0.499984 -0.002016
C181  C     C_R   0.034173 0.826321 0.534734 -0.130021
C182  C     C_R   0.965804 0.826319 0.465235 -0.130959
C183  C     C_R   0.534170 0.326322 0.535022 -0.131861
C184  C     C_R   0.465807 0.326320 0.464959 -0.131421
C185  C     C_R   0.034225 0.865492 0.534784 -0.179243
C186  C     C_R   0.965758 0.865491 0.465195 -0.179435
C187  C     C_R   0.534222 0.365493 0.535069 -0.181856
C188  C     C_R   0.465762 0.365491 0.464921 -0.181284
C189  C     C_R   0.999994 0.885363 0.499992 -0.052907
C190  C     C_R   0.499994 0.385364 0.499996 -0.052293
C191  C     C_R   0.905928 0.979770 0.083176 -0.251028
C192  C     C_R   0.094046 0.979770 0.916871 -0.250872
C193  C     C_R   0.412504 0.474057 0.074195 -0.234546
C194  C     C_R   0.586988 0.473581 0.926516 -0.223024
C195  C     C_R   0.999986 0.806883 0.499982 0.139037
C196  C     C_R   0.499987 0.306884 0.499988 0.139544
C197  C     C_R   0.876017 0.960991 0.024980 -0.225163
C198  C     C_R   0.123949 0.960987 0.975061 -0.224855
C199  C     C_R   0.383387 0.453103 0.018772 -0.208840
C200  C     C_R   0.616242 0.452517 0.981430 -0.202788
C201  C     C_R   0.879988 0.923271 0.010946 0.538616
C202  C     C_R   0.119980 0.923254 0.989030 0.538169
C203  C     C_R   0.384963 0.413696 0.020188 0.533884
C204  C     C_R   0.615196 0.413109 0.978513 0.514358
C205  C     C_R   0.971956 0.981682 0.254924 -0.222208
C206  C     C_R   0.028034 0.981674 0.745067 -0.222144
C207  C     C_R   0.474159 0.478549 0.257485 -0.228270
C208  C     C_R   0.525708 0.478362 0.742347 -0.226046
H1    H     H_    0.131370 0.112214 0.514450 0.160821
H2    H     H_    0.868672 0.112234 0.485588 0.160864
H3    H     H_    0.621128 0.622896 0.504226 0.159936
H4    H     H_    0.379522 0.623470 0.496461 0.160129
H5    H     H_    0.063537 0.125376 0.462235 0.160001
H6    H     H_    0.936511 0.125395 0.537825 0.159948
H7    H     H_    0.552306 0.632016 0.446208 0.164592
H8    H     H_    0.448392 0.632387 0.554860 0.164914
H9    H     H_    0.015503 0.083755 0.368162 0.119117
H10   H     H_    0.984529 0.083765 0.631880 0.119085
H11   H     H_    0.508087 0.586050 0.356722 0.123478
H12   H     H_    0.492379 0.586189 0.644068 0.124598
H13   H     H_    0.310922 0.003079 0.213193 0.175663
H14   H     H_    0.689078 0.003061 0.786810 0.175580
H15   H     H_    0.810889 0.502276 0.213337 0.168140
H16   H     H_    0.189097 0.502034 0.786714 0.169980
H17   H     H_    0.379927 0.002635 0.280698 0.171085
H18   H     H_    0.620073 0.002629 0.719303 0.170996
H19   H     H_    0.879899 0.502496 0.280733 0.169647
H20   H     H_    0.120090 0.502127 0.719296 0.170246
H21   H     H_    0.380211 0.997611 0.481141 0.170790
H22   H     H_    0.619789 0.997606 0.518861 0.170719
H23   H     H_    0.880340 0.496727 0.481289 0.168740
H24   H     H_    0.119684 0.497387 0.518704 0.170226
H25   H     H_    0.311222 0.997998 0.412732 0.171702
H26   H     H_    0.688778 0.997981 0.587272 0.171623
H27   H     H_    0.811369 0.496442 0.413003 0.164384
H28   H     H_    0.188658 0.497241 0.587015 0.168108
H29   H     H_    0.118751 0.047462 0.058144 0.198648
H30   H     H_    0.881254 0.047424 0.941918 0.198641
H31   H     H_    0.619234 0.553163 0.073788 0.223689
H32   H     H_    0.380874 0.552199 0.929207 0.202306
H33   H     H_    0.117959 0.952704 0.180483 0.207272
H34   H     H_    0.882037 0.952713 0.819480 0.207196
H35   H     H_    0.618018 0.446990 0.167719 0.222024
H36   H     H_    0.381986 0.447912 0.829820 0.219098
H37   H     H_    0.917379 0.875310 0.045437 0.184253
H38   H     H_    0.082600 0.875274 0.954431 0.184415
H39   H     H_    0.417396 0.364914 0.079435 0.189561
H40   H     H_    0.583488 0.364442 0.917177 0.190057
H41   H     H_    0.500074 0.811058 0.599786 0.145850
H42   H     H_    0.499929 0.811062 0.400217 0.146025
H43   H     H_    0.000074 0.311079 0.599789 0.145794
H44   H     H_    0.999949 0.311080 0.400239 0.146164
H45   H     H_    0.500072 0.879993 0.600230 0.166781
H46   H     H_    0.499929 0.879996 0.399772 0.166863
H47   H     H_    0.000065 0.380011 0.600227 0.166239
H48   H     H_    0.999943 0.380013 0.399784 0.166652
H49   H     H_    0.057210 0.188611 0.590185 0.149534
H50   H     H_    0.942815 0.188608 0.409836 0.149691
H51   H     H_    0.556222 0.688561 0.593411 0.150706
H52   H     H_    0.443788 0.688551 0.406575 0.151219
H53   H     H_    0.057344 0.119576 0.590622 0.167895
H54   H     H_    0.942670 0.119574 0.409385 0.167973
H55   H     H_    0.556356 0.619501 0.593796 0.169368
H56   H     H_    0.443654 0.619490 0.406183 0.169189
H57   H     H_    0.499596 0.119522 0.399695 0.190528
H58   H     H_    0.500395 0.119521 0.600294 0.190529
H59   H     H_    0.999750 0.619521 0.399845 0.190217
H60   H     H_    0.000241 0.619521 0.600142 0.190249
H61   H     H_    0.060704 0.811216 0.561709 0.155367
H62   H     H_    0.939269 0.811213 0.438256 0.154581
H63   H     H_    0.560699 0.311217 0.562218 0.154663
H64   H     H_    0.439275 0.311214 0.437760 0.154970
H65   H     H_    0.060982 0.880155 0.561995 0.170661
H66   H     H_    0.939004 0.880152 0.437988 0.170321
H67   H     H_    0.560976 0.380156 0.562505 0.169921
H68   H     H_    0.439010 0.380153 0.437488 0.170280
H69   H     H_    0.969899 0.908174 0.148958 0.167885
H70   H     H_    0.030093 0.908145 0.850918 0.167856
H71   H     H_    0.468088 0.401764 0.178620 0.167628
H72   H     H_    0.532595 0.401519 0.818940 0.167549
H73   H     H_    0.902589 0.008963 0.093319 0.163656
H74   H     H_    0.097382 0.008974 0.906778 0.163592
H75   H     H_    0.410918 0.504520 0.072410 0.150553
H76   H     H_    0.588232 0.504044 0.929375 0.159283
H77   H     H_    0.849897 0.975918 0.991050 0.194278
H78   H     H_    0.150063 0.975921 0.009037 0.194226
H79   H     H_    0.359622 0.467607 0.974915 0.181967
H80   H     H_    0.639754 0.466931 0.025996 0.182182
H81   H     H_    0.950639 0.966451 0.259712 0.171099
H82   H     H_    0.049344 0.966438 0.740273 0.171221
H83   H     H_    0.454437 0.461428 0.264087 0.165802
H84   H     H_    0.545318 0.461142 0.735588 0.165325
H85   H     H_    0.047941 0.036155 0.237031 0.158053
H86   H     H_    0.952075 0.036166 0.762980 0.158030
H87   H     H_    0.544454 0.540232 0.234033 0.162804
H88   H     H_    0.455819 0.540457 0.766229 0.162900
H89   H     H_    0.103806 0.015790 0.376012 0.164902
H90   H     H_    0.896201 0.015797 0.623975 0.164859
H91   H     H_    0.602196 0.522327 0.379428 0.162822
H92   H     H_    0.397942 0.522663 0.620387 0.163145
O1    O     O_R   0.055440 0.968710 0.055440 -0.606595
O2    O     O_R   0.944560 0.968710 0.944560 -0.606598
O3    O     O_R   0.555440 0.468710 0.055440 -0.607003
O4    O     O_R   0.444560 0.468710 0.944560 -0.606536
O5    O     O_R   0.444560 0.999900 0.496290 -0.618854
O6    O     O_R   0.555440 0.999900 0.503710 -0.618893
O7    O     O_R   0.944560 0.499900 0.496290 -0.619635
O8    O     O_R   0.055440 0.499900 0.503710 -0.619061
O9    O     O_R   0.444560 0.999880 0.392840 -0.618223
O10   O     O_R   0.555440 0.999880 0.607160 -0.618302
O11   O     O_R   0.944560 0.499880 0.392840 -0.618560
O12   O     O_R   0.055440 0.499880 0.607160 -0.618408
O13   O     O_R   0.500000 0.944470 0.551750 -0.619649
O14   O     O_R   0.500000 0.944470 0.448250 -0.619602
O15   O     O_R   0.000000 0.444470 0.551750 -0.620332
O16   O     O_R   1.000000 0.444470 0.448250 -0.619786
O17   O     O_R   0.055440 0.031290 0.055450 -0.614344
O18   O     O_R   0.944560 0.031290 0.944550 -0.614369
O19   O     O_R   0.555440 0.531290 0.055450 -0.617377
O20   O     O_R   0.444560 0.531290 0.944550 -0.616845
O21   O     O_R   0.000000 0.968710 0.091620 -0.616978
O22   O     O_R   1.000000 0.968710 0.908380 -0.616968
O23   O     O_R   0.500000 0.468710 0.091620 -0.607880
O24   O     O_R   0.500000 0.468710 0.908380 -0.607882
O25   O     O_R   0.000000 0.031290 0.091630 -0.620016
O26   O     O_R   0.000000 0.031290 0.908370 -0.620071
O27   O     O_R   0.500000 0.531290 0.091630 -0.623481
O28   O     O_R   0.500000 0.531290 0.908370 -0.621711
O29   O     O_R   0.968720 0.055450 0.468730 -0.617397
O30   O     O_R   0.031280 0.055450 0.531270 -0.617440
O31   O     O_R   0.468720 0.555450 0.468730 -0.616032
O32   O     O_R   0.531280 0.555450 0.531270 -0.615945
O33   O     O_R   0.968700 0.000020 0.377090 -0.623597
O34   O     O_R   0.031300 0.000020 0.622910 -0.623522
O35   O     O_R   0.468700 0.500020 0.377090 -0.622889
O36   O     O_R   0.531300 0.500020 0.622910 -0.622156
O37   O     O_R   0.031300 0.000000 0.439680 -0.603562
O38   O     O_R   0.968700 1.000000 0.560320 -0.603611
O39   O     O_R   0.531300 0.500000 0.439680 -0.604661
O40   O     O_R   0.468700 0.500000 0.560320 -0.604524
O41   O     O_R   0.968690 0.944590 0.468690 -0.618841
O42   O     O_R   0.031310 0.944590 0.531310 -0.618668
O43   O     O_R   0.468690 0.444590 0.468690 -0.619606
O44   O     O_R   0.531310 0.444590 0.531310 -0.619924
O45   O     O_R   0.500000 0.055330 0.551710 -0.617008
O46   O     O_R   0.500000 0.055330 0.448290 -0.617023
O47   O     O_R   1.000000 0.555330 0.551710 -0.616952
O48   O     O_R   0.000000 0.555330 0.448290 -0.617096
Zn1   Zn    Zn3+2 1.000000 0.958210 0.000000 1.015194
Zn2   Zn    Zn3+2 0.500000 0.458210 0.000000 1.034453
Zn3   Zn    Zn3+2 0.000000 0.041790 0.000000 1.004034
Zn4   Zn    Zn3+2 0.500000 0.541790 0.000000 1.000881
Zn5   Zn    Zn3+2 0.958200 0.000020 0.458210 0.997253
Zn6   Zn    Zn3+2 0.041800 0.000020 0.541790 0.997591
Zn7   Zn    Zn3+2 0.458200 0.500020 0.458210 0.998162
Zn8   Zn    Zn3+2 0.541800 0.500020 0.541790 0.998141
Zn9   Zn    Zn3+2 0.500000 0.999910 0.569080 0.991825
Zn10  Zn    Zn3+2 0.500000 0.999910 0.430920 0.991904
Zn11  Zn    Zn3+2 1.000000 0.499910 0.569080 0.989231
Zn12  Zn    Zn3+2 0.000000 0.499910 0.430920 0.990213
S1    S     S_3+6 0.842742 0.899245 0.937778 0.011087
O49   O     O_2   0.832923 0.865066 0.965792 -0.275429
O50   O     O_2   0.808694 0.924175 0.898384 -0.314831
O51   O     O_3   0.857030 0.885537 0.881246 -0.550435
H93   H     H_    0.838814 0.865900 0.850411 0.394734
S2    S     S_3+6 0.157217 0.899225 0.062197 0.011936
O52   O     O_2   0.167027 0.865043 0.034182 -0.273603
O53   O     O_2   0.191272 0.924152 0.101600 -0.314496
O54   O     O_3   0.142919 0.885523 0.118721 -0.550400
H94   H     H_    0.161131 0.865887 0.149562 0.394989
S3    S     S_3+6 0.348801 0.387316 0.949551 0.024068
O55   O     O_2   0.341695 0.352216 0.979620 -0.278569
O56   O     O_2   0.313257 0.410229 0.910804 -0.291107
O57   O     O_3   0.362618 0.375330 0.891492 -0.534587
H95   H     H_    0.343752 0.356698 0.858558 0.396583
S4    S     S_3+6 0.651721 0.386633 0.048298 0.050387
O58   O     O_2   0.657759 0.351044 0.017943 -0.273611
O59   O     O_2   0.687530 0.409242 0.084669 -0.263371
O60   O     O_3   0.639295 0.375600 0.108816 -0.520631
H96   H     H_    0.659930 0.359350 0.144708 0.420691
S5    S     S_3+6 0.197425 0.060167 0.116334 0.048085
O61   O     O_2   0.219108 0.086511 0.178932 -0.230279
O62   O     O_2   0.224672 0.040121 0.101434 -0.301032
O63   O     O_3   0.167049 0.085327 0.043120 -0.509240
H97   H     H_    0.157906 0.067566 0.002056 0.346828
S6    S     S_3+6 0.802582 0.060107 0.883752 0.048022
O64   O     O_2   0.780907 0.086469 0.821190 -0.230458
O65   O     O_2   0.775329 0.040040 0.898618 -0.301089
O66   O     O_3   0.832961 0.085247 0.957003 -0.509176
H98   H     H_    0.842102 0.067469 0.998041 0.346825
S7    S     S_3+6 0.697918 0.568132 0.138269 0.033379
O67   O     O_2   0.722292 0.587086 0.209993 -0.274251
O68   O     O_2   0.722438 0.553163 0.111431 -0.294972
O69   O     O_3   0.667376 0.599635 0.078665 -0.550401
H99   H     H_    0.683357 0.619480 0.075796 0.396855
S8    S     S_3+6 0.302172 0.566575 0.866674 0.051735
O70   O     O_2   0.279719 0.588094 0.797291 -0.228900
O71   O     O_2   0.275584 0.550605 0.887748 -0.301609
O72   O     O_3   0.332431 0.596209 0.931555 -0.507594
H100  H     H_    0.341560 0.582364 0.977461 0.351726
S9    S     S_3+6 0.196470 0.941129 0.282775 0.065939
O73   O     O_2   0.212853 0.962397 0.352733 -0.248770
O74   O     O_2   0.169642 0.911857 0.280469 -0.269825
O75   O     O_3   0.231830 0.919840 0.279518 -0.515806
H101  H     H_    0.219522 0.900424 0.241442 0.393495
S10   S     S_3+6 0.803524 0.941131 0.717185 0.065557
O76   O     O_2   0.787161 0.962412 0.647246 -0.249026
O77   O     O_2   0.830346 0.911861 0.719486 -0.270191
O78   O     O_3   0.768149 0.919840 0.720396 -0.516263
H102  H     H_    0.780451 0.900456 0.758535 0.393291
S11   S     S_3+6 0.696583 0.432792 0.265972 0.050931
O79   O     O_2   0.668873 0.405776 0.266802 -0.268166
O80   O     O_2   0.721143 0.412148 0.244902 -0.256047
O81   O     O_3   0.723813 0.451152 0.349012 -0.560149
H103  H     H_    0.739097 0.429769 0.379501 0.388470
S12   S     S_3+6 0.303417 0.434173 0.730702 0.063163
O82   O     O_2   0.283517 0.451171 0.656363 -0.257755
O83   O     O_2   0.330886 0.405067 0.735041 -0.282176
O84   O     O_3   0.271100 0.413725 0.744787 -0.512814
H104  H     H_    0.281456 0.388607 0.765325 0.398103
I1    I     I_    0.499398 0.201523 0.356175 -0.295978
I2    I     I_    0.500575 0.201520 0.643795 -0.295179
I3    I     I_    0.999624 0.701520 0.356394 -0.298455
I4    I     I_    0.000347 0.701519 0.643568 -0.297165
I5    I     I_    0.179678 0.052130 0.492090 -0.265417
I6    I     I_    0.820343 0.052146 0.507902 -0.266181
I7    I     I_    0.674686 0.564412 0.494109 -0.285057
I8    I     I_    0.325664 0.565050 0.505783 -0.279266

loop_
_geom_bond_atom_site_label_1
_geom_bond_atom_site_label_2
_ccdc_geom_bond_type
S7    O69   S    
C99   C103  A    
C133  C137  A    
C55   C59   A    
S11   O80   D    
C136  C140  A    
C175  C177  S    
C179  C195  S    
O29   Zn5   S    
C150  C163  A    
C84   C112  S    
C119  C189  S    
C14   H86   S    
C86   C110  A    
S8    O71   D    
C26   C50   A    
C139  C142  A    
C95   C99   A    
C115  O37   A    
O7    Zn11  S    
C29   C33   A    
C100  C104  A    
C9    C13   A    
C134  C143  A    
C54   C74   A    
C11   C15   A    
C121  C173  S    
C152  C156  A    
C27   C51   A    
C1    O17   A    
C70   C74   A    
C171  H59   S    
O14   Zn10  S    
C151  C155  A    
C58   H18   S    
S4    O60   S    
C155  H55   S    
C67   H23   S    
O36   Zn8   S    
C155  C158  A    
C101  C105  A    
C21   C159  S    
C31   I7    S    
C38   H6    S    
C41   C49   A    
C119  O41   A    
O43   Zn7   S    
C25   C29   A    
S1    O51   S    
C43   H11   S    
C133  C143  A    
C27   C31   A    
C27   H91   S    
C28   C32   A    
C191  H73   S    
C62   C66   A    
C19   C23   A    
C167  C171  A    
C98   C102  A    
C17   C21   A    
C72   H28   S    
S6    O65   D    
C120  O44   A    
C78   C82   T    
C85   S5    S    
C16   C20   A    
O17   Zn3   S    
C183  C196  A    
C95   H31   S    
C2    O2    A    
C6    C116  S    
C63   C125  S    
C36   H4    S    
C7    C207  A    
C46   O22   A    
O66   H98   S    
S10   O77   D    
S6    O66   S    
C122  O47   A    
C134  H42   S    
C117  O39   A    
C145  C148  T    
O8    Zn12  S    
C146  C147  T    
C89   C127  A    
C30   I6    S    
C23   C207  A    
O40   Zn7   S    
C42   H10   S    
C138  C141  A    
C186  H66   S    
C57   C61   A    
C91   C129  A    
C59   C63   A    
C39   H7    S    
C60   C64   A    
S12   O82   D    
C132  O16   A    
C156  C158  A    
C172  H60   S    
C66   C70   A    
O2    Zn1   S    
C89   H37   S    
C205  H81   S    
O42   Zn6   S    
C114  O32   A    
C203  S3    S    
O69   H99   S    
C61   C65   A    
C73   C77   S    
C92   C130  A    
C136  H44   S    
C103  C107  A    
C113  C157  S    
O78   H102  S    
C121  O45   A    
C90   C202  A    
C26   C30   A    
C202  S2    S    
C7    C117  S    
C124  O6    A    
O84   H104  S    
C44   H12   S    
C105  S9    S    
C62   C124  S    
S9    O73   D    
C92   H40   S    
C151  H51   S    
C48   O24   A    
O4    Zn2   S    
C137  H45   S    
C64   C68   A    
O35   Zn7   S    
C17   C45   S    
C113  O29   A    
C153  C157  A    
C182  C186  A    
C19   C47   S    
O72   H100  S    
O51   H93   S    
C22   C206  A    
C188  C190  A    
C69   H25   S    
O57   H95   S    
C149  C153  A    
C34   H2    S    
C156  H56   S    
C85   C93   A    
C194  C200  A    
C93   H29   S    
C87   C95   A    
O34   Zn6   S    
S5    O63   S    
C102  H34   S    
C71   H27   S    
C125  O11   A    
C153  H53   S    
C4    O20   A    
C126  O12   A    
C131  C141  S    
C200  C204  A    
C57   H17   S    
C130  C162  A    
C176  C178  S    
C193  H75   S    
O18   Zn3   S    
C5    C115  S    
C194  H76   S    
C204  S4    S    
C128  H70   S    
C172  C174  A    
C181  H61   S    
C115  O33   A    
C183  H63   S    
C30   C34   A    
C129  C161  A    
C148  C164  S    
S12   O84   S    
C12   C16   A    
C9    C49   S    
O75   H101  S    
C118  O40   A    
C10   C14   A    
C122  C174  S    
O19   Zn4   S    
C2    O18   A    
C60   H20   S    
C5    C9    A    
C87   S7    S    
C8    C12   A    
S3    O57   S    
C40   H8    S    
C161  C193  A    
O44   Zn8   S    
C124  O10   A    
S2    O54   S    
C149  H49   S    
C42   C50   A    
C166  C170  A    
C3    O19   A    
O39   Zn8   S    
C133  H41   S    
S9    O75   S    
S7    O68   D    
C105  C109  A    
O45   Zn9   S    
C18   C22   A    
C107  C111  A    
C76   C80   S    
O12   Zn11  S    
O47   Zn11  S    
C180  C196  S    
C118  O36   A    
C185  C189  A    
C53   H13   S    
C13   H85   S    
C13   C17   A    
C61   C123  S    
O26   Zn3   S    
C147  C163  S    
C113  O30   A    
C75   C79   S    
C96   C100  A    
C47   O23   A    
C37   C41   A    
C91   C203  A    
C6    C206  A    
C45   O25   A    
O28   Zn4   S    
C3    C99   S    
C40   C44   A    
C201  S1    S    
C151  C164  A    
C25   H89   S    
C169  C173  A    
C182  C195  A    
C117  O35   A    
C28   H92   S    
C68   H24   S    
C187  H67   S    
C58   C62   A    
C199  C203  A    
C88   C96   A    
C93   C97   A    
O10   Zn9   S    
C80   C84   T    
O60   H96   S    
O30   Zn6   S    
C15   C19   A    
S1    O50   D    
C166  C175  A    
C16   H88   S    
C140  C142  A    
C206  H82   S    
C85   C109  A    
C54   C58   A    
C87   C111  A    
C94   C98   A    
S3    O55   D    
C131  O14   A    
C168  C176  A    
C4    O4    A    
S2    O52   D    
O46   Zn10  S    
C187  C190  A    
C165  I1    S    
O23   Zn2   S    
C69   C73   A    
C108  S12   S    
C59   H19   S    
C92   C204  A    
O21   Zn1   S    
S11   O81   S    
C165  C169  A    
C96   H32   S    
C122  O48   A    
C18   C46   S    
C37   H5    S    
C12   C52   S    
C178  C179  T    
C171  C174  A    
C91   H39   S    
C198  H78   S    
C184  H64   S    
C159  C191  A    
S8    O70   D    
C160  C192  A    
C154  C157  A    
C144  C146  S    
C135  H43   S    
C53   C57   A    
O24   Zn2   S    
C184  C196  A    
O11   Zn12  S    
C24   C208  A    
C33   C37   A    
C56   C60   A    
S12   O83   D    
C125  O7    A    
C139  H47   S    
C126  O8    A    
C154  H54   S    
C183  C187  A    
C41   H9    S    
C77   C81   T    
O9    Zn10  S    
C47   O27   A    
C123  O9    A    
C127  H69   S    
O20   Zn4   S    
C20   C48   S    
O22   Zn1   S    
C182  H62   S    
C81   C109  S    
C64   C126  S    
C167  I3    S    
O81   H103  S    
C83   C111  S    
C168  I4    S    
C10   C50   S    
C32   C36   A    
C104  C108  A    
C119  O42   A    
C55   H15   S    
C137  C141  A    
C169  H57   S    
C116  O34   A    
O25   Zn3   S    
C6    C10   A    
C65   H21   S    
O32   Zn8   S    
O13   Zn9   S    
C135  C139  A    
C186  C189  A    
S6    O64   D    
C32   I8    S    
C136  C144  A    
C193  C199  A    
C120  O43   A    
C79   C83   T    
C43   C51   A    
C65   C69   A    
C90   H38   S    
C67   C71   A    
C130  H72   S    
C181  C195  A    
C25   C49   A    
O41   Zn5   S    
O48   Zn12  S    
C192  C198  A    
C88   C112  A    
C108  C112  A    
C168  C172  A    
C74   C78   S    
S11   O79   D    
S5    O62   D    
S10   O76   D    
C86   S6    S    
C138  H46   S    
C208  H84   S    
C170  C173  A    
C89   C201  A    
C56   C76   A    
C170  H58   S    
C14   C18   A    
C35   C39   A    
S8    O72   S    
C72   C76   A    
O1    Zn1   S    
O63   H97   S    
C8    C118  S    
S7    O67   D    
C7    C11   A    
C15   H87   S    
C22   C160  S    
C82   C110  S    
C132  O15   A    
C38   C42   A    
C120  C190  S    
C45   O21   A    
C54   H14   S    
O37   Zn6   S    
C166  I2    S    
C26   H90   S    
C70   H26   S    
C192  H74   S    
C21   C205  A    
C8    C208  A    
C35   H3    S    
C114  O31   A    
C86   C94   A    
C33   H1    S    
C94   H30   S    
C20   C24   A    
S3    O56   D    
S10   O78   S    
C103  H35   S    
C197  C201  A    
C140  H48   S    
C101  H33   S    
C121  O46   A    
C68   C72   A    
C1    O1    A    
C114  C158  S    
C3    O3    A    
S9    O74   D    
C132  C142  S    
C63   C67   A    
C46   O26   A    
C36   C40   A    
C1    C97   S    
C56   H16   S    
C181  C185  A    
C39   C43   A    
O27   Zn4   S    
C188  H68   S    
C29   I5    S    
C104  H36   S    
C107  S11   S    
C184  C188  A    
S4    O59   D    
C198  C202  A    
C106  S10   S    
C185  H65   S    
C152  H52   S    
C177  C180  T    
C162  C194  A    
O31   Zn7   S    
O33   Zn5   S    
C152  C164  A    
C149  C163  A    
C135  C144  A    
C4    C100  S    
O38   Zn5   S    
C127  C159  A    
S4    O58   D    
C128  C160  A    
O54   H94   S    
C106  C110  A    
C143  C145  S    
C88   S8    S    
C34   C38   A    
C53   C73   A    
C191  C197  A    
C207  H83   S    
C134  C138  A    
C197  H77   S    
O6    Zn10  S    
C165  C175  A    
C199  H79   S    
S1    O49   D    
C66   H22   S    
C200  H80   S    
C123  O5    A    
O15   Zn11  S    
C55   C75   A    
C150  H50   S    
C71   C75   A    
C28   C52   A    
C44   C52   A    
S5    O61   D    
C48   O28   A    
C131  O13   A    
O3    Zn2   S    
C129  H71   S    
C31   C35   A    
O5    Zn9   S    
S2    O53   D    
C11   C51   S    
C5    C205  A    
C2    C98   S    
C150  C154  A    
C102  C106  A    
C90   C128  A    
C116  O38   A    
O16   Zn12  S    
C24   C162  S    
C97   C101  A    
C167  C176  A    
C23   C161  S    
