data_mof_unit_41294.cif
_audit_creation_date              2012-12-10T18:09:35-0500
_audit_creation_method            fapswitch 2.2
_symmetry_space_group_name_H-M    P1
_symmetry_Int_Tables_number       1
_space_group_crystal_system       triclinic
_cell_length_a                    15.682651
_cell_length_b                    14.924237
_cell_length_c                    9.405507
_cell_angle_alpha                 90.001143
_cell_angle_beta                  90.492335
_cell_angle_gamma                 89.999838
_cell_volume                      2201.29269333

loop_
_atom_site_label
_atom_site_type_symbol
_atom_type_description
_atom_site_fract_x
_atom_site_fract_y
_atom_site_fract_z
_atom_type_partial_charge
C1    C     C_R   0.117858 0.377412 0.500381 0.855224
C2    C     C_R   0.117859 0.622588 0.500383 0.855197
C3    C     C_R   0.617860 0.877414 0.500381 0.855224
C4    C     C_R   0.617857 0.122589 0.500383 0.855198
C5    C     C_3   0.089305 0.499919 0.085051 -0.186629
C6    C     C_3   0.089291 0.499948 0.917312 -0.194130
C7    C     C_3   0.589310 0.999985 0.085051 -0.186583
C8    C     C_3   0.589292 0.999984 0.917311 -0.194134
C9    C     C_R   0.880821 0.378797 0.499500 0.877101
C10   C     C_R   0.880824 0.621206 0.499501 0.877087
C11   C     C_R   0.380822 0.878796 0.499500 0.877098
C12   C     C_R   0.380823 0.121205 0.499501 0.877081
C13   C     C_3   0.840990 0.220273 0.566144 0.215287
C14   C     C_3   0.778834 0.290649 0.343829 0.196265
C15   C     C_3   0.840979 0.779719 0.566221 0.215285
C16   C     C_3   0.778879 0.709400 0.343818 0.196292
C17   C     C_3   0.340987 0.720277 0.566169 0.215290
C18   C     C_3   0.278849 0.790632 0.343824 0.196262
C19   C     C_3   0.340980 0.279720 0.566209 0.215276
C20   C     C_3   0.278867 0.209385 0.343821 0.196287
C21   C     C_3   0.266717 0.652540 0.572954 -0.437493
C22   C     C_3   0.211040 0.716226 0.345640 -0.413376
C23   C     C_3   0.266706 0.347451 0.573004 -0.437500
C24   C     C_3   0.211064 0.283797 0.345636 -0.413405
C25   C     C_3   0.766721 0.152535 0.572925 -0.437501
C26   C     C_3   0.711025 0.216244 0.345642 -0.413385
C27   C     C_3   0.766705 0.847450 0.573017 -0.437496
C28   C     C_3   0.711072 0.783807 0.345636 -0.413398
C29   C     C_3   0.734668 0.347390 0.585846 -0.332956
C30   C     C_3   0.734650 0.652595 0.585765 -0.332983
C31   C     C_3   0.234662 0.847397 0.585818 -0.332956
C32   C     C_3   0.234653 0.152597 0.585788 -0.332976
C33   C     C_3   0.810501 0.311076 0.499036 -0.149016
C34   C     C_3   0.810505 0.688931 0.499034 -0.149008
C35   C     C_3   0.310502 0.811074 0.499034 -0.149014
C36   C     C_3   0.310503 0.188928 0.499037 -0.148998
C37   C     C_3   0.186199 0.692230 0.501231 -0.102199
C38   C     C_3   0.186198 0.307770 0.501227 -0.102202
C39   C     C_3   0.686197 0.192232 0.501232 -0.102197
C40   C     C_3   0.686201 0.807773 0.501227 -0.102207
C41   C     C_3   0.159135 0.780319 0.582340 0.489393
C42   C     C_3   0.159120 0.219670 0.582289 0.489385
C43   C     C_3   0.659140 0.280313 0.582368 0.489408
C44   C     C_3   0.659120 0.719670 0.582274 0.489371
C45   C     C_3   0.957776 0.580039 0.083198 -0.183244
C46   C     C_3   0.957559 0.579835 0.916031 -0.147767
C47   C     C_3   0.957640 0.420043 0.083194 -0.183228
C48   C     C_3   0.957471 0.420217 0.916027 -0.147853
C49   C     C_3   0.457718 0.080010 0.083199 -0.183221
C50   C     C_3   0.457527 0.079818 0.916031 -0.147790
C51   C     C_3   0.457693 0.920005 0.083194 -0.183216
C52   C     C_3   0.457504 0.920196 0.916026 -0.147821
Cu1   Cu    Cu3+1 0.000100 0.500000 0.642410 0.980342
Cu2   Cu    Cu3+1 0.000100 0.500000 0.357590 0.953956
Cu3   Cu    Cu3+1 0.500100 0.000000 0.642410 0.980341
Cu4   Cu    Cu3+1 0.500100 0.000000 0.357590 0.953956
H1    H     H_    0.890228 0.191688 0.495918 0.166741
H2    H     H_    0.833605 0.267018 0.279247 0.126771
H3    H     H_    0.890223 0.808326 0.496028 0.166752
H4    H     H_    0.833669 0.733047 0.279297 0.126756
H5    H     H_    0.390228 0.691684 0.495956 0.166749
H6    H     H_    0.333626 0.766996 0.279262 0.126770
H7    H     H_    0.390224 0.308323 0.496012 0.166751
H8    H     H_    0.333654 0.233023 0.279280 0.126751
H9    H     H_    0.285703 0.589454 0.518394 0.157515
H10   H     H_    0.237236 0.655843 0.291726 0.159619
H11   H     H_    0.285697 0.410550 0.518489 0.157530
H12   H     H_    0.237275 0.344187 0.291764 0.159600
H13   H     H_    0.785703 0.089456 0.518343 0.157513
H14   H     H_    0.737216 0.155866 0.291707 0.159621
H15   H     H_    0.785698 0.910551 0.518512 0.157531
H16   H     H_    0.737280 0.844202 0.291770 0.159602
H17   H     H_    0.252545 0.633623 0.684636 0.248354
H18   H     H_    0.153772 0.736086 0.282600 0.255385
H19   H     H_    0.252517 0.366343 0.684693 0.248342
H20   H     H_    0.153806 0.263952 0.282555 0.255385
H21   H     H_    0.752558 0.133605 0.684604 0.248347
H22   H     H_    0.653752 0.236109 0.282619 0.255381
H23   H     H_    0.752513 0.866336 0.684706 0.248350
H24   H     H_    0.653816 0.763961 0.282551 0.255390
H25   H     H_    0.756180 0.359916 0.697002 0.218119
H26   H     H_    0.714927 0.414139 0.544816 0.219482
H27   H     H_    0.756134 0.640043 0.696929 0.218116
H28   H     H_    0.714920 0.585856 0.544672 0.219529
H29   H     H_    0.256166 0.859936 0.696975 0.218118
H30   H     H_    0.214923 0.914141 0.544763 0.219498
H31   H     H_    0.256142 0.140059 0.696954 0.218115
H32   H     H_    0.214923 0.085852 0.544718 0.219511
H33   H     H_    0.988883 0.642132 0.123657 0.171088
H34   H     H_    0.989045 0.641520 0.877338 0.238423
H35   H     H_    0.988616 0.357893 0.123697 0.171089
H36   H     H_    0.988917 0.358495 0.877387 0.238414
H37   H     H_    0.488769 0.142131 0.123686 0.171077
H38   H     H_    0.489004 0.141516 0.877367 0.238420
H39   H     H_    0.488727 0.857873 0.123677 0.171087
H40   H     H_    0.488965 0.858488 0.877361 0.238415
H41   H     H_    0.890736 0.581951 0.119168 0.218149
H42   H     H_    0.890252 0.581958 0.878080 0.189612
H43   H     H_    0.890587 0.418283 0.119121 0.218219
H44   H     H_    0.890172 0.418152 0.878027 0.189528
H45   H     H_    0.390666 0.081857 0.119146 0.218176
H46   H     H_    0.390224 0.081923 0.878053 0.189590
H47   H     H_    0.390641 0.918183 0.119142 0.218184
H48   H     H_    0.390200 0.918111 0.878046 0.189560
H49   H     H_    0.125031 0.559504 0.123883 0.163865
H50   H     H_    0.125007 0.559443 0.879306 0.185524
H51   H     H_    0.124913 0.440239 0.123812 0.163895
H52   H     H_    0.124956 0.440432 0.879257 0.185589
H53   H     H_    0.624989 0.059617 0.123850 0.163867
H54   H     H_    0.624992 0.059483 0.879278 0.185569
H55   H     H_    0.624972 0.940341 0.123847 0.163864
H56   H     H_    0.624972 0.940471 0.879278 0.185551
N1    N     N_3   0.001260 0.500000 0.143650 -0.154336
N2    N     N_3   0.001260 0.500000 0.856350 -0.171129
N3    N     N_3   0.501260 0.000000 0.143650 -0.154312
N4    N     N_3   0.501260 0.000000 0.856350 -0.171133
O1    O     O_R   0.091250 0.408820 0.620260 -0.566679
O2    O     O_R   0.091250 0.408820 0.379740 -0.607340
O3    O     O_R   0.091250 0.591180 0.620260 -0.566661
O4    O     O_R   0.091250 0.591180 0.379740 -0.607348
O5    O     O_R   0.591250 0.908820 0.620260 -0.566680
O6    O     O_R   0.591250 0.908820 0.379740 -0.607339
O7    O     O_R   0.591250 0.091180 0.620260 -0.566658
O8    O     O_R   0.591250 0.091180 0.379740 -0.607352
O9    O     O_R   0.908940 0.408800 0.620260 -0.566908
O10   O     O_R   0.908940 0.408800 0.379740 -0.572156
O11   O     O_R   0.908940 0.591200 0.620260 -0.566895
O12   O     O_R   0.908940 0.591200 0.379740 -0.572122
O13   O     O_R   0.408940 0.908800 0.620260 -0.566905
O14   O     O_R   0.408940 0.908800 0.379740 -0.572143
O15   O     O_R   0.408940 0.091200 0.620260 -0.566895
O16   O     O_R   0.408940 0.091200 0.379740 -0.572143
Cl1   Cl    Cl    0.887894 0.230091 0.739971 -0.559167
Cl2   Cl    Cl    0.735935 0.387217 0.254158 -0.492410
Cl3   Cl    Cl    0.887867 0.769869 0.740058 -0.559242
Cl4   Cl    Cl    0.736000 0.612861 0.254035 -0.492406
Cl5   Cl    Cl    0.387883 0.730106 0.740000 -0.559195
Cl6   Cl    Cl    0.235954 0.887190 0.254118 -0.492408
Cl7   Cl    Cl    0.387867 0.269875 0.740047 -0.559246
Cl8   Cl    Cl    0.235976 0.112838 0.254073 -0.492406
Br1   Br    Br    0.124693 0.759466 0.779296 -0.427377
Br2   Br    Br    0.062098 0.837598 0.488719 -0.407907
Br3   Br    Br    0.124628 0.240497 0.779231 -0.427279
Br4   Br    Br    0.062105 0.162394 0.488583 -0.407831
Br5   Br    Br    0.624709 0.259443 0.779326 -0.427418
Br6   Br    Br    0.562097 0.337604 0.488780 -0.407890
Br7   Br    Br    0.624630 0.740490 0.779218 -0.427273
Br8   Br    Br    0.562103 0.662405 0.488561 -0.407877

loop_
_geom_bond_atom_site_label_1
_geom_bond_atom_site_label_2
_ccdc_geom_bond_type
C12   O16   A    
C16   C28   S    
Cu3   Cu4   S    
Cu3   O5    S    
C31   H29   S    
C12   O15   A    
Cu2   O4    S    
C13   C25   S    
C14   C33   S    
C7    C8    S    
C5    H49   S    
C45   C46   S    
C29   H25   S    
Cu2   O10   S    
C26   H22   S    
C37   C41   S    
C25   H21   S    
C32   C36   S    
C38   C42   S    
C27   H23   S    
C19   C36   S    
C8    H56   S    
C49   H45   S    
C5    C6    S    
Cu1   O1    S    
C26   C39   S    
C10   O12   A    
C15   Cl3   S    
Cu3   N4    S    
C28   C40   S    
C51   H47   S    
C32   H32   S    
Cu2   N1    S    
C21   H17   S    
C44   Br7   S    
C47   H43   S    
C4    O8    A    
C16   H4    S    
C7    N3    S    
C30   H27   S    
C18   Cl6   S    
C6    N2    S    
Cu1   O11   S    
C17   H5    S    
C21   H9    S    
C22   H10   S    
C20   C24   S    
C29   C33   S    
C19   H7    S    
Cu3   O13   S    
C24   C38   S    
C12   C36   S    
C24   H12   S    
C45   H33   S    
C18   C35   S    
C15   C34   S    
C3    O6    A    
C16   C34   S    
C46   H42   S    
C31   H30   S    
C29   C43   S    
C9    C33   S    
C30   C44   S    
C28   H16   S    
C15   H3    S    
C14   H2    S    
C11   O13   A    
C47   H35   S    
C52   N4    S    
C48   H44   S    
Cu3   O7    S    
C30   C34   S    
C51   C52   S    
C2    O4    A    
C18   H6    S    
C39   C43   S    
C14   Cl2   S    
Cu1   Cu2   S    
C22   C37   S    
Cu2   O12   S    
C51   N3    S    
C7    H53   S    
C4    O7    A    
Cu4   O6    S    
C20   H8    S    
C19   C23   S    
C41   Br1   S    
C43   Br5   S    
C8    H54   S    
C15   C27   S    
C47   C48   S    
C4    C39   S    
C40   C44   S    
C27   C40   S    
C6    H50   S    
C21   C37   S    
C10   C34   S    
C1    O1    A    
C14   C26   S    
Cu4   O16   S    
Cu1   O9    S    
C1    C38   S    
C49   N3    S    
C3    C40   S    
C50   H46   S    
Cu3   O15   S    
Cu2   O2    S    
C42   Br4   S    
C26   H14   S    
C49   C50   S    
C31   C35   S    
C25   H13   S    
C22   H18   S    
C10   O11   A    
C16   Cl4   S    
C11   O14   A    
Cu4   O8    S    
C27   H15   S    
Cu1   N2    S    
C48   N2    S    
C5    H51   S    
C47   N1    S    
C52   H48   S    
C6    H52   S    
C31   C41   S    
C5    N1    S    
C18   C22   S    
C13   Cl1   S    
C50   H38   S    
C46   N2    S    
C23   H19   S    
C2    O3    A    
Cu1   O3    S    
C46   H34   S    
C23   C38   S    
C9    O10   A    
C20   Cl8   S    
C11   C35   S    
C41   Br2   S    
C43   Br6   S    
C45   H41   S    
C25   C39   S    
C32   H31   S    
C2    C37   S    
C23   H11   S    
C44   Br8   S    
Cu4   N3    S    
C7    H55   S    
C52   H40   S    
C50   N4    S    
C1    O2    A    
C30   H28   S    
C28   H24   S    
C9    O9    A    
C8    N4    S    
C24   H20   S    
C20   C36   S    
C45   N1    S    
C29   H26   S    
C13   H1    S    
C19   Cl7   S    
C13   C33   S    
C48   H36   S    
C42   Br3   S    
C32   C42   S    
C17   Cl5   S    
C17   C35   S    
C49   H37   S    
Cu4   O14   S    
C3    O5    A    
C51   H39   S    
C17   C21   S    
