data_mof_unit_30744.cif
_audit_creation_date              2013-03-05T16:02:59-0500
_audit_creation_method            fapswitch 2.2
_symmetry_space_group_name_H-M    P1
_symmetry_Int_Tables_number       1
_space_group_crystal_system       triclinic
_cell_length_a                    14.964298
_cell_length_b                    14.025624
_cell_length_c                    10.494061
_cell_angle_alpha                 90.2623
_cell_angle_beta                  89.808045
_cell_angle_gamma                 90.303785
_cell_volume                      2202.46526046

loop_
_atom_site_label
_atom_site_type_symbol
_atom_site_description
_atom_site_fract_x
_atom_site_fract_y
_atom_site_fract_z
_atom_type_partial_charge
O1    O     O_R   0.367850 0.580280 0.500030 -0.583028
O2    O     O_R   0.632150 0.419720 0.499970 -0.581518
O3    O     O_R   0.632150 0.580280 0.499970 -0.632848
O4    O     O_R   0.367850 0.419720 0.500030 -0.626549
C1    C     C_R   0.326984 0.499727 0.503582 0.941343
C2    C     C_R   0.673017 0.500202 0.496178 0.946070
O5    O     O_R   0.499970 0.580260 0.313950 -0.639915
O6    O     O_R   0.500030 0.419740 0.686050 -0.640570
O7    O     O_R   0.500030 0.580260 0.686050 -0.614110
O8    O     O_R   0.499970 0.419740 0.313950 -0.614300
C3    C     C_R   0.499773 0.499711 0.257140 0.913781
C4    C     C_R   0.500137 0.500289 0.742856 0.919632
Zn1   Zn    Zn3+2 0.500000 0.607200 0.500000 0.986398
Zn2   Zn    Zn3+2 0.500000 0.392800 0.500000 0.991179
C5    C     C_3   0.572186 0.547663 0.042405 -0.127372
C6    C     C_3   0.427574 0.452348 0.957567 -0.144604
C7    C     C_3   0.574697 0.457735 0.957106 -0.124366
C8    C     C_3   0.425065 0.542274 0.042884 -0.143043
C9    C     C_3   0.497427 0.591006 0.960340 -0.136977
C10   C     C_3   0.502334 0.409000 0.039641 -0.142330
H1    H     H_    0.495335 0.665151 0.923832 0.163026
H2    H     H_    0.504425 0.334854 0.076145 0.164748
H3    H     H_    0.630962 0.586235 0.081887 0.176992
H4    H     H_    0.368780 0.413811 0.918066 0.169431
H5    H     H_    0.635557 0.423587 0.917339 0.177872
H6    H     H_    0.364194 0.576422 0.082619 0.159374
C11   C     C_3   0.499954 0.500954 0.877756 -0.008828
C12   C     C_3   0.499820 0.499052 0.122231 -0.008468
C13   C     C_R   0.814092 0.445654 0.400454 0.280726
C14   C     C_R   0.185506 0.551236 0.601560 0.288105
C15   C     C_R   0.768445 0.500945 0.490455 -0.175210
C16   C     C_R   0.231596 0.497957 0.509983 -0.180213
C17   C     C_R   0.812732 0.553854 0.582029 -0.253799
C18   C     C_R   0.187773 0.442405 0.420669 -0.261510
C19   C     C_R   0.904805 0.547602 0.593874 0.053874
C20   C     C_R   0.095226 0.442799 0.413416 0.054132
C21   C     C_R   0.953345 0.496686 0.499655 0.047919
C22   C     C_R   0.046569 0.494405 0.506851 0.044933
C23   C     C_R   0.908330 0.449163 0.397624 -0.063351
C24   C     C_R   0.091554 0.543850 0.607264 -0.057832
C25   C     C_R   0.948184 0.589282 0.699835 -0.090554
C26   C     C_R   0.051562 0.397282 0.310441 -0.092746
C27   C     C_R   0.041622 0.584260 0.709242 -0.102684
C28   C     C_R   0.958609 0.405892 0.297940 -0.119969
H7    H     H_    0.773394 0.595313 0.648948 0.172989
H8    H     H_    0.227826 0.404351 0.351165 0.177949
C29   C     C_R   0.550877 0.798193 0.412842 -0.042938
C30   C     C_R   0.449168 0.201811 0.587217 -0.036242
C31   C     C_R   0.449178 0.798195 0.587224 -0.019321
C32   C     C_R   0.550658 0.201798 0.412601 -0.015374
N1    N     N_R   0.500000 0.750030 0.500000 -0.115015
N2    N     N_R   0.500000 0.249970 0.500000 -0.115210
C33   C     C_R   0.447940 0.898827 0.589316 -0.000081
C34   C     C_R   0.551951 0.101170 0.410573 0.002080
C35   C     C_R   0.552045 0.898830 0.410677 0.014433
C36   C     C_R   0.447940 0.101172 0.589318 0.013413
C37   C     C_R   0.499982 0.949402 0.499987 0.088981
C38   C     C_R   0.499970 0.050596 0.499973 0.088329
C39   C     C_R   0.396170 0.949873 0.678156 -0.156633
C40   C     C_R   0.603707 0.050128 0.321714 -0.157213
C41   C     C_R   0.603767 0.949881 0.321783 -0.187682
C42   C     C_R   0.396182 0.050121 0.678171 -0.183186
H9    H     H_    0.590531 0.758032 0.345065 0.139891
H10   H     H_    0.409567 0.241975 0.655055 0.139724
H11   H     H_    0.409698 0.758041 0.655167 0.186948
H12   H     H_    0.589925 0.241947 0.344433 0.187403
H13   H     H_    0.355671 0.912284 0.747617 0.178038
H14   H     H_    0.644164 0.087719 0.252204 0.175466
H15   H     H_    0.644254 0.912302 0.252291 0.154683
H16   H     H_    0.355707 0.087703 0.747674 0.157192
N3    N     N_R   0.764457 0.381415 0.320049 0.194985
O9    O     O_R   0.704616 0.413889 0.241975 -0.415908
O10   O     O_R   0.773709 0.289787 0.333101 -0.391378
N4    N     N_R   0.233874 0.617624 0.680503 0.196544
O11   O     O_R   0.296795 0.588069 0.755700 -0.425041
O12   O     O_R   0.219129 0.708616 0.670384 -0.380009
C43   C     C_2   0.895515 0.631980 0.805856 0.918483
O13   O     O_2   0.849085 0.580929 0.873508 -0.592213
O14   O     O_R   0.898522 0.730413 0.826656 -0.736665
H17   H     H_    0.859718 0.750956 0.901141 0.351592
C44   C     C_2   0.103252 0.344589 0.211502 0.927743
O15   O     O_2   0.143375 0.272074 0.240093 -0.589830
O16   O     O_R   0.105232 0.377777 0.086154 -0.773535
H18   H     H_    0.142512 0.335970 0.027814 0.360901
C45   C     C_2   0.084491 0.607841 0.833333 1.019643
O17   O     O_2   0.076811 0.687430 0.879978 -0.543934
O18   O     O_R   0.133979 0.538218 0.896184 -0.755495
H19   H     H_    0.160551 0.562426 0.979068 0.360649
C46   C     C_2   0.916979 0.376955 0.175155 1.052660
O19   O     O_2   0.877984 0.436182 0.111077 -0.552691
O20   O     O_R   0.923839 0.282753 0.132216 -0.745326
H20   H     H_    0.893235 0.272226 0.047229 0.357357

loop_
_geom_bond_atom_site_label_1
_geom_bond_atom_site_label_2
_geom_bond_distance
_ccdc_geom_bond_type
C14   C16   1.397187 A    
O18   H19   1.013949 S    
C17   H7    1.083952 S    
C20   C26   1.412891 A    
C8    H6    1.110517 S    
O3    C2    1.282085 A    
C44   O15   1.222876 D    
C33   C39   1.406005 A    
C34   C40   1.405992 A    
C43   O13   1.222918 D    
C5    C9    1.543117 S    
C32   C34   1.411662 A    
C31   H11   1.082544 S    
O1    C1    1.282469 A    
C9    H1    1.110534 S    
C25   C43   1.486850 S    
C14   N4    1.437701 S    
C30   H10   1.082747 S    
C7    C10   1.543128 S    
C42   H16   1.083323 S    
C30   C36   1.411818 A    
C8    C9    1.543162 S    
O7    Zn1   1.990346 S    
C39   H13   1.083395 S    
Zn1   N1    2.003280 S    
C24   C27   1.420690 A    
Zn2   N2    2.003281 S    
C31   N1    1.366640 A    
C32   N2    1.366550 A    
C15   C17   1.380543 A    
C18   H8    1.083051 S    
C46   O20   1.398201 S    
C9    C11   1.529064 S    
O3    Zn1   2.015218 S    
C6    C10   1.543204 S    
C1    C16   1.428853 S    
C6    C11   1.526658 S    
C5    H3    1.110543 S    
C2    C15   1.429047 S    
C6    H4    1.110580 S    
C13   C15   1.398075 A    
C25   C27   1.404212 A    
O2    C2    1.281689 A    
C26   C44   1.488688 S    
C26   C28   1.403472 A    
C19   C25   1.412243 A    
C44   O16   1.397510 S    
C43   O14   1.397248 S    
N4    O11   1.301228 A    
C45   O18   1.397812 S    
C27   C45   1.488652 S    
C8    C12   1.526519 S    
O8    Zn2   1.990347 S    
O20   H20   1.013781 S    
N3    O10   1.301211 A    
C33   C37   1.408469 A    
C29   N1    1.366771 A    
C4    C11   1.415628 S    
C45   O17   1.222645 D    
C29   H9    1.082746 S    
C40   C41   1.406032 A    
C7    C11   1.526405 S    
O5    C3    1.274978 A    
C21   C22   1.397876 A    
O16   H18   1.013789 S    
C30   N2    1.366785 A    
O6    C4    1.274963 A    
C13   C23   1.411014 A    
C14   C24   1.410279 A    
C32   H12   1.082347 S    
N4    O12   1.301190 A    
C10   H2    1.110534 S    
C35   C37   1.408320 A    
C36   C42   1.406188 A    
O1    Zn1   2.011287 S    
C5    C12   1.526630 S    
C29   C35   1.411795 A    
C34   C38   1.408450 A    
C41   H15   1.083323 S    
C5    C7    1.543848 S    
C39   C42   1.406049 A    
O6    Zn2   1.986949 S    
C19   C21   1.417534 A    
O4    C1    1.281138 A    
C23   C28   1.422147 A    
C10   C12   1.529092 S    
C7    H5    1.110507 S    
C20   C22   1.417660 A    
N3    O9    1.301254 A    
C21   C23   1.427596 A    
C22   C24   1.427434 A    
C37   C38   1.419308 A    
C3    C12   1.415728 S    
C31   C33   1.411716 A    
C35   C41   1.406195 A    
C17   C19   1.387096 A    
C36   C38   1.408318 A    
C18   C20   1.387275 A    
O4    Zn2   2.015219 S    
O2    Zn2   2.011286 S    
O7    C4    1.272629 A    
O8    C3    1.272662 A    
O14   H17   1.013822 S    
O5    Zn1   1.986950 S    
C40   H14   1.083403 S    
C6    C8    1.543931 S    
C46   O19   1.222947 D    
C28   C46   1.486931 S    
C16   C18   1.381173 A    
C13   N3    1.437205 S    
