data_mof_unit_62129.cif
_audit_creation_date              2012-12-10T20:42:16-0500
_audit_creation_method            fapswitch 2.2
_symmetry_space_group_name_H-M    P1
_symmetry_Int_Tables_number       1
_space_group_crystal_system       triclinic
_cell_length_a                    26.093184
_cell_length_b                    39.673145
_cell_length_c                    23.844093
_cell_angle_alpha                 89.999678
_cell_angle_beta                  123.607681
_cell_angle_gamma                 89.999987
_cell_volume                      20557.4746413

loop_
_atom_site_label
_atom_site_type_symbol
_atom_type_description
_atom_site_fract_x
_atom_site_fract_y
_atom_site_fract_z
_atom_type_partial_charge
C1    C     C_R   0.500000 0.621887 0.000000 -0.040752
C2    C     C_1   0.500000 0.015135 0.000000 -0.059364
C3    C     C_R   0.784174 0.772625 0.637750 0.016057
C4    C     C_R   0.284211 0.727355 0.637748 0.016059
C5    C     C_R   0.715812 0.272632 0.362250 0.016054
C6    C     C_R   0.715780 0.727351 0.362253 0.016058
C7    C     C_R   0.284216 0.272647 0.637746 0.016060
C8    C     C_R   0.820450 0.227908 0.708495 -0.178132
C9    C     C_R   0.179581 0.772073 0.291504 -0.178088
C10   C     C_R   0.179571 0.227919 0.291503 -0.178065
C11   C     C_R   0.820423 0.772077 0.708496 -0.178077
C12   C     C_R   0.320456 0.727904 0.708494 -0.178146
C13   C     C_1   0.000000 0.484865 1.000000 -0.059356
C14   C     C_R   0.679565 0.272083 0.291505 -0.178101
C15   C     C_R   0.679535 0.727899 0.291507 -0.178164
C16   C     C_R   0.320462 0.272099 0.708492 -0.178165
C17   C     C_R   0.871326 0.249637 0.743804 -0.054452
C18   C     C_R   0.128678 0.750362 0.256196 -0.054472
C19   C     C_R   0.128677 0.249637 0.256196 -0.054482
C20   C     C_R   0.871322 0.750363 0.743804 -0.054477
C21   C     C_R   0.371328 0.749636 0.743804 -0.054439
C22   C     C_R   0.628675 0.250363 0.256196 -0.054459
C23   C     C_R   0.628672 0.749636 0.256196 -0.054434
C24   C     C_1   0.000000 0.515135 0.000000 -0.059355
C25   C     C_R   0.371328 0.250363 0.743804 -0.054435
C26   C     C_R   0.885957 0.270994 0.707741 -0.191988
C27   C     C_R   0.114025 0.729020 0.292259 -0.191987
C28   C     C_R   0.114033 0.270984 0.292260 -0.191990
C29   C     C_R   0.885973 0.729020 0.707740 -0.191989
C30   C     C_R   0.385955 0.770996 0.707742 -0.191997
C31   C     C_R   0.614034 0.229013 0.292259 -0.191997
C32   C     C_R   0.614053 0.771002 0.292257 -0.191994
C33   C     C_R   0.385950 0.228999 0.707743 -0.191991
C34   C     C_R   0.850415 0.270680 0.637630 -0.156533
C35   C     C_R   0.446081 0.603983 0.954194 -0.178933
C36   C     C_R   0.149569 0.729333 0.362370 -0.156530
C37   C     C_R   0.149577 0.270669 0.362371 -0.156529
C38   C     C_R   0.850428 0.729334 0.637629 -0.156528
C39   C     C_R   0.350414 0.770682 0.637631 -0.156540
C40   C     C_R   0.649577 0.229327 0.362370 -0.156537
C41   C     C_R   0.649593 0.770688 0.362368 -0.156541
C42   C     C_R   0.350410 0.229313 0.637632 -0.156541
C43   C     C_R   0.799783 0.249080 0.602465 0.062790
C44   C     C_R   0.200226 0.750917 0.397535 0.062786
C45   C     C_R   0.200225 0.249079 0.397535 0.062784
C46   C     C_R   0.553900 0.396017 0.045852 -0.178978
C47   C     C_R   0.799775 0.750920 0.602465 0.062784
C48   C     C_R   0.299787 0.749078 0.602465 0.062798
C49   C     C_R   0.700221 0.250920 0.397535 0.062793
C50   C     C_R   0.700212 0.749080 0.397535 0.062798
C51   C     C_R   0.299788 0.250920 0.602464 0.062797
C52   C     C_1   0.764677 0.249726 0.530220 -0.083724
C53   C     C_1   0.235332 0.750272 0.469780 -0.083721
C54   C     C_1   0.235332 0.249724 0.469779 -0.083720
C55   C     C_1   0.764668 0.750275 0.530220 -0.083720
C56   C     C_1   0.264682 0.749724 0.530220 -0.083728
C57   C     C_R   0.553919 0.603982 0.045807 -0.178932
C58   C     C_1   0.735326 0.250274 0.469780 -0.083725
C59   C     C_1   0.735317 0.749726 0.469780 -0.083728
C60   C     C_1   0.264683 0.250273 0.530220 -0.083727
C61   C     C_1   0.499997 0.515140 0.000004 -0.041661
C62   C     C_1   0.499995 0.484859 0.000005 -0.041667
C63   C     C_1   0.999995 0.015140 0.000006 -0.041674
C64   C     C_1   0.999996 0.984859 0.000005 -0.041685
C65   C     C_R   0.359650 0.250209 0.999794 0.800483
C66   C     C_R   0.640351 0.749791 0.000206 0.800483
C67   C     C_R   0.640349 0.250210 0.000203 0.800473
C68   C     C_R   0.446090 0.396017 0.954159 -0.178946
C69   C     C_R   0.359650 0.749791 0.999794 0.800474
C70   C     C_R   0.859652 0.750211 0.999799 0.800476
C71   C     C_R   0.140348 0.249789 0.000202 0.800473
C72   C     C_R   0.140348 0.750211 0.000201 0.800475
C73   C     C_R   0.859650 0.249790 0.999796 0.800475
C74   C     C_R   0.446113 0.568814 0.954249 -0.137203
C75   C     C_R   0.553866 0.431186 0.045799 -0.137180
C76   C     C_R   0.553884 0.568813 0.045754 -0.137209
C77   C     C_R   0.446123 0.431186 0.954214 -0.137207
C78   C     C_R   0.946137 0.068814 0.954179 -0.137200
C79   C     C_R   0.946104 0.103983 0.954124 -0.178963
C80   C     C_R   0.053830 0.931186 0.045903 -0.137172
C81   C     C_R   0.053853 0.068813 0.045835 -0.137171
C82   C     C_R   0.946166 0.931186 0.954101 -0.137169
C83   C     C_R   0.408892 0.250068 0.818036 0.796995
C84   C     C_R   0.591107 0.749932 0.181964 0.796998
C85   C     C_R   0.591108 0.250068 0.181964 0.797016
C86   C     C_R   0.408892 0.749932 0.818036 0.797005
C87   C     C_R   0.908891 0.750068 0.818036 0.797019
C88   C     C_R   0.091108 0.249932 0.181964 0.797025
C89   C     C_R   0.091109 0.750067 0.181964 0.797015
C90   C     C_R   0.053865 0.896017 0.045955 -0.179030
C91   C     C_R   0.908892 0.249932 0.818036 0.797003
C92   C     C_R   0.499999 0.340987 0.000001 0.791591
C93   C     C_R   0.500000 0.659013 1.000000 0.791607
C94   C     C_R   1.000000 0.840986 1.000000 0.791551
C95   C     C_R   1.000000 0.159013 0.000001 0.791573
C96   C     C_R   0.500000 0.159015 0.000000 0.784889
C97   C     C_R   0.500000 0.840985 1.000000 0.784886
C98   C     C_R   0.000000 0.659015 0.000000 0.784899
C99   C     C_R   0.000000 0.340985 1.000000 0.784894
C100  C     C_R   0.488026 0.931225 0.042383 -0.163740
C101  C     C_R   0.053888 0.103982 0.045888 -0.178997
C102  C     C_R   0.511974 0.068775 0.957617 -0.163741
C103  C     C_R   0.511974 0.931225 0.957616 -0.163739
C104  C     C_R   0.488026 0.068775 0.042384 -0.163740
C105  C     C_R   0.988026 0.431225 0.042383 -0.163735
C106  C     C_R   0.011974 0.568775 0.957617 -0.163735
C107  C     C_R   0.011974 0.431225 0.957616 -0.163735
C108  C     C_R   0.988026 0.568775 0.042383 -0.163734
C109  C     C_R   0.488013 0.896057 0.042441 -0.193152
C110  C     C_R   0.511987 0.103943 0.957559 -0.193152
C111  C     C_R   0.511987 0.896058 0.957558 -0.193152
C112  C     C_R   0.499997 0.378113 0.000003 -0.040773
C113  C     C_R   0.946133 0.896017 0.954047 -0.179033
C114  C     C_R   0.488013 0.103942 0.042442 -0.193150
C115  C     C_R   0.988013 0.396057 0.042441 -0.193144
C116  C     C_R   0.011987 0.603943 0.957559 -0.193143
C117  C     C_R   0.011987 0.396058 0.957558 -0.193147
C118  C     C_R   0.988013 0.603942 0.042441 -0.193144
C119  C     C_R   0.500000 0.878134 1.000000 -0.008802
C120  C     C_R   0.500000 0.121866 0.000000 -0.008803
C121  C     C_R   1.000000 0.378134 1.000000 -0.008808
C122  C     C_R   0.000000 0.621866 0.000000 -0.008810
C123  C     C_2   0.730615 0.204169 0.601550 0.379870
C124  C     C_R   0.715881 0.354527 0.102156 -0.111091
C125  C     C_2   0.269445 0.795794 0.398449 0.379877
C126  C     C_2   0.269425 0.204191 0.398446 0.379890
C127  C     C_2   0.730562 0.795801 0.601553 0.379883
C128  C     C_2   0.230628 0.704161 0.601549 0.379880
C129  C     C_2   0.769413 0.295814 0.398449 0.379890
C130  C     C_2   0.769355 0.704151 0.398454 0.379879
C131  C     C_2   0.230638 0.295844 0.601545 0.379875
C132  C     C_2   0.733986 0.370898 0.213586 0.365522
C133  C     C_2   0.266045 0.629110 0.786424 0.365510
C134  C     C_2   0.266071 0.370898 0.786449 0.365450
C135  C     C_R   0.284023 0.645460 0.897803 -0.111183
C136  C     C_2   0.733935 0.629099 0.213549 0.365477
C137  C     C_2   0.233987 0.870904 0.213578 0.365431
C138  C     C_2   0.766033 0.129105 0.786421 0.365447
C139  C     C_2   0.765998 0.870908 0.786414 0.365447
C140  C     C_2   0.234034 0.129082 0.213590 0.365513
C141  C     C_R   0.284018 0.354548 0.897816 -0.111156
C142  C     C_R   0.716001 0.645449 0.102188 -0.111202
C143  C     C_R   0.215805 0.854519 0.102120 -0.110955
C144  C     C_R   0.784072 0.145465 0.897824 -0.111090
C145  C     C_R   0.784205 0.854518 0.897883 -0.110949
C146  C     C_R   0.215828 0.145475 0.102124 -0.111036
C147  C     C_R   0.719145 0.330871 0.060774 -0.177785
C148  C     C_R   0.999997 0.121887 0.000004 -0.040803
C149  C     C_R   0.280749 0.669116 0.939179 -0.178005
C150  C     C_R   0.280736 0.330892 0.939185 -0.178071
C151  C     C_R   0.719280 0.669106 0.060819 -0.178097
C152  C     C_R   0.219069 0.830864 0.060737 -0.177663
C153  C     C_R   0.780801 0.169120 0.939203 -0.177918
C154  C     C_R   0.780945 0.830863 0.939269 -0.177633
C155  C     C_R   0.219076 0.169134 0.060736 -0.177662
C156  C     C_R   0.743835 0.298793 0.085763 0.151053
C157  C     C_R   0.256158 0.701213 0.914222 0.151042
C158  C     C_R   0.256163 0.298791 0.914231 0.151022
C159  C     C_R   0.999999 0.878112 0.000000 -0.040831
C160  C     C_R   0.743839 0.701209 0.085770 0.151030
C161  C     C_R   0.243827 0.798799 0.085749 0.151046
C162  C     C_R   0.756163 0.201208 0.914232 0.151043
C163  C     C_R   0.756174 0.798801 0.914253 0.151053
C164  C     C_R   0.243829 0.201199 0.085748 0.151078
C165  C     C_R   0.765798 0.290651 0.152657 -0.117510
C166  C     C_R   0.234298 0.709374 0.847364 -0.117274
C167  C     C_R   0.234329 0.290628 0.847381 -0.117200
C168  C     C_R   0.765661 0.709374 0.152617 -0.117174
C169  C     C_R   0.265854 0.790671 0.152665 -0.117654
C170  C     C_R   0.500000 0.948789 1.000000 0.156103
C171  C     C_R   0.734254 0.209360 0.847356 -0.117386
C172  C     C_R   0.734128 0.790676 0.847331 -0.117694
C173  C     C_R   0.265870 0.209323 0.152670 -0.117677
C174  C     C_R   0.762377 0.314256 0.193996 -0.228820
C175  C     C_R   0.237728 0.685769 0.806032 -0.228711
C176  C     C_R   0.237767 0.314234 0.806054 -0.228673
C177  C     C_R   0.762226 0.685766 0.193943 -0.228664
C178  C     C_R   0.262433 0.814275 0.194006 -0.228891
C179  C     C_R   0.737680 0.185756 0.806020 -0.228768
C180  C     C_R   0.737543 0.814280 0.805987 -0.228910
C181  C     C_R   0.500000 0.051211 0.000000 0.156104
C182  C     C_R   0.262465 0.185716 0.194016 -0.228916
C183  C     C_R   0.737321 0.346340 0.169102 0.070462
C184  C     C_R   0.262691 0.653666 0.830896 0.070457
C185  C     C_R   0.262710 0.346340 0.830916 0.070454
C186  C     C_R   0.737296 0.653658 0.169084 0.070454
C187  C     C_R   0.237314 0.846346 0.169091 0.070475
C188  C     C_R   0.762688 0.153662 0.830898 0.070464
C189  C     C_R   0.762677 0.846348 0.830905 0.070469
C190  C     C_R   0.237348 0.153645 0.169100 0.070463
C191  C     C_R   0.297980 0.772463 0.039961 -0.249823
C192  C     C_R   0.000000 0.448789 1.000000 0.156098
C193  C     C_R   0.702014 0.227541 0.960028 -0.249819
C194  C     C_R   0.702022 0.772466 0.960044 -0.249827
C195  C     C_R   0.297979 0.227536 0.039958 -0.249832
C196  C     C_R   0.797984 0.272459 0.039968 -0.249824
C197  C     C_R   0.202010 0.727546 0.960021 -0.249816
C198  C     C_R   0.202014 0.272458 0.960028 -0.249810
C199  C     C_R   0.797988 0.727543 0.039975 -0.249814
C200  C     C_R   0.499998 0.551235 0.000003 0.119262
C201  C     C_R   0.499994 0.448764 0.000006 0.119240
C202  C     C_R   0.999995 0.051235 0.000007 0.119217
C203  C     C_R   0.000000 0.551211 0.000000 0.156098
C204  C     C_R   0.999997 0.948764 0.000003 0.119183
C205  C     C_R   0.303184 0.749337 0.999050 -0.061850
C206  C     C_R   0.696810 0.250667 0.000940 -0.061848
C207  C     C_R   0.696817 0.749338 0.000952 -0.061851
C208  C     C_R   0.303184 0.250663 0.999050 -0.061850
C209  C     C_R   0.803187 0.249334 0.999056 -0.061848
C210  C     C_R   0.196806 0.750671 0.000932 -0.061845
C211  C     C_R   0.196808 0.249330 0.000935 -0.061848
C212  C     C_R   0.803194 0.750671 0.999068 -0.061848
C213  C     C_R   0.254419 0.726548 0.958537 -0.005822
C214  C     C_1   0.500000 0.984865 1.000000 -0.059363
C215  C     C_R   0.745574 0.273458 0.041449 -0.005822
C216  C     C_R   0.745580 0.726546 0.041460 -0.005820
C217  C     C_R   0.254422 0.273455 0.958543 -0.005818
C218  C     C_R   0.754423 0.226543 0.958546 -0.005815
C219  C     C_R   0.245568 0.773464 0.041438 -0.005816
C220  C     C_R   0.245568 0.226536 0.041437 -0.005819
C221  C     C_R   0.754433 0.773465 0.958565 -0.005815
C222  C     C_R   0.784203 0.227360 0.637749 0.016064
C223  C     C_R   0.215830 0.772621 0.362250 0.016059
C224  C     C_R   0.215820 0.227370 0.362249 0.016053
H1    H     H_    0.404011 0.617145 0.918240 0.189688
H2    H     H_    0.665093 0.209915 0.928902 0.175456
H3    H     H_    0.702196 0.796473 0.546960 0.081148
H4    H     H_    0.202266 0.703488 0.546956 0.081166
H5    H     H_    0.797778 0.296487 0.453041 0.081158
H6    H     H_    0.797716 0.703477 0.453047 0.081163
H7    H     H_    0.202277 0.296518 0.546952 0.081163
H8    H     H_    0.749946 0.363870 0.264766 0.127158
H9    H     H_    0.250172 0.636153 0.735275 0.127202
H10   H     H_    0.250237 0.363850 0.735314 0.127186
H11   H     H_    0.749764 0.636146 0.264682 0.127184
H12   H     H_    0.249988 0.863884 0.264774 0.127121
H13   H     H_    0.665102 0.790093 0.928920 0.175450
H14   H     H_    0.750119 0.136141 0.735256 0.127191
H15   H     H_    0.749975 0.863891 0.735210 0.127132
H16   H     H_    0.250074 0.136093 0.264802 0.127124
H17   H     H_    0.334900 0.209908 0.071082 0.175451
H18   H     H_    0.834906 0.290085 0.071095 0.175455
H19   H     H_    0.165089 0.709918 0.928896 0.175458
H20   H     H_    0.165095 0.290087 0.928906 0.175459
H21   H     H_    0.834907 0.709914 0.071096 0.175459
H22   H     H_    0.809029 0.211337 0.736157 0.186337
H23   H     H_    0.191023 0.788630 0.263842 0.186410
H24   H     H_    0.191005 0.211358 0.263840 0.186446
H25   H     H_    0.595957 0.382855 0.081839 0.189742
H26   H     H_    0.808984 0.788635 0.736159 0.186430
H27   H     H_    0.309039 0.711331 0.736156 0.186304
H28   H     H_    0.690995 0.288648 0.263842 0.186374
H29   H     H_    0.690945 0.711320 0.263846 0.186280
H30   H     H_    0.309048 0.288676 0.736153 0.186281
H31   H     H_    0.924891 0.287974 0.733671 0.166578
H32   H     H_    0.075070 0.712054 0.266330 0.166579
H33   H     H_    0.075085 0.287955 0.266332 0.166575
H34   H     H_    0.924925 0.712051 0.733669 0.166577
H35   H     H_    0.424885 0.787979 0.733671 0.166569
H36   H     H_    0.595990 0.617143 0.081759 0.189663
H37   H     H_    0.575090 0.212039 0.266330 0.166569
H38   H     H_    0.575128 0.787989 0.266326 0.166570
H39   H     H_    0.424877 0.212014 0.733674 0.166573
H40   H     H_    0.862480 0.287377 0.610673 0.144714
H41   H     H_    0.137486 0.712649 0.389328 0.144715
H42   H     H_    0.137502 0.287358 0.389330 0.144711
H43   H     H_    0.862509 0.712648 0.610671 0.144713
H44   H     H_    0.362476 0.787381 0.610674 0.144705
H45   H     H_    0.637503 0.212637 0.389328 0.144704
H46   H     H_    0.637537 0.787392 0.389324 0.144705
H47   H     H_    0.404032 0.382855 0.918174 0.189689
H48   H     H_    0.362468 0.212611 0.610676 0.144707
H49   H     H_    0.404202 0.555354 0.918629 0.172479
H50   H     H_    0.595765 0.444646 0.081452 0.172509
H51   H     H_    0.595795 0.555353 0.081374 0.172484
H52   H     H_    0.404223 0.444646 0.918562 0.172503
H53   H     H_    0.904246 0.055354 0.918500 0.172512
H54   H     H_    0.095698 0.944646 0.081642 0.172561
H55   H     H_    0.095743 0.055353 0.081515 0.172532
H56   H     H_    0.904296 0.944646 0.918364 0.172562
H57   H     H_    0.478711 0.944704 0.075345 0.139883
H58   H     H_    0.904057 0.117145 0.918111 0.189748
H59   H     H_    0.521289 0.055295 0.924655 0.139883
H60   H     H_    0.521289 0.944705 0.924655 0.139883
H61   H     H_    0.478710 0.055295 0.075345 0.139882
H62   H     H_    0.978710 0.444705 0.075344 0.139888
H63   H     H_    0.021290 0.555295 0.924656 0.139890
H64   H     H_    0.021290 0.444705 0.924655 0.139890
H65   H     H_    0.978710 0.555295 0.075345 0.139890
H66   H     H_    0.478621 0.882946 0.075656 0.163785
H67   H     H_    0.521379 0.117054 0.924344 0.163785
H68   H     H_    0.521379 0.882946 0.924343 0.163784
H69   H     H_    0.095890 0.882854 0.082027 0.189818
H70   H     H_    0.478621 0.117054 0.075657 0.163784
H71   H     H_    0.978621 0.382946 0.075656 0.163789
H72   H     H_    0.021380 0.617054 0.924344 0.163790
H73   H     H_    0.021379 0.382946 0.924344 0.163789
H74   H     H_    0.978621 0.617054 0.075656 0.163790
H75   H     H_    0.696431 0.379116 0.081753 0.161478
H76   H     H_    0.303398 0.620856 0.918182 0.161526
H77   H     H_    0.303381 0.379155 0.918193 0.161571
H78   H     H_    0.696649 0.620840 0.081813 0.161559
H79   H     H_    0.196301 0.879097 0.081699 0.161501
H80   H     H_    0.095934 0.117144 0.081903 0.189791
H81   H     H_    0.803486 0.120869 0.918215 0.161541
H82   H     H_    0.803719 0.879095 0.918306 0.161489
H83   H     H_    0.196330 0.120896 0.081704 0.161461
H84   H     H_    0.701979 0.337411 0.009141 0.130817
H85   H     H_    0.297831 0.662560 0.990783 0.130891
H86   H     H_    0.297799 0.337449 0.990784 0.130912
H87   H     H_    0.702227 0.662548 0.009224 0.130920
H88   H     H_    0.201851 0.837393 0.009086 0.130775
H89   H     H_    0.797923 0.162571 0.990821 0.130860
H90   H     H_    0.798176 0.837390 0.990924 0.130764
H91   H     H_    0.904109 0.882854 0.917973 0.189826
H92   H     H_    0.201854 0.162605 0.009083 0.130773
H93   H     H_    0.784889 0.265922 0.172458 0.129952
H94   H     H_    0.215284 0.734118 0.827587 0.129877
H95   H     H_    0.215331 0.265881 0.827607 0.129862
H96   H     H_    0.784649 0.734122 0.172389 0.129852
H97   H     H_    0.284996 0.765952 0.172485 0.130002
H98   H     H_    0.715202 0.234097 0.827568 0.129915
H99   H     H_    0.714973 0.765960 0.827508 0.130013
H100  H     H_    0.285014 0.234041 0.172491 0.130005
H101  H     H_    0.779252 0.307446 0.245420 0.167850
H102  H     H_    0.334902 0.790089 0.071088 0.175452
H103  H     H_    0.220935 0.692594 0.754637 0.167759
H104  H     H_    0.220995 0.307407 0.754666 0.167732
H105  H     H_    0.778989 0.692594 0.245329 0.167720
H106  H     H_    0.279358 0.807475 0.245448 0.167916
H107  H     H_    0.720849 0.192574 0.754612 0.167797
H108  H     H_    0.720603 0.807483 0.754540 0.167916
H109  H     H_    0.279400 0.192513 0.245462 0.167902
H110  H     H_    0.702252 0.203496 0.546957 0.081158
H111  H     H_    0.297809 0.796467 0.453041 0.081150
H112  H     H_    0.297792 0.203518 0.453038 0.081145
O1    O     O_3   0.500000 0.249970 0.000000 -0.472645
O2    O     O_R   0.096160 0.269650 0.960760 -0.647586
O3    O     O_R   0.096160 0.730350 0.960760 -0.647590
O4    O     O_R   0.903840 0.269650 0.039240 -0.647586
O5    O     O_R   0.394820 0.269600 0.850350 -0.645820
O6    O     O_R   0.605180 0.730400 0.149650 -0.645819
O7    O     O_R   0.605180 0.269600 0.149650 -0.645780
O8    O     O_R   0.394820 0.730400 0.850350 -0.645804
O9    O     O_R   0.894820 0.769600 0.850350 -0.645773
O10   O     O_R   0.105180 0.230400 0.149650 -0.645764
O11   O     O_R   0.105180 0.769600 0.149650 -0.645777
O12   O     O_3   0.500000 0.750030 0.000000 -0.472643
O13   O     O_R   0.894820 0.230400 0.850350 -0.645800
O14   O     O_R   0.450030 0.324790 0.960750 -0.641935
O15   O     O_R   0.549970 0.675210 0.039250 -0.641931
O16   O     O_R   0.549970 0.324790 0.039250 -0.641933
O17   O     O_R   0.450030 0.675210 0.960750 -0.641929
O18   O     O_R   0.950030 0.824790 0.960750 -0.641943
O19   O     O_R   0.049970 0.175210 0.039250 -0.641933
O20   O     O_R   0.049970 0.824790 0.039250 -0.641943
O21   O     O_R   0.950030 0.175210 0.960750 -0.641934
O22   O     O_R   0.489260 0.175140 0.039240 -0.645289
O23   O     O_3   0.000000 0.749970 0.000000 -0.472654
O24   O     O_R   0.510740 0.824860 0.960760 -0.645291
O25   O     O_R   0.510740 0.175140 0.960760 -0.645288
O26   O     O_R   0.489260 0.824860 0.039240 -0.645290
O27   O     O_R   0.989260 0.675140 0.039240 -0.645284
O28   O     O_R   0.010740 0.324860 0.960760 -0.645286
O29   O     O_R   0.010740 0.675140 0.960760 -0.645282
O30   O     O_R   0.989260 0.324860 0.039240 -0.645285
O31   O     O_R   0.455530 0.230360 0.850350 -0.642856
O32   O     O_R   0.544470 0.769640 0.149650 -0.642855
O33   O     O_R   0.544470 0.230360 0.149650 -0.642860
O34   O     O_3   0.000000 0.250030 0.000000 -0.472654
O35   O     O_R   0.455530 0.769640 0.850350 -0.642857
O36   O     O_R   0.955530 0.730360 0.850350 -0.642860
O37   O     O_R   0.044470 0.269640 0.149650 -0.642860
O38   O     O_R   0.044470 0.730360 0.149650 -0.642859
O39   O     O_R   0.955530 0.269640 0.850350 -0.642857
O40   O     O_R   0.364600 0.269590 0.960770 -0.634053
O41   O     O_R   0.635400 0.730410 0.039230 -0.634056
O42   O     O_R   0.635400 0.269590 0.039230 -0.634045
O43   O     O_R   0.364600 0.730410 0.960770 -0.634053
O44   O     O_R   0.864600 0.769590 0.960770 -0.634033
O45   O     O_R   0.403840 0.230350 0.039240 -0.647584
O46   O     O_R   0.135400 0.230410 0.039230 -0.634039
O47   O     O_R   0.135400 0.769590 0.039230 -0.634035
O48   O     O_R   0.864600 0.230410 0.960770 -0.634045
O49   O     O_2   0.717358 0.185431 0.632310 -0.608754
O50   O     O_2   0.282722 0.814518 0.367687 -0.608756
O51   O     O_2   0.282692 0.185461 0.367683 -0.608751
O52   O     O_2   0.717290 0.814527 0.632315 -0.608758
O53   O     O_2   0.217376 0.685420 0.632309 -0.608742
O54   O     O_2   0.782678 0.314546 0.367687 -0.608749
O55   O     O_2   0.782602 0.685405 0.367695 -0.608714
O56   O     O_R   0.596160 0.769650 0.960760 -0.647582
O57   O     O_2   0.217388 0.314588 0.632304 -0.608717
O58   O     O_2   0.713583 0.399234 0.193859 -0.584271
O59   O     O_2   0.286370 0.600759 0.806125 -0.584213
O60   O     O_2   0.286357 0.399256 0.806140 -0.584213
O61   O     O_2   0.713655 0.600740 0.193858 -0.584197
O62   O     O_2   0.213547 0.899233 0.193838 -0.584354
O63   O     O_2   0.786396 0.100762 0.806134 -0.584279
O64   O     O_2   0.786458 0.899232 0.806160 -0.584357
O65   O     O_2   0.213560 0.100760 0.193835 -0.584336
O66   O     O_R   0.596160 0.230350 0.960760 -0.647585
O67   O     O_R   0.403840 0.769650 0.039240 -0.647581
O68   O     O_R   0.903840 0.730350 0.039240 -0.647590
Zn1   Zn    Zn3+2 0.515340 0.221940 0.943940 0.967890
Zn2   Zn    Zn3+2 0.571400 0.722000 0.056060 0.978221
Zn3   Zn    Zn3+2 0.571400 0.278000 0.056060 0.978257
Zn4   Zn    Zn3+2 0.428600 0.722000 0.943940 0.978237
Zn5   Zn    Zn3+2 0.928600 0.778000 0.943940 0.978254
Zn6   Zn    Zn3+2 0.071400 0.222000 0.056060 0.978278
Zn7   Zn    Zn3+2 0.071400 0.778000 0.056060 0.978245
Zn8   Zn    Zn3+2 0.928600 0.222000 0.943940 0.978230
Zn9   Zn    Zn3+2 0.484660 0.778060 0.056060 0.967890
Zn10  Zn    Zn3+2 0.484660 0.221940 0.056060 0.967897
Zn11  Zn    Zn3+2 0.515340 0.778060 0.943940 0.967894
Zn12  Zn    Zn3+2 0.015340 0.721940 0.943940 0.967901
Zn13  Zn    Zn3+2 0.984660 0.278060 0.056060 0.967901
Zn14  Zn    Zn3+2 0.984660 0.721940 0.056060 0.967901
Zn15  Zn    Zn3+2 0.015340 0.278060 0.943940 0.967896
Zn16  Zn    Zn3+2 0.428600 0.278000 0.943940 0.978211

loop_
_geom_bond_atom_site_label_1
_geom_bond_atom_site_label_2
_ccdc_geom_bond_type
C145  H82   S    
C101  C148  A    
C94   C159  S    
C131  O57   D    
C63   C202  S    
C55   C59   T    
C167  H95   S    
C168  H96   S    
C35   C74   A    
C65   C208  S    
C141  H77   S    
C211  C220  A    
C50   C59   S    
C57   C76   A    
C46   C112  A    
C91   O39   A    
O23   Zn12  S    
O2    Zn15  S    
C136  H11   S    
C117  H73   S    
C140  H16   S    
O41   Zn2   S    
C127  O52   D    
C44   C53   S    
C116  H72   S    
C162  C171  A    
C123  H110  S    
C166  H94   S    
C107  C192  A    
C103  C170  A    
C209  C218  A    
C208  C217  A    
O33   Zn10  S    
C4    C12   A    
C10   C224  A    
C99   C121  S    
C104  C181  A    
C64   C204  S    
O18   Zn5   S    
C100  C109  A    
O7    Zn3   S    
C45   C224  A    
C5    C49   A    
C125  O50   D    
O28   Zn15  S    
C158  C167  A    
C109  H66   S    
C163  C221  S    
C124  C147  A    
C11   C20   A    
C23   C84   S    
C95   C148  S    
C100  C170  A    
C106  H63   S    
C72   O3    A    
C43   C222  A    
O32   Zn9   S    
O47   Zn7   S    
C196  C215  A    
C179  C188  A    
O21   Zn8   S    
O16   Zn3   S    
C177  C186  A    
C30   H35   S    
C126  H112  S    
O12   Zn9   S    
C142  C151  A    
C96   O25   A    
C62   C201  S    
O11   Zn7   S    
C133  C184  S    
O9    Zn5   S    
C182  H109  S    
C164  C173  A    
C44   C223  A    
C163  C172  A    
C79   C148  A    
C124  H75   S    
C52   C58   T    
O23   Zn7   S    
C74   C200  A    
C173  C182  A    
C2    C214  T    
C71   C211  S    
C161  C219  S    
O12   Zn2   S    
C36   C44   A    
C37   C45   A    
O14   Zn16  S    
C144  H81   S    
C68   C77   A    
C21   C86   S    
O23   Zn14  S    
C136  C186  S    
C35   H1    S    
C18   C89   S    
C102  H59   S    
C82   H56   S    
C81   C202  A    
O25   Zn1   S    
C8    C17   A    
C31   H37   S    
O42   Zn3   S    
C66   C207  S    
C175  H103  S    
O34   Zn15  S    
C207  C216  A    
C37   H42   S    
C160  C168  A    
C42   H48   S    
C177  H105  S    
C3    C11   A    
C70   O68   A    
C1    C93   S    
C25   C83   S    
C182  C190  A    
C98   O27   A    
C180  H108  S    
C110  H67   S    
C151  H87   S    
C115  C121  A    
C91   O13   A    
C70   C212  S    
C139  O64   D    
C17   C91   S    
C110  C120  A    
C6    C130  S    
C67   O66   A    
C66   O41   A    
C81   C101  A    
C194  C207  A    
C87   O36   A    
C12   H27   S    
C171  H98   S    
C33   C42   A    
C73   C209  S    
C83   O5    A    
C88   O10   A    
C180  C189  A    
C132  C183  S    
C83   O31   A    
C43   C52   S    
C40   C49   A    
C67   O42   A    
C111  C119  A    
C118  C122  A    
C22   C85   S    
C90   C159  A    
C172  H99   S    
C106  C203  A    
O56   Zn11  S    
O23   Zn5   S    
C195  C208  A    
C29   C38   A    
O12   Zn4   S    
C32   C41   A    
C27   H32   S    
C152  C161  A    
C161  C169  A    
C85   O7    A    
C150  H86   S    
C128  O53   D    
C171  C179  A    
C126  O51   D    
O34   Zn8   S    
C46   C75   A    
O30   Zn13  S    
C141  C150  A    
C155  H92   S    
C178  H106  S    
C97   O24   A    
C118  H74   S    
C115  H71   S    
C129  O54   D    
C113  H91   S    
O39   Zn15  S    
O34   Zn13  S    
O37   Zn13  S    
C165  C174  A    
C147  H84   S    
C113  C159  A    
C210  C219  A    
C76   H51   S    
C2    C181  S    
C97   C119  S    
C138  C188  S    
C38   H43   S    
C198  C211  A    
C1    C57   A    
O27   Zn14  S    
C128  H4    S    
C134  C185  S    
C134  H10   S    
C6    C50   A    
C19   C28   A    
C84   O32   A    
C153  H89   S    
C176  H104  S    
C145  C154  A    
C84   O6    A    
C138  O63   D    
C134  O60   D    
C95   O19   A    
C81   H55   S    
C69   O43   A    
O24   Zn11  S    
O67   Zn9   S    
C103  H60   S    
C8    C222  A    
C15   H29   S    
C53   C56   T    
C131  H7    S    
C98   C122  S    
O43   Zn4   S    
O1    Zn10  S    
C105  C115  A    
O13   Zn8   S    
C34   C43   A    
C82   C113  A    
C77   C201  A    
C73   O4    A    
C69   C205  S    
C14   C22   A    
C123  O49   D    
C28   C37   A    
O1    Zn1   S    
C3    C47   A    
O17   Zn4   S    
C30   C39   A    
C86   O8    A    
C61   C62   T    
C8    H22   S    
C63   C64   T    
C9    C18   A    
C141  C185  A    
C77   H52   S    
C94   O18   A    
C175  C184  A    
C51   C60   S    
O29   Zn12  S    
O34   Zn6   S    
C25   C33   A    
C65   O45   A    
C206  C215  A    
C127  H3    S    
C162  C218  S    
C24   C203  S    
O8    Zn4   S    
C36   H41   S    
C92   O14   A    
C75   C201  A    
C176  C185  A    
C166  C175  A    
C13   C192  S    
C116  C122  A    
C133  O59   D    
C108  C203  A    
C4    C48   A    
C69   O67   A    
C14   H28   S    
C130  H6    S    
C168  C177  A    
C160  C216  S    
O19   Zn6   S    
C31   C40   A    
C103  C111  A    
C199  C212  A    
C191  C205  A    
C101  H80   S    
C197  C210  A    
C16   H30   S    
C146  C155  A    
C140  O65   D    
C7    C131  S    
C172  C180  A    
C5    C129  S    
C195  H17   S    
C205  C213  A    
C142  H78   S    
O44   Zn5   S    
C80   H54   S    
O31   Zn1   S    
C125  H111  S    
C125  C223  S    
C90   H69   S    
C11   H26   S    
C4    C128  S    
C70   O44   A    
C89   O38   A    
C68   H47   S    
C19   C88   S    
O45   Zn10  S    
C92   C112  S    
C174  H101  S    
C88   O37   A    
O1    Zn3   S    
C111  H68   S    
C196  H18   S    
C46   H25   S    
C96   O22   A    
C10   C19   A    
C156  C215  S    
C133  H9    S    
C137  H12   S    
C147  C156  A    
C5    C14   A    
C67   C206  S    
C194  C221  A    
C178  C187  A    
O46   Zn6   S    
O20   Zn7   S    
C7    C16   A    
C114  H70   S    
O12   Zn11  S    
O1    Zn16  S    
C102  C110  A    
C198  C217  A    
C97   O26   A    
C41   C50   A    
C92   O16   A    
C197  C213  A    
C109  C119  A    
O38   Zn14  S    
C150  C158  A    
C145  C189  A    
C39   H44   S    
C102  C181  A    
C78   H53   S    
C139  C189  S    
C174  C183  A    
C170  C214  S    
C27   C36   A    
O26   Zn9   S    
C21   C30   A    
C33   H39   S    
C74   H49   S    
C29   H34   S    
C191  H102  S    
C34   H40   S    
C153  C162  A    
C26   H31   S    
C71   O2    A    
O68   Zn14  S    
C23   C32   A    
C87   O9    A    
C7    C51   A    
C93   O15   A    
C98   O29   A    
C154  H90   S    
C80   C204  A    
C156  C165  A    
C158  C217  S    
C197  H19   S    
C126  C224  S    
C9    H23   S    
O48   Zn8   S    
C106  C116  A    
O5    Zn16  S    
C99   O30   A    
C149  C157  A    
C107  C117  A    
C114  C120  A    
O4    Zn13  S    
C86   O35   A    
C137  C187  S    
C165  H93   S    
C20   C87   S    
C136  O61   D    
C16   C25   A    
C93   O17   A    
C140  C190  S    
C94   O20   A    
O22   Zn10  S    
C54   C60   T    
C40   H45   S    
C79   H58   S    
C149  H85   S    
C20   C29   A    
C66   O56   A    
C17   C26   A    
C193  H2    S    
O36   Zn12  S    
O6    Zn2   S    
C68   C112  A    
C3    C127  S    
C129  H5    S    
C152  H88   S    
C144  C153  A    
C117  C121  A    
C6    C15   A    
C26   C34   A    
C72   C210  S    
O3    Zn12  S    
O10   Zn6   S    
C73   O48   A    
C143  H79   S    
C42   C51   A    
C164  C220  S    
C15   C23   A    
C105  C192  A    
C135  C184  A    
C132  H8    S    
C61   C200  S    
C195  C220  A    
C65   O40   A    
C179  H107  S    
C212  C221  A    
C193  C218  A    
C142  C186  A    
C123  C222  S    
C22   C31   A    
C139  H15   S    
C199  C216  A    
C108  C118  A    
C154  C163  A    
C124  C183  A    
C76   C200  A    
C191  C219  A    
C199  H21   S    
C78   C79   A    
C198  H20   S    
C135  C149  A    
C12   C21   A    
C49   C58   S    
C95   O21   A    
C13   C24   T    
O35   Zn11  S    
C137  O62   D    
O66   Zn1   S    
C108  H65   S    
C9    C223  A    
C130  O55   D    
C41   H46   S    
O15   Zn2   S    
C32   H38   S    
C99   O28   A    
C38   C47   A    
C104  C114  A    
C45   C54   S    
C75   H50   S    
C10   H24   S    
C196  C209  A    
C132  O58   D    
C169  C178  A    
C1    C35   A    
C47   C55   S    
C144  C188  A    
C48   C56   S    
C143  C152  A    
C169  H97   S    
C193  C206  A    
C100  H57   S    
C143  C187  A    
C96   C120  S    
C18   C27   A    
C78   C202  A    
C39   C48   A    
C157  C166  A    
C146  H83   S    
C71   O46   A    
C155  C164  A    
C89   O11   A    
C104  H61   S    
C57   H36   S    
C157  C213  S    
C105  H62   S    
C151  C160  A    
C173  H100  S    
C107  H64   S    
C135  H76   S    
C82   C204  A    
C85   O33   A    
C138  H14   S    
C194  H13   S    
C80   C90   A    
O40   Zn16  S    
C72   O47   A    
C28   H33   S    
C146  C190  A    
C167  C176  A    
