data_mof_unit_38700.cif
_audit_creation_date              2012-12-10T18:04:01-0500
_audit_creation_method            fapswitch 2.2
_symmetry_space_group_name_H-M    P1
_symmetry_Int_Tables_number       1
_space_group_crystal_system       triclinic
_cell_length_a                    10.832134
_cell_length_b                    9.519311
_cell_length_c                    10.805013
_cell_angle_alpha                 89.891088
_cell_angle_beta                  90.202159
_cell_angle_gamma                 90.038411
_cell_volume                      1114.14380461

loop_
_atom_site_label
_atom_site_type_symbol
_atom_type_description
_atom_site_fract_x
_atom_site_fract_y
_atom_site_fract_z
_atom_type_partial_charge
C1    C     C_R   0.262064 0.499932 0.499906 0.775830
C2    C     C_R   0.737935 0.499980 0.500097 0.820371
C3    C     C_R   0.416682 0.074507 0.430151 0.008469
C4    C     C_R   0.583835 0.074234 0.569087 0.023179
C5    C     C_R   0.416784 0.925671 0.430018 -0.012880
C6    C     C_R   0.583549 0.925473 0.569504 -0.010370
C7    C     C_R   0.504643 0.500133 0.262454 0.873339
C8    C     C_R   0.504979 0.499965 0.737629 0.875064
C9    C     C_R   0.468507 0.613634 0.063151 0.096268
C10   C     C_R   0.468448 0.613418 0.936337 0.087804
C11   C     C_R   0.518902 0.502071 0.129533 -0.255887
C12   C     C_R   0.519023 0.501818 0.870800 -0.252615
C13   C     C_R   0.589825 0.400581 0.065962 0.322193
C14   C     C_R   0.590179 0.400767 0.935530 0.318496
C15   C     C_3   0.342772 0.677372 0.928855 -0.421010
C16   C     C_3   0.342856 0.677646 0.069505 -0.439963
C17   C     C_R   0.063754 0.372271 0.499800 -0.173892
C18   C     C_R   0.936039 0.372298 0.499943 -0.123412
C19   C     C_R   0.871768 0.499981 0.500110 -0.012923
C20   C     C_R   0.128212 0.499923 0.499892 -0.022621
C21   C     C_R   0.936219 0.627627 0.500201 -0.172090
C22   C     C_R   0.063932 0.627601 0.500058 -0.178547
Cu1   Cu    Cu3+1 0.500000 0.640660 0.500000 0.960314
Cu2   Cu    Cu3+1 0.500000 0.359340 0.500000 1.005498
H1    H     H_    0.273079 0.605107 0.887882 0.193386
H2    H     H_    0.345073 0.785020 0.109743 0.206508
H3    H     H_    0.350028 0.130631 0.374074 0.121702
H4    H     H_    0.651542 0.130013 0.623743 0.173263
H5    H     H_    0.350252 0.869675 0.373786 0.117015
H6    H     H_    0.650454 0.869367 0.625296 0.133860
N1    N     N_R   0.500000 0.852070 0.500000 -0.166494
N2    N     N_R   0.500000 0.147940 0.500000 -0.164160
O1    O     O_R   0.319640 0.618740 0.499990 -0.597142
O2    O     O_R   0.680360 0.618740 0.500010 -0.599216
O3    O     O_R   0.319620 0.381170 0.499990 -0.598862
O4    O     O_R   0.680380 0.381170 0.500010 -0.569263
O5    O     O_R   0.499990 0.618810 0.319660 -0.580053
O6    O     O_R   0.500010 0.618810 0.680340 -0.584910
O7    O     O_R   0.499960 0.381240 0.319650 -0.541227
O8    O     O_R   0.500040 0.381240 0.680350 -0.544152
Cl1   Cl    Cl    0.678653 0.274304 0.147180 -0.534536
Cl2   Cl    Cl    0.680956 0.276216 0.855971 -0.582998
H7    H     H_    0.344918 0.784600 0.887987 0.213184
H8    H     H_    0.273204 0.605556 0.110539 0.192140
H9    H     H_    0.111719 0.272454 0.499627 0.151197
H10   H     H_    0.887929 0.272493 0.499903 0.162080
H11   H     H_    0.888251 0.727444 0.500374 0.155997
H12   H     H_    0.112033 0.727409 0.500096 0.152068

loop_
_geom_bond_atom_site_label_1
_geom_bond_atom_site_label_2
_ccdc_geom_bond_type
Cu1   O1    S    
C22   H12   S    
Cu1   Cu2   S    
Cu2   N2    S    
Cu1   O5    S    
Cu1   O6    S    
C11   C13   A    
C9    C10   A    
C16   H8    S    
C14   Cl2   S    
C8    C12   S    
Cu1   O2    S    
C2    O2    A    
C3    H3    S    
C6    N1    A    
C7    O5    A    
C15   H7    S    
Cu2   O4    S    
C13   C14   A    
C7    C11   S    
C9    C11   A    
C4    N2    A    
C10   C12   A    
C18   H10   S    
C13   Cl1   S    
C19   C21   A    
C9    C16   S    
C20   C22   A    
C17   C18   A    
C5    H5    S    
C10   C15   S    
C8    O6    A    
C16   H2    S    
C3    N2    A    
C21   H11   S    
C15   H1    S    
Cu2   O3    S    
C1    O1    A    
C15   C16   S    
C12   C14   A    
Cu2   O7    S    
C1    O3    A    
C4    C6    A    
C18   C19   A    
C4    H4    S    
C2    O4    A    
C7    O7    A    
Cu2   O8    S    
C1    C20   S    
C5    N1    A    
C8    O8    A    
C6    H6    S    
C2    C19   S    
C21   C22   A    
C17   C20   A    
C17   H9    S    
C3    C5    A    
Cu1   N1    S    
