data_mof_unit_63221.cif
_audit_creation_date              2013-03-05T16:01:40-0500
_audit_creation_method            fapswitch 2.2
_symmetry_space_group_name_H-M    P1
_symmetry_Int_Tables_number       1
_space_group_crystal_system       triclinic
_cell_length_a                    18.693008
_cell_length_b                    18.576127
_cell_length_c                    18.664851
_cell_angle_alpha                 109.217013
_cell_angle_beta                  109.813997
_cell_angle_gamma                 109.326293
_cell_volume                      4992.62174447

loop_
_atom_site_label
_atom_site_type_symbol
_atom_site_description
_atom_site_fract_x
_atom_site_fract_y
_atom_site_fract_z
_atom_type_partial_charge
O1    O     O_R   0.591300 0.538410 0.447360 -0.594291
O2    O     O_R   0.591030 0.643900 0.552660 -0.564728
C1    C     C_R   0.619676 0.620278 0.499820 0.767144
O3    O     O_R   0.408770 0.447260 0.356000 -0.583144
O4    O     O_R   0.408500 0.552750 0.461290 -0.585563
C2    C     C_R   0.380115 0.500165 0.379999 0.801219
Cu1   Cu    Cu3+1 0.500160 0.437540 0.437660 0.959471
Cu2   Cu    Cu3+1 0.499840 0.562460 0.562340 1.017671
O5    O     O_R   0.408970 0.356100 0.447340 -0.590560
O6    O     O_R   0.408700 0.461590 0.552640 -0.593281
O7    O     O_R   0.591500 0.447250 0.538710 -0.597678
O8    O     O_R   0.591230 0.552740 0.644000 -0.538557
C3    C     C_R   0.378022 0.379849 0.497842 0.760059
C4    C     C_R   0.619781 0.499428 0.620322 0.765582
C5    C     C_3   0.257131 0.542997 0.328699 -0.163053
C6    C     C_3   0.175757 0.459763 0.246802 0.378871
H1    H     H_    0.262490 0.577884 0.392965 0.198282
C7    C     C_3   0.188933 0.498779 0.189063 -0.081318
C8    C     C_3   0.271472 0.582639 0.270130 -0.125234
C9    C     C_3   0.327309 0.539870 0.254695 -0.151092
C10   C     C_3   0.243827 0.455998 0.172855 -0.210489
C11   C     C_3   0.229443 0.415734 0.231116 -0.212053
C12   C     C_3   0.311621 0.499916 0.311822 -0.072489
H2    H     H_    0.287884 0.650896 0.284919 0.208405
H3    H     H_    0.237450 0.420679 0.108140 0.144978
H4    H     H_    0.212427 0.347432 0.216615 0.169990
C13   C     C_3   0.773364 0.683213 0.531227 -0.389482
H5    H     H_    0.760204 0.617202 0.487210 0.191150
H6    H     H_    0.796499 0.691711 0.598295 0.193000
C14   C     C_3   0.845647 0.754452 0.531770 -0.324272
H7    H     H_    0.902925 0.797900 0.599673 0.191624
H8    H     H_    0.867710 0.722481 0.489065 0.240246
H9    H     H_    0.641196 0.608779 0.359535 0.193255
H10   H     H_    0.749381 0.712015 0.359368 0.199924
C15   C     C_3   0.657514 0.675468 0.405662 -0.390567
C16   C     C_3   0.710663 0.783309 0.561599 -0.327027
C17   C     C_3   0.688682 0.689304 0.499816 0.123198
H11   H     H_    0.650600 0.789305 0.540973 0.182364
H12   H     H_    0.734687 0.795736 0.630132 0.221412
C18   C     C_3   0.810929 0.809110 0.498413 0.087289
C19   C     C_3   0.729813 0.745086 0.404521 -0.353334
C20   C     C_3   0.781474 0.853418 0.559508 -0.353455
H13   H     H_    0.838582 0.900485 0.627137 0.185701
H14   H     H_    0.754590 0.891459 0.535820 0.233043
H15   H     H_    0.596870 0.680175 0.381962 0.153815
H16   H     H_    0.702726 0.781733 0.378317 0.191645
C21   C     C_3   0.704669 0.422455 0.650491 -0.416918
H17   H     H_    0.726643 0.427939 0.603100 0.185474
H18   H     H_    0.642330 0.358774 0.613838 0.191244
C22   C     C_3   0.774551 0.421969 0.723620 -0.400288
H19   H     H_    0.744602 0.360052 0.724973 0.187393
H20   H     H_    0.827962 0.423262 0.709229 0.160568
H21   H     H_    0.797106 0.589252 0.686629 0.071539
H22   H     H_    0.903226 0.591604 0.791756 0.159626
C23   C     C_3   0.778113 0.587698 0.736909 0.202040
C24   C     C_3   0.661924 0.489700 0.757274 -0.351684
C25   C     C_3   0.689508 0.500451 0.690094 0.035635
H23   H     H_    0.643525 0.539061 0.784046 0.221134
H24   H     H_    0.602474 0.424171 0.723779 0.142555
C26   C     C_3   0.812321 0.502364 0.813484 0.098589
C27   C     C_3   0.850632 0.587546 0.808312 -0.392226
C28   C     C_3   0.736841 0.497236 0.833004 -0.362476
H25   H     H_    0.710120 0.439226 0.841199 0.182279
C29   C     C_3   0.255590 0.223463 0.407772 -0.392738
H26   H     H_    0.299887 0.199257 0.396083 0.164529
H27   H     H_    0.227178 0.236051 0.353426 0.199131
C30   C     C_3   0.183251 0.151792 0.407409 0.197704
H28   H     H_    0.196833 0.096261 0.398269 0.077279
H29   H     H_    0.400292 0.272884 0.562011 0.166121
H30   H     H_    0.294326 0.162613 0.557281 0.184224
C31   C     C_3   0.352432 0.292582 0.570942 -0.411749
C32   C     C_3   0.244062 0.339862 0.512721 -0.342226
C33   C     C_3   0.308827 0.310444 0.497165 0.090017
H31   H     H_    0.279988 0.403916 0.574439 0.183608
H32   H     H_    0.209120 0.349092 0.457923 0.198076
C34   C     C_3   0.188316 0.188617 0.498494 0.036096
C35   C     C_3   0.282102 0.219061 0.570079 -0.413180
C36   C     C_3   0.176987 0.270833 0.519378 -0.353929
H33   H     H_    0.109477 0.253723 0.474983 0.225497
H34   H     H_    0.187306 0.299799 0.587036 0.142750
H35   H     H_    0.389405 0.353553 0.635871 0.176209
H36   H     H_    0.288194 0.243763 0.636092 0.189658
O9    O     O_R   0.948230 0.538430 0.092080 -0.582011
O10   O     O_R   0.053760 0.643910 0.092060 -0.558590
C37   C     C_R   0.003067 0.620194 0.122727 0.860201
O11   O     O_R   0.039800 0.447260 0.092470 -0.528854
O12   O     O_R   0.145330 0.552750 0.092450 -0.574728
C38   C     C_R   0.121086 0.499206 0.120606 0.861536
Cu3   Cu    Cu3+1 0.938720 0.437560 0.001120 1.040349
Cu4   Cu    Cu3+1 0.063680 0.562470 0.001100 1.007284
O13   O     O_R   0.948640 0.356110 0.910160 -0.584572
O14   O     O_R   0.054170 0.461590 0.910140 -0.600536
O15   O     O_R   0.857070 0.447280 0.909760 -0.596085
O16   O     O_R   0.962600 0.552760 0.909740 -0.595773
C39   C     C_R   0.001235 0.379878 0.881113 0.746991
C40   C     C_R   0.881094 0.501861 0.882470 0.747879
O17   O     O_R   0.053170 0.908900 0.462020 -0.574047
O18   O     O_R   0.947410 0.908840 0.356190 -0.573259
C41   C     C_R   0.998878 0.878495 0.380376 0.839592
O19   O     O_R   0.961720 0.908880 0.552900 -0.578147
O20   O     O_R   0.855960 0.908820 0.447080 -0.578058
C42   C     C_R   0.879999 0.878014 0.498227 0.787165
Cu5   Cu    Cu3+1 0.062620 0.000040 0.562660 0.992519
Cu6   Cu    Cu3+1 0.937380 0.999960 0.437350 1.055800
O21   O     O_R   0.052590 0.091170 0.643810 -0.599895
O22   O     O_R   0.946830 0.091100 0.537990 -0.568809
O23   O     O_R   0.144040 0.091190 0.552920 -0.602387
O24   O     O_R   0.038280 0.091120 0.447100 -0.537276
C43   C     C_R   0.997196 0.117553 0.619684 0.770498
C44   C     C_R   0.120004 0.119974 0.499744 0.751271
C45   C     C_3   0.920087 0.692605 0.151625 -0.548523
H37   H     H_    0.861000 0.626941 0.118730 0.204604
H38   H     H_    0.918166 0.710530 0.099882 0.193785
C46   C     C_3   0.915008 0.760253 0.221605 -0.337082
H39   H     H_    0.906599 0.807829 0.200533 0.218967
H40   H     H_    0.856008 0.727046 0.225319 0.217687
H41   H     H_    0.936643 0.607014 0.235765 0.167161
C47   C     C_3   0.002714 0.664684 0.266586 0.126456
C48   C     C_3   0.084643 0.783857 0.234815 0.212407
C49   C     C_3   0.005469 0.689228 0.194100 -0.113565
H42   H     H_    0.078313 0.798525 0.180340 0.133510
C50   C     C_3   0.999862 0.809458 0.312513 -0.067757
C51   C     C_3   0.013433 0.742894 0.342129 0.149197
C52   C     C_3   0.078172 0.854347 0.301319 -0.523175
H43   H     H_    0.068836 0.899455 0.276794 0.209480
H44   H     H_    0.139987 0.896548 0.365939 0.207801
H45   H     H_    0.082327 0.778819 0.397301 0.178699
C53   C     C_3   0.020891 0.249103 0.843746 -0.365083
H46   H     H_    0.970685 0.216435 0.858689 0.212454
H47   H     H_    0.085542 0.288259 0.905483 0.145525
C54   C     C_3   0.022506 0.178350 0.773196 -0.331021
H48   H     H_    0.089902 0.187636 0.800249 0.177892
H49   H     H_    0.978566 0.111789 0.758627 0.203554
H50   H     H_    0.857312 0.225470 0.744586 0.219935
C55   C     C_3   0.907667 0.254662 0.728267 -0.420927
C56   C     C_3   0.068550 0.350584 0.786122 -0.352770
C57   C     C_3   0.999948 0.310343 0.811344 0.092047
H51   H     H_    0.054743 0.394743 0.762319 0.181251
H52   H     H_    0.135565 0.390850 0.844835 0.182130
C58   C     C_3   0.996690 0.186183 0.688636 0.039959
C59   C     C_3   0.905531 0.182102 0.654998 0.234934
C60   C     C_3   0.066237 0.277633 0.713776 -0.483137
H53   H     H_    0.132229 0.283412 0.737542 0.183364
H54   H     H_    0.050871 0.286499 0.655252 0.167483
H55   H     H_    0.891095 0.297847 0.704570 0.120790
H56   H     H_    0.893888 0.196698 0.600042 0.115874
N1    N     N_R   0.092516 0.414804 0.241981 0.148050
O25   O     O_R   0.082573 0.446423 0.309005 -0.287162
O26   O     O_R   0.030115 0.339471 0.173060 -0.320291
H57   H     H_    0.762173 0.556878 0.895463 0.178397
N2    N     N_R   0.771461 0.666729 0.774186 0.143046
O27   O     O_R   0.781437 0.719588 0.742297 -0.383362
O28   O     O_R   0.761961 0.688370 0.842763 -0.356848
H58   H     H_    0.881807 0.646278 0.873656 0.199458
N3    N     N_R   0.096505 0.117735 0.333516 0.144382
O29   O     O_R   0.049193 0.034271 0.275959 -0.366561
O30   O     O_R   0.068659 0.170447 0.320693 -0.333115
H59   H     H_    0.391587 0.573148 0.259506 0.139425
N4    N     N_R   0.955630 0.711616 0.375144 0.112091
O31   O     O_R   0.870838 0.665445 0.324351 -0.425077
O32   O     O_R   0.989876 0.725395 0.455047 -0.338106
N5    N     N_R   0.170840 0.790383 0.274630 0.158925
O33   O     O_R   0.207990 0.803673 0.354211 -0.329360
O34   O     O_R   0.216858 0.796940 0.235757 -0.334807
N6    N     N_R   0.066283 0.637824 0.301764 0.147694
O35   O     O_R   0.066964 0.616079 0.361428 -0.264922
O36   O     O_R   0.114716 0.625291 0.268361 -0.352127
N7    N     N_R   0.832851 0.094904 0.621315 0.108314
O37   O     O_R   0.823079 0.065899 0.673947 -0.398249
O38   O     O_R   0.773186 0.048546 0.538538 -0.360985

loop_
_geom_bond_atom_site_label_1
_geom_bond_atom_site_label_2
_geom_bond_distance
_ccdc_geom_bond_type
O12   C38   1.295406 A    
N6    O35   1.301289 A    
C13   H6    1.112077 S    
C7    C10   1.538823 S    
C16   C20   1.541819 S    
C8    C9    1.551033 S    
C31   C35   1.541619 S    
C53   H46   1.112997 S    
Cu6   O22   1.977273 S    
C46   H39   1.113261 S    
Cu1   Cu2   2.695212 S    
C21   H18   1.113415 S    
C48   C52   1.551341 S    
Cu1   O7    1.973359 S    
O20   C42   1.296073 A    
C19   H16   1.112880 S    
C20   H14   1.112414 S    
C6    N1    1.456807 S    
C34   C36   1.551583 S    
C26   C28   1.554032 S    
C16   C17   1.557628 S    
C15   C17   1.550244 S    
C58   C60   1.547919 S    
C56   H52   1.113200 S    
N4    O31   1.301108 A    
O4    C2    1.293580 A    
O7    C4    1.297026 A    
C36   H34   1.113686 S    
N3    O30   1.301616 A    
C5    C6    1.533676 S    
C24   C25   1.553409 S    
C30   N3    1.470470 S    
C7    C8    1.539964 S    
H29   C31   1.113417 S    
O5    C3    1.297168 A    
C32   C36   1.542129 S    
C54   C58   1.557695 S    
H9    C15   1.112972 S    
Cu4   O14   1.976413 S    
C45   H38   1.113995 S    
N1    O25   1.300268 A    
C24   H23   1.110121 S    
C55   H55   1.113691 S    
C22   H20   1.113432 S    
C29   C33   1.555732 S    
N4    O32   1.300982 A    
Cu3   O13   1.978419 S    
Cu2   O8    1.973394 S    
C24   C28   1.541661 S    
N7    O38   1.301082 A    
N6    O36   1.299709 A    
C9    H59   1.110236 S    
C10   C11   1.553961 S    
C27   H58   1.113021 S    
C13   C14   1.541236 S    
C18   C20   1.545552 S    
N2    O28   1.301575 A    
H10   C19   1.112815 S    
O10   Cu4   1.978328 S    
O3    Cu1   1.973395 S    
C48   N5    1.470661 S    
C11   C12   1.537809 S    
O17   C41   1.294882 A    
Cu4   O16   1.974365 S    
C21   C22   1.541667 S    
N5    O34   1.301219 A    
H21   C23   1.115588 S    
C58   C59   1.568905 S    
O9    Cu3   1.976295 S    
C39   C57   1.488528 S    
C30   H28   1.115574 S    
C29   C30   1.548351 S    
C34   C35   1.561058 S    
C32   H31   1.112708 S    
C31   C33   1.545824 S    
C36   H33   1.110150 S    
C56   C57   1.559269 S    
C18   C42   1.489111 S    
O11   Cu3   1.974363 S    
O19   Cu5   1.976908 S    
C7    C38   1.468290 S    
C45   C49   1.555962 S    
O1    C1    1.298690 A    
C29   H27   1.113017 S    
C37   C49   1.489272 S    
C5    C8    1.551503 S    
C53   C57   1.549292 S    
C28   H25   1.112715 S    
C21   C25   1.560362 S    
C51   H45   1.115346 S    
C21   H17   1.113309 S    
C9    C12   1.537090 S    
N2    O27   1.300777 A    
C13   H5    1.113227 S    
O19   C42   1.296899 A    
C22   H19   1.113326 S    
C14   C18   1.555030 S    
Cu5   O21   1.977304 S    
C6    C7    1.524260 S    
O10   C37   1.295020 A    
O16   C40   1.295513 A    
O17   Cu5   1.977275 S    
C48   H42   1.115448 S    
C56   C60   1.542317 S    
C59   H56   1.115298 S    
C41   C50   1.487106 S    
C26   C40   1.484733 S    
C56   H51   1.113195 S    
N7    O37   1.301424 A    
O9    C37   1.298046 A    
O8    C4    1.297127 A    
O15   C40   1.297220 A    
C43   C58   1.489250 S    
C55   C57   1.549119 S    
C60   H54   1.113510 S    
O3    C2    1.294111 A    
C20   H13   1.113365 S    
C50   C52   1.547878 S    
C54   H48   1.113299 S    
C15   H15   1.113346 S    
C53   C54   1.541513 S    
Cu6   O24   1.977008 S    
C52   H44   1.112496 S    
N5    O33   1.302065 A    
C23   N2    1.470339 S    
Cu1   O5    1.977087 S    
C4    C25   1.487202 S    
C10   H3    1.110230 S    
C18   C19   1.554877 S    
C59   N7    1.469279 S    
C6    C11   1.531862 S    
C28   H57   1.113113 S    
C45   H37   1.113675 S    
N1    O26   1.300389 A    
O1    Cu1   1.975075 S    
C16   H12   1.113005 S    
O2    Cu2   1.977086 S    
C3    C33   1.486561 S    
C32   C33   1.555768 S    
C54   H49   1.110153 S    
O6    C3    1.297795 A    
C53   H47   1.113435 S    
O4    Cu2   1.973358 S    
C46   H40   1.109672 S    
C48   C49   1.579258 S    
C5    H1    1.110268 S    
H50   C55   1.112701 S    
H22   C27   1.113554 S    
O20   Cu6   1.974843 S    
C47   N6    1.473524 S    
C24   H24   1.113650 S    
C22   C26   1.546741 S    
C29   H26   1.113460 S    
C23   C25   1.563124 S    
O2    C1    1.296409 A    
C50   C51   1.568873 S    
H41   C47   1.113932 S    
C16   H11   1.113181 S    
C14   H8    1.109725 S    
C32   H32   1.113009 S    
C14   H7    1.113007 S    
O21   C43   1.296256 A    
C35   H36   1.113444 S    
C13   C17   1.547706 S    
O18   Cu6   1.977284 S    
C2    C12   1.465014 S    
C23   C27   1.547270 S    
C5    C12   1.538932 S    
O23   C44   1.295721 A    
O24   C44   1.296252 A    
C8    H2    1.110280 S    
C45   C46   1.541659 S    
O11   C38   1.292561 A    
C47   C51   1.551199 S    
O14   C39   1.295268 A    
Cu3   O15   1.972456 S    
C15   C19   1.542799 S    
C34   C44   1.489676 S    
C47   C49   1.574410 S    
C51   N4    1.468459 S    
O13   C39   1.298882 A    
C46   C50   1.557346 S    
C55   C59   1.549999 S    
C9    C10   1.550486 S    
C1    C17   1.487746 S    
Cu2   O6    1.975077 S    
O18   C41   1.295829 A    
C11   H4    1.110262 S    
O12   Cu4   1.972337 S    
Cu5   Cu6   2.689707 S    
C60   H53   1.113582 S    
C26   C27   1.556712 S    
Cu5   O23   1.975081 S    
C30   C34   1.565125 S    
C31   H35   1.113382 S    
Cu3   Cu4   2.693322 S    
N3    O29   1.300748 A    
C52   H43   1.112323 S    
H30   C35   1.113325 S    
O22   C43   1.296223 A    
