data_mof_unit_62169.cif
_audit_creation_date              2013-03-05T15:46:45-0500
_audit_creation_method            fapswitch 2.2
_symmetry_space_group_name_H-M    P1
_symmetry_Int_Tables_number       1
_space_group_crystal_system       triclinic
_cell_length_a                    22.157571
_cell_length_b                    22.20203
_cell_length_c                    23.605243
_cell_angle_alpha                 90.086161
_cell_angle_beta                  89.657873
_cell_angle_gamma                 90.210265
_cell_volume                      11612.1374117

loop_
_atom_site_label
_atom_site_type_symbol
_atom_site_description
_atom_site_fract_x
_atom_site_fract_y
_atom_site_fract_z
_atom_type_partial_charge
O1    O     O_R   0.409810 0.052200 0.500010 -0.547165
O2    O     O_R   0.947800 0.409810 0.500010 -0.550823
O3    O     O_R   0.590190 0.947800 0.500010 -0.570146
O4    O     O_R   0.052200 0.590190 0.500010 -0.550865
O5    O     O_R   0.409810 0.947800 0.499990 -0.540319
O6    O     O_R   0.947800 0.590190 0.499990 -0.553791
O7    O     O_R   0.590190 0.052200 0.499990 -0.530075
O8    O     O_R   0.052200 0.409810 0.499990 -0.550716
O9    O     O_R   0.909810 0.552200 0.000010 -0.550429
O10   O     O_R   0.447800 0.909810 0.000010 -0.549981
O11   O     O_R   0.090190 0.447800 0.000010 -0.549739
O12   O     O_R   0.552200 0.090190 0.000010 -0.549054
O13   O     O_R   0.909810 0.447800 0.999990 -0.549733
O14   O     O_R   0.447800 0.090190 0.999990 -0.550023
O15   O     O_R   0.090190 0.552200 0.999990 -0.550480
O16   O     O_R   0.552200 0.909810 0.999990 -0.549016
C1    C     C_R   0.381089 0.999870 0.499567 0.844267
C2    C     C_R   0.999903 0.381037 0.499984 0.840383
C3    C     C_R   0.618682 0.000632 0.497790 0.776696
C4    C     C_R   0.000076 0.618955 0.500049 0.840665
C5    C     C_R   0.881032 0.499906 0.999823 0.836259
C6    C     C_R   0.499912 0.880981 0.000045 0.836548
C7    C     C_R   0.118967 0.500077 0.000229 0.836269
C8    C     C_R   0.500088 0.119011 0.999910 0.836273
O17   O     O_R   0.499980 0.052200 0.418610 -0.544049
O18   O     O_R   0.947800 0.499980 0.418610 -0.539705
O19   O     O_R   0.500020 0.947800 0.418610 -0.535279
O20   O     O_R   0.052200 0.500020 0.418610 -0.543127
O21   O     O_R   0.499980 0.947800 0.581390 -0.564531
O22   O     O_R   0.947800 0.500020 0.581390 -0.541004
O23   O     O_R   0.500020 0.052200 0.581390 -0.510746
O24   O     O_R   0.052200 0.499980 0.581390 -0.541275
O25   O     O_R   0.999980 0.552200 0.918610 -0.540968
O26   O     O_R   0.447800 0.999980 0.918610 -0.540019
O27   O     O_R   0.000020 0.447800 0.918610 -0.540915
O28   O     O_R   0.552200 0.000020 0.918610 -0.540591
O29   O     O_R   0.999980 0.447800 0.081390 -0.540620
O30   O     O_R   0.447800 0.000020 0.081390 -0.540966
O31   O     O_R   0.000020 0.552200 0.081390 -0.541690
O32   O     O_R   0.552200 0.999980 0.081390 -0.540405
C9    C     C_R   0.500402 0.000002 0.392303 0.940970
C10   C     C_R   0.000152 0.500462 0.392270 0.943653
C11   C     C_R   0.504590 0.999839 0.607480 0.861698
C12   C     C_R   0.999869 0.499806 0.607731 0.945507
C13   C     C_R   0.000281 0.499966 0.892300 0.947078
C14   C     C_R   0.500250 0.999897 0.892210 0.946811
C15   C     C_R   0.999722 0.500048 0.107702 0.946553
C16   C     C_R   0.499856 0.000058 0.107726 0.947577
Cu1   Cu    Cu3+1 0.500000 0.061820 0.500000 1.226876
Cu2   Cu    Cu3+1 0.938180 0.500000 0.500000 1.206131
Cu3   Cu    Cu3+1 0.500000 0.938180 0.500000 1.184495
Cu4   Cu    Cu3+1 0.061820 0.500000 0.500000 1.205119
Cu5   Cu    Cu3+1 0.000000 0.561820 0.000000 1.203967
Cu6   Cu    Cu3+1 0.438180 0.000000 0.000000 1.208245
Cu7   Cu    Cu3+1 0.000000 0.438180 0.000000 1.205610
Cu8   Cu    Cu3+1 0.561820 0.000000 0.000000 1.211049
C17   C     C_1   0.500188 0.000028 0.331014 0.150940
C18   C     C_1   0.000386 0.500582 0.331049 0.136357
C19   C     C_1   0.506240 0.999213 0.668585 0.066430
C20   C     C_1   0.999701 0.499785 0.668963 0.138357
C21   C     C_1   0.000455 0.499903 0.831022 0.143354
C22   C     C_1   0.501327 0.999636 0.830831 0.143505
C23   C     C_1   0.999569 0.500205 0.168983 0.143263
C24   C     C_1   0.499604 0.000110 0.168983 0.144526
C25   C     C_1   0.499927 0.000063 0.279906 0.140941
C26   C     C_1   0.000189 0.500531 0.279936 0.134241
C27   C     C_1   0.505478 0.999109 0.719753 0.135506
C28   C     C_1   0.999902 0.499806 0.720074 0.134464
C29   C     C_1   0.000276 0.499856 0.779908 0.135370
C30   C     C_1   0.503229 0.999352 0.779672 0.144260
C31   C     C_1   0.999781 0.500369 0.220099 0.135305
C32   C     C_1   0.499665 0.000102 0.220088 0.136790
C33   C     C_R   0.304694 0.981468 0.393311 0.274446
C34   C     C_R   0.028894 0.304897 0.395384 0.269363
C35   C     C_R   0.697720 0.006849 0.389634 0.277647
C36   C     C_R   0.965658 0.695600 0.397746 0.268447
C37   C     C_R   0.304958 0.017300 0.606166 0.259475
C38   C     C_R   0.030091 0.695064 0.604289 0.269784
C39   C     C_R   0.691327 0.021401 0.601424 0.158072
C40   C     C_R   0.968352 0.304464 0.603647 0.270614
C41   C     C_R   0.804896 0.475940 0.894329 0.273381
C42   C     C_R   0.522227 0.804233 0.894303 0.275592
C43   C     C_R   0.196196 0.523678 0.894837 0.272289
C44   C     C_R   0.479004 0.195460 0.894111 0.271344
C45   C     C_R   0.803931 0.523619 0.105236 0.272064
C46   C     C_R   0.521509 0.195865 0.105612 0.273142
C47   C     C_R   0.195011 0.476480 0.105710 0.273465
C48   C     C_R   0.477334 0.804458 0.105826 0.272782
C49   C     C_R   0.268754 0.967459 0.346038 0.201668
C50   C     C_R   0.049057 0.269191 0.349673 0.194895
C51   C     C_R   0.735072 0.015909 0.341914 0.201001
C52   C     C_R   0.940547 0.731386 0.354520 0.191845
C53   C     C_R   0.268979 0.032210 0.653508 0.197308
C54   C     C_R   0.050164 0.730834 0.649856 0.193877
C55   C     C_R   0.717225 0.000455 0.652309 0.166230
C56   C     C_R   0.945912 0.268577 0.648378 0.194207
C57   C     C_R   0.769102 0.458754 0.847838 0.198585
C58   C     C_R   0.538731 0.768311 0.847512 0.200216
C59   C     C_R   0.232505 0.540937 0.848373 0.198065
C60   C     C_R   0.462984 0.231300 0.847386 0.199708
C61   C     C_R   0.767760 0.541149 0.151666 0.198257
C62   C     C_R   0.537479 0.231933 0.152374 0.198446
C63   C     C_R   0.230711 0.459260 0.152124 0.198815
C64   C     C_R   0.460866 0.768579 0.152644 0.199048
C65   C     C_R   0.211123 0.944409 0.354286 0.213021
C66   C     C_R   0.071456 0.211976 0.359864 0.214517
C67   C     C_R   0.792348 0.040583 0.349010 0.212514
C68   C     C_R   0.917342 0.787805 0.367715 0.221192
C69   C     C_R   0.211774 0.055912 0.645474 0.215585
C70   C     C_R   0.072150 0.788380 0.639602 0.212536
C71   C     C_R   0.769057 0.964238 0.649959 0.229011
C72   C     C_R   0.923113 0.211542 0.636880 0.216735
C73   C     C_R   0.711519 0.436045 0.857208 0.212764
C74   C     C_R   0.561770 0.711118 0.856435 0.216629
C75   C     C_R   0.289878 0.563925 0.857769 0.213637
C76   C     C_R   0.439698 0.288453 0.856427 0.212072
C77   C     C_R   0.710625 0.564253 0.142225 0.213555
C78   C     C_R   0.560564 0.289317 0.143392 0.213624
C79   C     C_R   0.288029 0.436328 0.142637 0.214036
C80   C     C_R   0.438051 0.711096 0.143762 0.213691
C81   C     C_R   0.187990 0.942241 0.409186 0.179537
C82   C     C_R   0.066620 0.188447 0.414348 0.172149
C83   C     C_R   0.813676 0.048993 0.403895 0.191084
C84   C     C_R   0.927181 0.811046 0.421694 0.161130
C85   C     C_R   0.188600 0.057608 0.590781 0.179654
C86   C     C_R   0.067140 0.812057 0.585257 0.172108
C87   C     C_R   0.800321 0.957109 0.598289 0.189570
C88   C     C_R   0.930335 0.188199 0.582506 0.167706
C89   C     C_R   0.688057 0.437574 0.912006 0.175756
C90   C     C_R   0.561271 0.688108 0.911253 0.175944
C91   C     C_R   0.312692 0.562566 0.912560 0.176127
C92   C     C_R   0.439586 0.311574 0.911271 0.177255
C93   C     C_R   0.687805 0.562724 0.087430 0.175679
C94   C     C_R   0.560605 0.312306 0.088567 0.177412
C95   C     C_R   0.311435 0.437723 0.087814 0.175194
C96   C     C_R   0.438698 0.687842 0.088971 0.176802
C97   C     C_R   0.217155 0.974496 0.453674 -0.059462
C98   C     C_R   0.029746 0.217349 0.455782 -0.059102
C99   C     C_R   0.783612 0.020948 0.450413 -0.058598
C100  C     C_R   0.968096 0.782514 0.458951 -0.062080
C101  C     C_R   0.217357 0.024824 0.546267 -0.055739
C102  C     C_R   0.030473 0.782826 0.544098 -0.059503
C103  C     C_R   0.778533 0.986077 0.548817 -0.038472
C104  C     C_R   0.969131 0.217195 0.542819 -0.062021
C105  C     C_R   0.717134 0.472309 0.954788 -0.060681
C106  C     C_R   0.526994 0.717070 0.954670 -0.059628
C107  C     C_R   0.283274 0.527754 0.955301 -0.059832
C108  C     C_R   0.473486 0.282762 0.954565 -0.059425
C109  C     C_R   0.716937 0.527706 0.044705 -0.059928
C110  C     C_R   0.526759 0.283097 0.045255 -0.059351
C111  C     C_R   0.282648 0.472514 0.045141 -0.060884
C112  C     C_R   0.472885 0.716976 0.045540 -0.059377
C113  C     C_R   0.279843 0.985390 0.448999 -0.104580
C114  C     C_R   0.019267 0.279934 0.450401 -0.102833
C115  C     C_R   0.721051 0.009430 0.445514 -0.097380
C116  C     C_R   0.978513 0.720178 0.452324 -0.097697
C117  C     C_R   0.279941 0.013444 0.550645 -0.103230
C118  C     C_R   0.020229 0.720082 0.549473 -0.104240
C119  C     C_R   0.717523 0.003516 0.549066 -0.096581
C120  C     C_R   0.979459 0.279743 0.548719 -0.099624
C121  C     C_R   0.779860 0.482893 0.949731 -0.103410
C122  C     C_R   0.516060 0.779567 0.949776 -0.103647
C123  C     C_R   0.220652 0.516938 0.950226 -0.103887
C124  C     C_R   0.484513 0.220253 0.949610 -0.103092
C125  C     C_R   0.779449 0.516724 0.049836 -0.103488
C126  C     C_R   0.515913 0.220499 0.050145 -0.103547
C127  C     C_R   0.220040 0.483313 0.050294 -0.103153
C128  C     C_R   0.483583 0.779619 0.050371 -0.103382
C129  C     C_R   0.185245 0.999966 0.499909 -0.001454
C130  C     C_R   0.999880 0.185263 0.499611 -0.006441
C131  C     C_R   0.813875 0.001599 0.500159 -0.002213
C132  C     C_R   0.000072 0.814700 0.500893 -0.007717
C133  C     C_R   0.685095 0.500114 0.999716 -0.003079
C134  C     C_R   0.499995 0.685083 0.000115 -0.001785
C135  C     C_R   0.314905 0.500165 0.000232 -0.003078
C136  C     C_R   0.500069 0.314888 0.999931 -0.002500
C137  C     C_R   0.313336 0.999482 0.499694 -0.029604
C138  C     C_R   0.999694 0.313289 0.499764 -0.023575
C139  C     C_R   0.686079 0.003831 0.496763 -0.001088
C140  C     C_R   0.000154 0.686685 0.500417 -0.023005
C141  C     C_R   0.813179 0.499732 0.999800 -0.024126
C142  C     C_R   0.499768 0.813121 0.000053 -0.024850
C143  C     C_R   0.186819 0.500187 0.000291 -0.024084
C144  C     C_R   0.500250 0.186851 0.999866 -0.024355
O33   O     O_R   0.999980 0.090160 0.547150 -0.548613
O34   O     O_R   0.909840 0.999980 0.547150 -0.544880
O35   O     O_R   0.000020 0.909840 0.547150 -0.552325
O36   O     O_R   0.090160 0.000020 0.547150 -0.548114
O37   O     O_R   0.999980 0.909840 0.452850 -0.545592
O38   O     O_R   0.909840 0.000020 0.452850 -0.551380
O39   O     O_R   0.000020 0.090160 0.452850 -0.547847
O40   O     O_R   0.090160 0.999980 0.452850 -0.548413
O41   O     O_R   0.499980 0.590160 0.047150 -0.548000
O42   O     O_R   0.409840 0.499980 0.047150 -0.548075
O43   O     O_R   0.500020 0.409840 0.047150 -0.547999
O44   O     O_R   0.590160 0.500020 0.047150 -0.548033
O45   O     O_R   0.499980 0.409840 0.952850 -0.547672
O46   O     O_R   0.409840 0.500020 0.952850 -0.548397
O47   O     O_R   0.500020 0.590160 0.952850 -0.547659
O48   O     O_R   0.590160 0.499980 0.952850 -0.548473
C145  C     C_R   0.000041 0.118861 0.499936 0.875421
C146  C     C_R   0.880810 0.999706 0.500259 0.881523
C147  C     C_R   0.000239 0.881131 0.500174 0.874489
C148  C     C_R   0.118849 0.000204 0.499922 0.882368
C149  C     C_R   0.500011 0.618800 0.000043 0.880050
C150  C     C_R   0.381203 0.500070 0.000105 0.879413
C151  C     C_R   0.499997 0.381189 0.999974 0.880299
C152  C     C_R   0.618798 0.500082 0.999877 0.879266
Cu9   Cu    Cu3+1 0.000000 1.000000 0.555810 1.223516
Cu10  Cu    Cu3+1 0.000000 1.000000 0.444190 1.227238
Cu11  Cu    Cu3+1 0.500000 0.500000 0.055810 1.229709
Cu12  Cu    Cu3+1 0.500000 0.500000 0.944190 1.229821
Br1   Br    Br    0.299470 0.021983 0.729406 -0.172812
Br2   Br    Br    0.946204 0.297959 0.725506 -0.170523
Br3   Br    Br    0.685953 0.023270 0.725732 -0.209048
Br4   Br    Br    0.047696 0.700517 0.726584 -0.177072
Br5   Br    Br    0.300303 0.977146 0.270076 -0.176060
Br6   Br    Br    0.938387 0.703219 0.277028 -0.169138
Br7   Br    Br    0.704877 0.999583 0.266869 -0.170263
Br8   Br    Br    0.046397 0.299269 0.272913 -0.173980
Br9   Br    Br    0.797737 0.535053 0.228168 -0.171437
Br10  Br    Br    0.467773 0.799574 0.228899 -0.172358
Br11  Br    Br    0.199821 0.465525 0.228657 -0.175198
Br12  Br    Br    0.529594 0.201292 0.228660 -0.176955
Br13  Br    Br    0.800220 0.464736 0.771365 -0.172978
Br14  Br    Br    0.471193 0.200703 0.771038 -0.154859
Br15  Br    Br    0.202387 0.534640 0.771903 -0.173805
Br16  Br    Br    0.531644 0.798909 0.771250 -0.201502
N1    N     N_R   0.366337 0.990333 0.382534 0.065957
O49   O     O_R   0.383927 0.044660 0.369857 -0.350700
O50   O     O_R   0.394824 0.944144 0.361679 -0.355867
N2    N     N_R   0.016779 0.365659 0.383312 0.074241
O51   O     O_R   0.961323 0.380241 0.372053 -0.355099
O52   O     O_R   0.061126 0.396832 0.361835 -0.346532
N3    N     N_R   0.635666 0.000927 0.379439 0.069540
O53   O     O_R   0.615034 0.947488 0.367525 -0.338704
O54   O     O_R   0.609490 0.048333 0.358791 -0.363623
N4    N     N_R   0.979941 0.635632 0.383515 0.077129
O55   O     O_R   0.036032 0.622707 0.372562 -0.357806
O56   O     O_R   0.936942 0.603079 0.361846 -0.345003
N5    N     N_R   0.366544 0.006917 0.616703 0.084566
O57   O     O_R   0.383519 0.951777 0.625839 -0.326810
O58   O     O_R   0.396201 0.051254 0.639589 -0.337566
N6    N     N_R   0.017693 0.634287 0.616479 0.073900
O59   O     O_R   0.962163 0.619667 0.628463 -0.358843
O60   O     O_R   0.061889 0.603232 0.637476 -0.345917
N7    N     N_R   0.651015 0.072126 0.602355 0.154561
O61   O     O_R   0.662541 0.118125 0.569855 -0.241087
O62   O     O_R   0.609684 0.077707 0.641219 -0.318281
N8    N     N_R   0.981328 0.365006 0.616614 0.074057
O63   O     O_R   0.036969 0.379178 0.628024 -0.357248
O64   O     O_R   0.937373 0.396536 0.638008 -0.345451
N9    N     N_R   0.866227 0.486443 0.882875 0.069341
O65   O     O_R   0.882379 0.541269 0.870442 -0.355274
O66   O     O_R   0.895980 0.441145 0.861843 -0.351916
N10   N     N_R   0.512323 0.865476 0.883212 0.069802
O67   O     O_R   0.457596 0.881846 0.871063 -0.350716
O68   O     O_R   0.558078 0.895033 0.862329 -0.357905
N11   N     N_R   0.134965 0.513017 0.883409 0.070675
O69   O     O_R   0.118851 0.458087 0.871376 -0.353565
O70   O     O_R   0.105322 0.558104 0.862307 -0.352504
N12   N     N_R   0.489219 0.134218 0.882901 0.069559
O71   O     O_R   0.544237 0.117870 0.871247 -0.344589
O72   O     O_R   0.443998 0.104635 0.861459 -0.354220
N13   N     N_R   0.865076 0.512955 0.116693 0.070798
O73   O     O_R   0.880830 0.458018 0.128493 -0.353299
O74   O     O_R   0.895018 0.558033 0.137976 -0.352965
N14   N     N_R   0.511448 0.134552 0.116744 0.069779
O75   O     O_R   0.456563 0.117815 0.128923 -0.350396
O76   O     O_R   0.556920 0.105317 0.137650 -0.355374
N15   N     N_R   0.133761 0.486989 0.117231 0.069523
O77   O     O_R   0.117912 0.541876 0.129458 -0.355256
O78   O     O_R   0.103770 0.441788 0.138436 -0.352051
N16   N     N_R   0.487449 0.865771 0.116927 0.069315
O79   O     O_R   0.542262 0.882340 0.129025 -0.349909
O80   O     O_R   0.441849 0.895208 0.137934 -0.353689
N17   N     N_R   0.176941 0.920816 0.307685 0.192463
O81   O     O_R   0.200829 0.881783 0.273120 -0.218047
O82   O     O_R   0.120287 0.934797 0.302254 -0.232846
N18   N     N_R   0.100731 0.178300 0.315609 0.190969
O83   O     O_R   0.143543 0.202776 0.285398 -0.216397
O84   O     O_R   0.087521 0.121717 0.307971 -0.235622
N19   N     N_R   0.827647 0.060131 0.301188 0.193154
O85   O     O_R   0.804061 0.094568 0.262721 -0.218762
O86   O     O_R   0.884975 0.047846 0.298526 -0.229896
N20   N     N_R   0.882622 0.820981 0.327177 0.189235
O87   O     O_R   0.838778 0.794974 0.299932 -0.217352
O88   O     O_R   0.891975 0.878415 0.320273 -0.246836
N21   N     N_R   0.177934 0.080310 0.692195 0.192194
O89   O     O_R   0.202484 0.119376 0.726221 -0.218567
O90   O     O_R   0.121100 0.066757 0.698468 -0.233112
N22   N     N_R   0.101207 0.822281 0.683655 0.190828
O91   O     O_R   0.144285 0.798325 0.713196 -0.216296
O92   O     O_R   0.087549 0.878618 0.691715 -0.239907
N23   N     N_R   0.791647 0.936991 0.700621 0.193166
O93   O     O_R   0.756962 0.902191 0.731079 -0.231323
O94   O     O_R   0.847017 0.946828 0.716434 -0.215514
N24   N     N_R   0.891064 0.177934 0.679537 0.191436
O95   O     O_R   0.847800 0.202963 0.708591 -0.208641
O96   O     O_R   0.902069 0.120906 0.686592 -0.239785
N25   N     N_R   0.677596 0.409376 0.811896 0.192042
O97   O     O_R   0.701828 0.368437 0.779579 -0.209932
O98   O     O_R   0.620905 0.422708 0.805485 -0.232290
N26   N     N_R   0.587737 0.677153 0.810600 0.192294
O99   O     O_R   0.628250 0.701398 0.777567 -0.220970
O100  O     O_R   0.574163 0.620469 0.804307 -0.232133
N27   N     N_R   0.324245 0.590673 0.812486 0.191591
O101  O     O_R   0.300222 0.631431 0.780214 -0.215829
O102  O     O_R   0.381074 0.577578 0.806034 -0.233476
N28   N     N_R   0.414133 0.322275 0.810682 0.191975
O103  O     O_R   0.374120 0.297834 0.777622 -0.218675
O104  O     O_R   0.427572 0.379000 0.804473 -0.231428
N29   N     N_R   0.676509 0.591236 0.187492 0.191602
O105  O     O_R   0.700878 0.632147 0.219676 -0.213956
O106  O     O_R   0.619612 0.578111 0.194078 -0.233222
N30   N     N_R   0.586083 0.323497 0.189146 0.192122
O107  O     O_R   0.626169 0.299520 0.222170 -0.218757
O108  O     O_R   0.572630 0.380144 0.195314 -0.232213
N31   N     N_R   0.321739 0.409634 0.187870 0.191630
O109  O     O_R   0.297140 0.368798 0.220144 -0.215481
O110  O     O_R   0.378543 0.422909 0.194310 -0.233262
N32   N     N_R   0.412123 0.677061 0.189603 0.191856
O111  O     O_R   0.371524 0.701045 0.222587 -0.218612
O112  O     O_R   0.425769 0.620515 0.195902 -0.232219
Br17  Br    Br    0.131714 0.877868 0.423467 -0.345029
Br18  Br    Br    0.127954 0.131852 0.434376 -0.370945
Br19  Br    Br    0.867425 0.116500 0.414504 -0.327757
Br20  Br    Br    0.867010 0.864990 0.450014 -0.396874
Br21  Br    Br    0.132484 0.121636 0.576474 -0.346548
Br22  Br    Br    0.128344 0.869265 0.564964 -0.371613
Br23  Br    Br    0.858266 0.892419 0.594522 -0.317315
Br24  Br    Br    0.869081 0.132972 0.558532 -0.364995
Br25  Br    Br    0.631654 0.374522 0.929758 -0.361150
Br26  Br    Br    0.624556 0.632006 0.927687 -0.358188
Br27  Br    Br    0.368726 0.625761 0.930417 -0.362817
Br28  Br    Br    0.376002 0.367568 0.927953 -0.357050
Br29  Br    Br    0.631920 0.625646 0.069631 -0.361239
Br30  Br    Br    0.624351 0.368458 0.071839 -0.358495
Br31  Br    Br    0.367547 0.374766 0.069928 -0.361543
Br32  Br    Br    0.375341 0.631359 0.072504 -0.359436

loop_
_geom_bond_atom_site_label_1
_geom_bond_atom_site_label_2
_geom_bond_distance
_ccdc_geom_bond_type
N32   O112  1.301359 A    
C8    C144  1.506194 S    
O25   C13   1.314723 A    
C46   N14   1.403562 S    
C77   C93   1.391901 A    
C10   C18   1.445114 S    
C62   Br12  1.932645 S    
N25   O97   1.301153 A    
O37   C147  1.287049 A    
C14   C22   1.448926 S    
O18   Cu2   1.931756 S    
C58   C74   1.387141 A    
C90   C106  1.425815 A    
N8    O64   1.300648 A    
N15   O77   1.300971 A    
O47   C149  1.281870 A    
C56   Br2   1.933080 S    
N6    O59   1.300953 A    
C22   C30   1.208107 T    
N16   O79   1.300961 A    
C118  C140  1.445576 A    
O24   Cu4   1.931754 S    
C70   N22   1.436842 S    
C63   Br11  1.933063 S    
N28   O103  1.301137 A    
C80   N32   1.436583 S    
C48   C128  1.425859 A    
C46   C126  1.425970 A    
Cu2   Cu4   2.739562 S    
C99   C131  1.423426 A    
C104  C120  1.413408 A    
C89   Br25  1.918295 S    
C89   C105  1.425286 A    
O30   C16   1.313561 A    
C98   C114  1.415646 A    
O48   C152  1.281923 A    
C74   C90   1.391884 A    
C85   Br21  1.923626 S    
C102  C118  1.416365 A    
C96   C112  1.425613 A    
C92   Br28  1.920978 S    
N4    O56   1.300530 A    
C123  C143  1.444157 A    
C44   C60   1.408942 A    
C51   C67   1.391369 A    
O41   C149  1.281774 A    
O17   C9    1.313998 A    
N30   O107  1.301132 A    
C132  C147  1.475006 S    
N1    O49   1.300997 A    
C84   Br20  1.912469 S    
C101  C129  1.418787 A    
O40   C148  1.283419 A    
O13   C5    1.323028 A    
C87   C103  1.421867 A    
C88   C104  1.420956 A    
O40   Cu10  2.009374 S    
C100  C116  1.412229 A    
C47   C63   1.409274 A    
C101  C117  1.414855 A    
C23   C31   1.206640 T    
O26   Cu6   1.931756 S    
O7    C3    1.310274 A    
O33   Cu9   2.012454 S    
N24   O95   1.301156 A    
O27   C13   1.314997 A    
C3    C139  1.494844 S    
O31   C15   1.314753 A    
C1    C137  1.501207 S    
O32   C16   1.312640 A    
C97   C113  1.412728 A    
N11   O70   1.300685 A    
C47   C127  1.425830 A    
C45   C125  1.426582 A    
C34   C50   1.409469 A    
N22   O92   1.301389 A    
O38   Cu10  2.006945 S    
C13   C21   1.446458 S    
C82   Br18  1.916060 S    
N20   O88   1.301474 A    
C116  C140  1.443375 A    
O9    C5    1.322580 A    
C105  C121  1.413112 A    
C38   C54   1.409257 A    
C111  C127  1.413184 A    
C106  C134  1.415796 A    
O11   C7    1.322231 A    
C40   C120  1.427597 A    
C33   C49   1.408497 A    
O4    C4    1.321811 A    
C68   N20   1.437050 S    
C35   C115  1.420612 A    
O34   Cu9   2.009371 S    
O5    Cu3   2.010553 S    
O39   C145  1.280355 A    
N5    O58   1.300211 A    
N31   O110  1.301366 A    
O35   C147  1.278174 A    
C33   N1    1.401087 S    
N23   O94   1.302105 A    
C77   N29   1.436609 S    
O34   C146  1.283509 A    
C108  C136  1.415851 A    
O23   C11   1.320897 A    
C37   N5    1.408422 S    
N30   O108  1.301360 A    
O37   Cu10  2.012450 S    
N9    O65   1.300971 A    
N29   O106  1.301362 A    
C110  C126  1.414327 A    
C83   C99   1.423887 A    
C34   C114  1.427323 A    
N5    O57   1.300712 A    
C83   Br19  1.927904 S    
O2    Cu2   2.014493 S    
C19   C27   1.207851 T    
C38   C118  1.427239 A    
O35   Cu9   2.011842 S    
C85   C101  1.425835 A    
N10   O68   1.300617 A    
C95   Br31  1.918999 S    
C91   C107  1.425104 A    
O26   C14   1.315433 A    
O29   C15   1.315008 A    
O46   Cu12  2.006945 S    
O8    Cu4   2.012936 S    
C50   Br8   1.933321 S    
C78   C94   1.391866 A    
C35   C51   1.408070 A    
N26   O100  1.301354 A    
C40   N8    1.407160 S    
N17   O81   1.301134 A    
N10   O67   1.300957 A    
C64   Br10  1.932834 S    
C48   C64   1.408802 A    
O19   Cu3   1.933385 S    
N21   O89   1.301138 A    
O17   Cu1   1.932752 S    
C113  C137  1.445147 A    
C71   N23   1.434641 S    
C108  C124  1.414592 A    
C109  C125  1.413239 A    
N18   O83   1.301157 A    
O38   C146  1.287479 A    
C42   C122  1.425739 A    
Cu1   Cu3   2.745059 S    
O36   C148  1.280024 A    
C72   N24   1.436949 S    
C39   N7    1.440040 S    
O44   C152  1.280387 A    
O16   Cu8   2.012936 S    
C7    C143  1.503429 S    
C76   C92   1.391937 A    
C99   C115  1.414038 A    
C17   C25   1.206467 T    
C66   C82   1.392269 A    
Cu9   Cu10  2.634820 S    
O6    Cu2   2.012934 S    
C60   Br14  1.932831 S    
N13   O74   1.300668 A    
C70   C86   1.392276 A    
C46   C62   1.408827 A    
O18   C10   1.312852 A    
O21   Cu3   1.932745 S    
C78   N30   1.436580 S    
C75   N27   1.436651 S    
N12   O71   1.300968 A    
C103  C131  1.428184 A    
C25   C32   1.412067 S    
C93   Br29  1.918879 S    
O12   C8    1.322186 A    
O1    C1    1.322716 A    
C27   C30   1.414990 S    
C41   N9    1.402754 S    
C131  C146  1.483872 S    
C54   C70   1.386788 A    
C6    C142  1.506619 S    
C107  C123  1.413087 A    
C129  C148  1.471199 S    
N6    O60   1.300689 A    
C133  C152  1.468960 S    
N16   O80   1.300691 A    
C121  C141  1.445240 A    
O29   Cu7   1.932745 S    
C2    C138  1.504123 S    
C49   C65   1.386701 A    
N19   O85   1.301090 A    
O13   Cu7   2.010553 S    
C86   Br22  1.913940 S    
C53   C69   1.388365 A    
C57   Br13  1.933095 S    
C42   C58   1.408702 A    
C60   C76   1.387290 A    
C67   C83   1.393797 A    
C44   N12   1.403728 S    
C69   N21   1.436402 S    
O10   C6    1.322281 A    
C106  C122  1.414439 A    
O15   Cu5   2.010548 S    
C68   C84   1.392066 A    
C15   C23   1.446543 S    
C107  C135  1.416064 A    
C16   C24   1.445977 S    
O5    C1    1.321776 A    
C104  C130  1.414275 A    
C55   Br3   1.930341 S    
C36   N4    1.409289 S    
O47   Cu12  2.011839 S    
O33   C145  1.284624 A    
C28   C29   1.412476 S    
O32   Cu8   1.931754 S    
N3    O53   1.300900 A    
C43   N11   1.404060 S    
N7    O62   1.298496 A    
N32   O111  1.301136 A    
O22   Cu2   1.934283 S    
C43   C59   1.409074 A    
O21   C11   1.312376 A    
O22   C12   1.313900 A    
N24   O96   1.301419 A    
O23   Cu1   1.933388 S    
C112  C128  1.414546 A    
C115  C139  1.438035 A    
N28   O104  1.301356 A    
N25   O98   1.301367 A    
C111  C135  1.414642 A    
C53   Br1   1.932511 S    
N27   O101  1.301145 A    
C82   C98   1.424178 A    
C34   N2    1.406369 S    
N23   O93   1.302012 A    
O3    Cu3   2.008992 S    
N8    O63   1.300917 A    
C81   C97   1.426771 A    
C36   C116  1.428231 A    
C38   N6    1.405914 S    
C80   C96   1.391886 A    
C39   C55   1.414287 A    
O28   Cu8   1.934287 S    
O36   Cu9   2.006942 S    
Cu11  Cu12  2.634820 S    
O30   Cu6   1.934283 S    
C126  C144  1.444807 A    
C52   Br6   1.933067 S    
C50   C66   1.387360 A    
C128  C142  1.445088 A    
C114  C138  1.444991 A    
O45   C151  1.282234 A    
O9    Cu5   2.008992 S    
O11   Cu7   2.008992 S    
C61   Br9   1.932978 S    
C43   C123  1.426582 A    
N4    O55   1.300931 A    
O16   C6    1.321557 A    
C42   N10   1.403371 S    
C41   C121  1.425886 A    
C84   C100  1.418438 A    
C67   N19   1.436261 S    
C119  C139  1.421300 A    
C103  C119  1.407542 A    
O6    C4    1.320657 A    
C61   C77   1.387062 A    
C9    C17   1.446795 S    
N1    O50   1.300717 A    
O45   Cu12  2.012450 S    
C81   Br17  1.922114 S    
N29   O105  1.301155 A    
O31   Cu5   1.933388 S    
C12   C20   1.445377 S    
C95   C111  1.425425 A    
C59   C75   1.387109 A    
C37   C53   1.408595 A    
N2    O51   1.300923 A    
C86   C102  1.424409 A    
O8    C2    1.321135 A    
C72   C88   1.392029 A    
N31   O109  1.301147 A    
O43   C151  1.281648 A    
N14   O75   1.300951 A    
C20   C28   1.206522 T    
C73   N25   1.436669 S    
C88   Br24  1.913288 S    
C135  C150  1.468979 S    
C96   Br32  1.920051 S    
C98   C130  1.416468 A    
C64   C80   1.387111 A    
C76   N28   1.436539 S    
C110  C136  1.416136 A    
O2    C2    1.321488 A    
C65   N17   1.436460 S    
C4    C140  1.503748 S    
C75   C91   1.391848 A    
C5    C141  1.503452 S    
C56   C72   1.388618 A    
O48   Cu12  2.009374 S    
C73   C89   1.391625 A    
O4    Cu4   2.014489 S    
C136  C151  1.472027 S    
N22   O91   1.301163 A    
N18   O84   1.301390 A    
C122  C142  1.444978 A    
N20   O87   1.301147 A    
O14   C8    1.321473 A    
C94   C110  1.425435 A    
C79   C95   1.391626 A    
C48   N16   1.403329 S    
C130  C145  1.474311 S    
C47   N15   1.402851 S    
O42   Cu11  2.009371 S    
O44   Cu11  2.006942 S    
C18   C26   1.206563 T    
C127  C143  1.445386 A    
C26   C31   1.412551 S    
C134  C149  1.471619 S    
C35   N3    1.402938 S    
C94   Br30  1.920185 S    
C40   C56   1.410779 A    
N13   O73   1.300949 A    
C97   C129  1.415163 A    
C62   C78   1.387268 A    
C91   Br27  1.918213 S    
O15   C7    1.323373 A    
C100  C132  1.412581 A    
N3    O54   1.300415 A    
N2    O52   1.300642 A    
C52   C68   1.390004 A    
C58   Br16  1.932544 S    
Cu5   Cu7   2.745059 S    
O25   Cu5   1.932752 S    
O42   C150  1.282296 A    
Cu6   Cu8   2.739562 S    
O27   Cu7   1.933385 S    
C92   C108  1.425649 A    
C45   N13   1.404159 S    
C93   C109  1.425413 A    
O7    Cu1   2.010548 S    
N9    O66   1.300756 A    
N12   O72   1.300678 A    
N27   O102  1.301368 A    
O43   Cu11  2.011842 S    
C124  C144  1.445117 A    
O46   C150  1.280023 A    
O19   C9    1.315665 A    
C120  C138  1.443977 A    
O3    C3    1.330983 A    
C74   N26   1.436537 S    
O24   C12   1.312441 A    
C65   C81   1.391601 A    
C117  C137  1.442246 A    
O28   C14   1.312206 A    
O12   Cu8   2.014489 S    
C36   C52   1.412254 A    
C69   C85   1.392866 A    
N26   O99   1.301132 A    
O14   Cu6   2.012934 S    
C105  C133  1.414944 A    
N17   O82   1.301329 A    
C71   C87   1.408092 A    
C66   N18   1.436738 S    
C57   C73   1.386823 A    
N11   O69   1.300948 A    
C45   C61   1.409079 A    
C102  C132  1.417216 A    
C21   C29   1.206587 T    
N15   O78   1.300740 A    
C87   Br23  1.931552 S    
C63   C79   1.386867 A    
N14   O76   1.300646 A    
C44   C124  1.425984 A    
N7    O61   1.301883 A    
C90   Br26  1.920695 S    
C11   C19   1.443167 S    
C54   Br4   1.933558 S    
C125  C141  1.444329 A    
C112  C134  1.416024 A    
C55   C71   1.405165 A    
O20   Cu4   1.934287 S    
C41   C57   1.409216 A    
C39   C119  1.419061 A    
O20   C10   1.313537 A    
N21   O90   1.301330 A    
C79   N31   1.436623 S    
C109  C133  1.415876 A    
C24   C32   1.206338 T    
C51   Br7   1.930679 S    
O10   Cu6   2.014493 S    
C59   Br15  1.932917 S    
O41   Cu11  2.012454 S    
O39   Cu10  2.011839 S    
C49   Br5   1.932668 S    
C33   C113  1.424848 A    
O1    Cu1   2.008992 S    
C37   C117  1.428371 A    
N19   O86   1.301319 A    
