data_mof_unit_35680.cif
_audit_creation_date              2012-12-11T15:39:25-0500
_audit_creation_method            fapswitch 2.2
_symmetry_space_group_name_H-M    P1
_symmetry_Int_Tables_number       1
_space_group_crystal_system       triclinic
_cell_length_a                    17.444769
_cell_length_b                    24.558823
_cell_length_c                    15.068888
_cell_angle_alpha                 90.129002
_cell_angle_beta                  125.755655
_cell_angle_gamma                 89.692599
_cell_volume                      5238.95567111

loop_
_atom_site_label
_atom_site_type_symbol
_atom_type_description
_atom_site_fract_x
_atom_site_fract_y
_atom_site_fract_z
_atom_type_partial_charge
C1    C     C_R   0.312747 0.372876 0.908212 0.507076
C2    C     C_R   0.544110 0.497953 0.720071 -0.107721
C3    C     C_R   0.111059 0.815583 0.998565 -0.319659
C4    C     C_R   0.065139 0.998710 0.364684 -0.165850
C5    C     C_R   0.038033 0.998049 0.713719 -0.120170
C6    C     C_R   0.203612 0.500216 0.630342 -0.140777
C7    C     C_R   0.825115 0.500419 0.276073 -0.137352
C8    C     C_R   0.700967 0.002592 0.630010 -0.137242
C9    C     C_R   0.326895 0.002100 0.285229 -0.151794
C10   C     C_R   0.064057 0.450807 0.491903 0.110155
C11   C     C_R   0.970944 0.450925 0.406330 0.133485
C12   C     C_R   0.565978 0.055220 0.489597 0.140953
C13   C     C_R   0.635939 0.345612 0.087955 0.595160
C14   C     C_R   0.470577 0.054621 0.404773 0.141393
C15   C     C_R   0.117882 0.497750 0.520451 0.056416
C16   C     C_R   0.927459 0.497840 0.344088 0.050019
C17   C     C_R   0.620527 0.008218 0.515471 0.086433
C18   C     C_R   0.428958 0.006986 0.344987 0.074477
C19   C     C_R   0.079579 0.543134 0.450154 -0.151445
C20   C     C_R   0.983759 0.543098 0.361143 -0.179079
C21   C     C_R   0.583281 0.964536 0.441245 -0.176919
C22   C     C_R   0.486960 0.963793 0.355998 -0.224021
C23   C     C_3   0.944991 0.416240 0.466997 -0.421152
C24   C     C_R   0.813309 0.872226 0.909035 0.508920
C25   C     C_3   0.048061 0.415926 0.561099 -0.477320
C26   C     C_3   0.476875 0.107154 0.359365 -0.456875
C27   C     C_3   0.580401 0.107681 0.451150 -0.473136
C28   C     C_R   0.167847 0.674431 0.965194 0.539744
C29   C     C_R   0.765189 0.719356 0.039928 0.518477
C30   C     C_R   0.665463 0.175091 0.956874 0.540947
C31   C     C_R   0.264386 0.219698 0.039812 0.519758
C32   C     C_R   0.613115 0.217506 0.959576 -0.358404
C33   C     C_R   0.310905 0.263824 0.036133 -0.309036
C34   C     C_R   0.117724 0.718165 0.967827 -0.358878
C35   C     C_R   0.142659 0.847005 0.089498 0.551069
C36   C     C_R   0.811894 0.763613 0.037072 -0.306068
C37   C     C_R   0.655624 0.268205 0.999544 0.112522
C38   C     C_R   0.264631 0.313911 0.999830 0.124136
C39   C     C_R   0.160258 0.769271 0.999297 0.107695
C40   C     C_R   0.765840 0.813789 0.001891 0.120737
C41   C     C_R   0.404002 0.628734 0.089314 0.470763
C42   C     C_R   0.557447 0.652161 0.911831 0.583565
C43   C     C_R   0.905250 0.130225 0.089325 0.475081
C44   C     C_R   0.057008 0.152195 0.911552 0.588687
C45   C     C_R   0.748372 0.277892 0.036088 -0.142036
C46   C     C_R   0.315330 0.641441 0.997165 0.052522
C47   C     C_R   0.171476 0.321095 0.964281 -0.190676
C48   C     C_R   0.250379 0.778317 0.026848 -0.140448
C49   C     C_R   0.672906 0.821030 0.967081 -0.188783
C50   C     C_R   0.299536 0.735826 0.023634 -0.195623
C51   C     C_R   0.625063 0.776810 0.968364 -0.182043
C52   C     C_R   0.799847 0.236682 0.033226 -0.195862
C53   C     C_R   0.123737 0.276961 0.966156 -0.183793
C54   C     C_R   0.258927 0.684240 0.994402 0.077404
C55   C     C_R   0.671894 0.726793 0.005512 0.066597
C56   C     C_R   0.758990 0.185568 0.995024 0.075093
C57   C     C_R   0.623309 0.680555 0.003670 -0.028429
C58   C     C_R   0.170898 0.227090 0.004768 0.066253
C59   C     C_R   0.636468 0.498244 0.647049 -0.258628
C60   C     C_R   0.639992 0.498874 0.558148 -0.190309
C61   C     C_R   0.130782 0.989544 0.643607 -0.185357
C62   C     C_R   0.137698 0.990176 0.557278 -0.184513
C63   C     C_R   0.555933 0.497572 0.453222 -0.060355
C64   C     C_R   0.548947 0.495892 0.629373 -0.038854
C65   C     C_R   0.056170 0.997466 0.451906 -0.138857
C66   C     C_R   0.042432 0.996019 0.623029 -0.144469
C67   C     C_R   0.466407 0.494905 0.434205 0.381240
C68   C     C_R   0.817149 0.143880 0.997279 0.047240
C69   C     C_R   0.463598 0.493731 0.524584 0.498376
C70   C     C_R   0.965793 0.002972 0.429738 0.499349
C71   C     C_R   0.958828 0.002077 0.516126 0.496756
C72   C     C_R   0.548085 0.454153 0.302224 -0.096613
C73   C     C_R   0.516817 0.453245 0.749657 -0.075394
C74   C     C_R   0.050087 0.954179 0.303015 -0.102257
C75   C     C_R   0.013291 0.953196 0.745676 -0.157637
C76   C     C_R   0.246265 0.545502 0.695037 -0.172607
C77   C     C_R   0.768974 0.545948 0.252368 -0.145232
C78   C     C_R   0.747183 0.046555 0.697104 -0.188512
C79   C     C_R   0.122337 0.180847 0.003206 -0.030217
C80   C     C_R   0.267666 0.046638 0.253329 -0.140331
C81   C     C_R   0.549346 0.544405 0.303925 0.579047
C82   C     C_R   0.516327 0.544237 0.747412 0.552463
C83   C     C_R   0.051190 0.044333 0.304632 0.588197
C84   C     C_R   0.013152 0.044374 0.744034 0.518055
C85   C     C_R   0.253392 0.455203 0.693166 0.622728
C86   C     C_R   0.767275 0.455273 0.242958 0.537529
C87   C     C_R   0.747244 0.956241 0.692806 0.579524
C88   C     C_R   0.270970 0.955589 0.258810 0.535846
C89   C     C_R   0.311103 0.625836 0.906502 -0.221360
C90   C     C_R   0.561681 0.498753 0.363303 -0.176354
C91   C     C_R   0.652611 0.649625 0.093304 -0.158067
C92   C     C_R   0.812090 0.127356 0.906483 -0.211000
C93   C     C_R   0.151749 0.149958 0.092942 -0.161517
C94   C     C_R   0.404272 0.372841 0.090730 0.502014
C95   C     C_R   0.551210 0.347379 0.908280 0.467983
C96   C     C_R   0.904730 0.872986 0.091381 0.499681
C97   C     C_R   0.054243 0.848025 0.908645 0.480361
C98   C     C_R   0.316443 0.357956 0.999210 -0.313873
C99   C     C_R   0.603871 0.313807 0.997397 -0.328896
C100  C     C_R   0.817187 0.857787 0.000381 -0.311719
H1    H     H_    0.919810 0.375087 0.430730 0.242032
H2    H     H_    0.552452 0.781302 0.940932 0.160249
H3    H     H_    0.871606 0.244625 0.060414 0.150848
H4    H     H_    0.050967 0.281425 0.938148 0.159944
H5    H     H_    0.701212 0.500070 0.729085 0.165152
H6    H     H_    0.707752 0.500853 0.570667 0.160421
H7    H     H_    0.193976 0.984786 0.726280 0.160875
H8    H     H_    0.206223 0.985640 0.572290 0.162839
H9    H     H_    0.254928 0.633986 0.821754 0.147059
H10   H     H_    0.696981 0.662447 0.177827 0.133673
H11   H     H_    0.755986 0.135573 0.821740 0.145504
H12   H     H_    0.062852 0.437316 0.634724 0.200495
H13   H     H_    0.195391 0.163154 0.177252 0.129801
H14   H     H_    0.120591 0.579807 0.469103 0.142360
H15   H     H_    0.952443 0.579664 0.312465 0.152314
H16   H     H_    0.626318 0.930093 0.451174 0.169834
H17   H     H_    0.457496 0.928503 0.303255 0.157466
H18   H     H_    0.192795 0.340879 0.796890 0.318963
H19   H     H_    0.677986 0.286293 0.190681 0.325214
H20   H     H_    0.695549 0.837485 0.799505 0.323195
H21   H     H_    0.190624 0.787612 0.192832 0.328731
H22   H     H_    0.899885 0.438063 0.485606 0.195391
H23   H     H_    0.436826 0.140512 0.365444 0.195076
H24   H     H_    0.081244 0.375010 0.576800 0.243756
H25   H     H_    0.462157 0.102484 0.277274 0.220973
H26   H     H_    0.600230 0.141342 0.510248 0.192906
H27   H     H_    0.066259 0.623282 0.918176 0.318048
H28   H     H_    0.873042 0.670910 0.094167 0.316564
H29   H     H_    0.561800 0.123855 0.895646 0.318625
H30   H     H_    0.372788 0.171444 0.095956 0.315541
H31   H     H_    0.780145 0.317747 0.064891 0.132562
H32   H     H_    0.136578 0.360316 0.935362 0.143991
H33   H     H_    0.281880 0.818483 0.049378 0.130402
H34   H     H_    0.626644 0.103218 0.423129 0.223892
H35   H     H_    0.638194 0.860339 0.938955 0.146600
H36   H     H_    0.391556 0.498550 0.273227 0.334767
H37   H     H_    0.325088 0.489876 0.436617 0.366192
H38   H     H_    0.893236 0.002808 0.269155 0.315573
H39   H     H_    0.869913 0.998464 0.556109 0.322060
H40   H     H_    0.510452 0.663235 0.213050 0.347638
H41   H     H_    0.434898 0.651716 0.774850 0.337212
H42   H     H_    0.012694 0.163157 0.214277 0.345749
H43   H     H_    0.934054 0.151592 0.775116 0.336050
H44   H     H_    0.566353 0.412931 0.332574 0.208940
H45   H     H_    0.540443 0.211437 0.930567 0.147275
H46   H     H_    0.520711 0.411298 0.731301 0.185213
H47   H     H_    0.068530 0.912924 0.333156 0.212787
H48   H     H_    0.015755 0.911314 0.725885 0.202659
H49   H     H_    0.232919 0.587420 0.667949 0.132292
H50   H     H_    0.791412 0.587859 0.269028 0.144739
H51   H     H_    0.738778 0.088557 0.671486 0.136746
H52   H     H_    0.287002 0.088931 0.263694 0.145590
H53   H     H_    0.606784 0.594907 0.424710 0.327716
H54   H     H_    0.552551 0.597423 0.684635 0.326656
H55   H     H_    0.111286 0.094508 0.425963 0.327049
H56   H     H_    0.382949 0.259390 0.061267 0.151742
H57   H     H_    0.046472 0.097598 0.678376 0.330968
H58   H     H_    0.228928 0.409000 0.574677 0.313513
H59   H     H_    0.843270 0.404074 0.228554 0.296706
H60   H     H_    0.676035 0.895015 0.607449 0.318230
H61   H     H_    0.367173 0.904556 0.359550 0.313637
H62   H     H_    0.394485 0.342635 0.201669 0.327921
H63   H     H_    0.498826 0.291739 0.796951 0.327596
H64   H     H_    0.895627 0.842950 0.202976 0.327152
H65   H     H_    0.005530 0.791949 0.798521 0.328047
H66   H     H_    0.046907 0.712763 0.945665 0.149236
H67   H     H_    0.883759 0.759184 0.061604 0.151340
H68   H     H_    0.369550 0.742964 0.044353 0.147621
N1    N     N_R   0.394180 0.396910 0.943210 -0.106289
N2    N     N_R   0.474350 0.471570 0.793850 -0.062634
N3    N     N_R   0.025650 0.971570 0.206150 -0.084346
N4    N     N_R   0.974350 0.971570 0.793850 -0.064699
N5    N     N_R   0.319480 0.528420 0.793810 -0.079454
N6    N     N_R   0.680520 0.528420 0.206190 -0.073644
N7    N     N_R   0.819480 0.028420 0.793810 -0.076614
N8    N     N_R   0.180520 0.028420 0.206190 -0.073746
N9    N     N_R   0.525640 0.528390 0.206120 -0.098387
N10   N     N_R   0.474360 0.528390 0.793880 -0.096062
N11   N     N_R   0.025640 0.028390 0.206120 -0.099876
N12   N     N_R   0.605820 0.396910 0.056790 -0.111593
N13   N     N_R   0.974360 0.028390 0.793880 -0.098537
N14   N     N_R   0.319490 0.471590 0.793840 -0.082882
N15   N     N_R   0.680510 0.471590 0.206160 -0.078052
N16   N     N_R   0.819490 0.971590 0.793840 -0.077044
N17   N     N_R   0.180510 0.971590 0.206160 -0.075447
N18   N     N_R   0.394130 0.603080 0.943110 -0.083646
N19   N     N_R   0.605870 0.603080 0.056890 -0.076143
N20   N     N_R   0.894130 0.103080 0.943110 -0.084885
N21   N     N_R   0.105870 0.103080 0.056890 -0.074923
N22   N     N_R   0.450990 0.396900 0.056840 -0.111555
N23   N     N_R   0.894180 0.896910 0.943210 -0.104943
N24   N     N_R   0.549010 0.396900 0.943160 -0.121153
N25   N     N_R   0.950990 0.896900 0.056840 -0.109079
N26   N     N_R   0.049010 0.896900 0.943160 -0.114207
N27   N     N_R   0.105820 0.896910 0.056790 -0.119563
N28   N     N_R   0.450950 0.603070 0.056740 -0.113639
N29   N     N_R   0.549050 0.603070 0.943260 -0.121555
N30   N     N_R   0.950950 0.103070 0.056740 -0.114161
N31   N     N_R   0.049050 0.103070 0.943260 -0.116851
N32   N     N_R   0.525650 0.471570 0.206150 -0.084212
Ni1   Ni    Ni4+2 0.434860 0.434850 0.869700 0.306198
Ni2   Ni    Ni4+2 0.565140 0.434850 0.130300 0.272927
Ni3   Ni    Ni4+2 0.934860 0.934850 0.869700 0.305923
Ni4   Ni    Ni4+2 0.065140 0.934850 0.130300 0.282764
Ni5   Ni    Ni4+2 0.565130 0.565140 0.130240 0.212372
Ni6   Ni    Ni4+2 0.434870 0.565140 0.869760 0.204134
Ni7   Ni    Ni4+2 0.065130 0.065140 0.130240 0.214148
Ni8   Ni    Ni4+2 0.934870 0.065140 0.869760 0.200601
O1    O     O_3   0.246031 0.358244 0.801348 -0.707256
O2    O     O_3   0.379420 0.491530 0.514555 -0.746990
O3    O     O_3   0.882619 0.009050 0.325910 -0.688739
O4    O     O_3   0.869344 0.007513 0.491953 -0.691322
O5    O     O_3   0.445231 0.654541 0.187940 -0.714942
O6    O     O_3   0.489509 0.676808 0.814356 -0.724139
O7    O     O_3   0.947204 0.155106 0.188898 -0.713850
O8    O     O_3   0.988688 0.176685 0.814070 -0.726022
O9    O     O_3   0.585798 0.594826 0.347766 -0.752117
O10   O     O_3   0.516259 0.596758 0.716286 -0.740471
O11   O     O_3   0.088155 0.094707 0.348210 -0.753275
O12   O     O_3   0.669925 0.326292 0.190646 -0.688374
O13   O     O_3   0.012630 0.096985 0.713025 -0.736247
O14   O     O_3   0.261249 0.406036 0.654602 -0.683233
O15   O     O_3   0.790856 0.402806 0.236595 -0.752575
O16   O     O_3   0.743381 0.905614 0.652047 -0.689937
O17   O     O_3   0.301038 0.903208 0.294002 -0.714864
O18   O     O_3   0.444984 0.356806 0.196803 -0.761252
O19   O     O_3   0.489585 0.331232 0.801069 -0.725894
O20   O     O_3   0.945836 0.857239 0.197698 -0.762958
O21   O     O_3   0.992935 0.830976 0.802004 -0.730084
O22   O     O_3   0.748592 0.854927 0.803661 -0.709757
O23   O     O_3   0.178061 0.827089 0.192069 -0.672125
O24   O     O_3   0.130690 0.622606 0.935917 -0.755159
O25   O     O_3   0.807535 0.668513 0.072823 -0.768960
O26   O     O_3   0.628029 0.123833 0.918977 -0.753979
O27   O     O_3   0.307142 0.169012 0.074152 -0.770776
O28   O     O_3   0.381625 0.493647 0.330795 -0.760262

loop_
_geom_bond_atom_site_label_1
_geom_bond_atom_site_label_2
_ccdc_geom_bond_type
C22   H17   S    
H65   O21   S    
C52   H3    S    
C13   C99   A    
C77   N6    A    
H21   O23   S    
C48   H33   S    
N14   Ni1   S    
C89   N18   A    
C14   C18   A    
C77   H50   S    
C19   C20   A    
C50   C54   A    
C47   C53   A    
C38   C98   S    
H36   O28   S    
C43   O7    S    
N23   N25   A    
C33   H56   S    
N8    N17   A    
C46   C89   A    
C58   C79   S    
C51   H2    S    
C15   C19   A    
C29   C36   A    
C26   C27   S    
C59   H5    S    
C6    C85   A    
N2    N10   A    
H18   O1    S    
N1    N22   A    
N8    Ni7   S    
N18   N28   A    
C76   N5    A    
N20   Ni8   S    
H42   O7    S    
C79   C93   A    
C41   N28   A    
C24   O22   S    
C84   O13   S    
C9    C88   A    
C4    C65   S    
C27   H26   S    
C95   C99   A    
C7    C86   A    
C62   H8    S    
C78   N7    A    
C94   C98   A    
C53   H4    S    
C40   C49   A    
C89   H9    S    
H30   O27   S    
N28   Ni5   S    
C41   O5    S    
C80   H52   S    
C51   C55   A    
C1    N1    A    
N3    Ni4   S    
N31   Ni8   S    
N2    Ni1   S    
C25   H12   S    
C6    C15   S    
N4    N13   A    
C97   O21   S    
C66   C71   A    
C43   C68   A    
C49   C51   A    
N9    N32   A    
C12   C17   A    
N6    Ni5   S    
C41   C46   A    
C31   C33   A    
H55   O11   S    
N5    Ni6   S    
N20   N30   A    
H54   O10   S    
C85   O14   S    
C28   O24   S    
C4    C74   A    
C35   N27   A    
C7    C77   A    
N21   N31   A    
C48   C50   A    
N26   N27   A    
C49   H35   S    
C28   C34   A    
C59   C60   A    
H58   O14   S    
N16   Ni3   S    
C18   C22   A    
C21   C22   A    
C8    C78   A    
C70   O3    S    
N15   Ni2   S    
N19   Ni5   S    
N29   Ni6   S    
N23   Ni3   S    
N7    Ni8   S    
C44   O8    S    
C21   H16   S    
H63   O19   S    
C61   C66   A    
C42   C57   A    
H62   O18   S    
C2    C64   S    
C78   H51   S    
C23   H22   S    
C63   C67   A    
C42   N29   A    
N11   Ni7   S    
C67   O28   S    
N18   Ni6   S    
C12   C27   S    
C1    O1    S    
C34   C39   A    
C74   H47   S    
C36   C40   A    
N13   Ni8   S    
C80   N8    A    
N12   N24   A    
N24   Ni1   S    
H20   O22   S    
C87   N16   A    
C3    C39   S    
C5    C84   A    
C28   C54   A    
N22   Ni2   S    
C32   H45   S    
C29   C55   A    
C45   C52   A    
C32   C37   A    
C30   C56   A    
C36   H67   S    
C14   C26   S    
C67   C69   A    
C9    C80   A    
C97   N26   A    
C5    C75   A    
N4    Ni3   S    
C94   N22   A    
C42   O6    S    
C72   N32   A    
C65   C70   A    
C83   O11   S    
C11   C16   A    
C3    C97   A    
C88   O17   S    
C82   O10   S    
C3    C35   A    
C16   C20   A    
C81   O9    S    
C46   C54   S    
C74   N3    A    
H64   O20   S    
C93   H13   S    
C64   C69   A    
C30   O26   S    
N25   Ni4   S    
C29   O25   S    
C38   C47   A    
C70   C71   A    
C2    C73   A    
C95   N24   A    
C81   C90   A    
H40   O5    S    
C10   C25   S    
C88   N17   A    
H60   O16   S    
N19   N29   A    
N5    N14   A    
C45   H31   S    
C55   C57   S    
C50   H68   S    
C86   N15   A    
C75   H48   S    
C60   C63   A    
C2    C82   A    
C86   O15   S    
C37   C45   A    
C44   C79   A    
C96   O20   S    
C37   C99   S    
C60   H6    S    
C31   C58   A    
C72   C90   A    
H28   O25   S    
C72   H44   S    
C91   N19   A    
C84   N13   A    
C57   C91   A    
C62   C65   A    
N30   Ni7   S    
C24   C100  A    
C27   H34   S    
H53   O9    S    
C85   N14   A    
C7    C16   S    
C8    C17   S    
C12   C14   A    
C5    C66   S    
H41   O6    S    
C40   C100  S    
C20   H15   S    
C53   C58   A    
C92   N20   A    
C92   H11   S    
C6    C76   A    
N27   Ni4   S    
C93   N21   A    
H39   O4    S    
C13   N12   A    
H29   O26   S    
C73   H46   S    
N12   Ni2   S    
C33   C38   A    
C19   H14   S    
C83   N11   A    
H37   O2    S    
C10   C15   A    
C8    C87   A    
C87   O16   S    
N3    N11   A    
C73   N2    A    
C1    C98   A    
C81   N9    A    
C59   C64   A    
C56   C68   S    
C30   C32   A    
C23   H1    S    
C4    C83   A    
C31   O27   S    
C76   H49   S    
N21   Ni7   S    
H59   O15   S    
N26   Ni3   S    
C96   C100  A    
C63   C90   S    
C11   C23   S    
H27   O24   S    
C68   C92   A    
H57   O13   S    
N9    Ni5   S    
C24   N23   A    
C35   O23   S    
C23   C25   S    
C13   O12   S    
C61   C62   A    
C61   H7    S    
C25   H24   S    
C95   O19   S    
C10   C11   A    
C94   O18   S    
N1    Ni1   S    
H38   O3    S    
C91   H10   S    
H61   O17   S    
C96   N25   A    
C9    C18   S    
C44   N31   A    
N32   Ni2   S    
C71   O4    S    
C26   H23   S    
N10   Ni6   S    
N17   Ni4   S    
C75   N4    A    
C39   C48   A    
C69   O2    S    
C43   N30   A    
C34   H66   S    
N6    N15   A    
C82   N10   A    
C26   H25   S    
H19   O12   S    
C52   C56   A    
C47   H32   S    
H43   O8    S    
N7    N16   A    
C17   C21   A    
