data_mof_unit_25233.cif
_audit_creation_date              2012-12-10T18:23:12-0500
_audit_creation_method            fapswitch 2.2
_symmetry_space_group_name_H-M    P1
_symmetry_Int_Tables_number       1
_space_group_crystal_system       triclinic
_cell_length_a                    15.010072
_cell_length_b                    14.016885
_cell_length_c                    10.497725
_cell_angle_alpha                 90.715497
_cell_angle_beta                  90.158267
_cell_angle_gamma                 90.00417
_cell_volume                      2208.48245918

loop_
_atom_site_label
_atom_site_type_symbol
_atom_type_description
_atom_site_fract_x
_atom_site_fract_y
_atom_site_fract_z
_atom_type_partial_charge
C1    C     C_R   0.326480 0.499991 0.500344 0.899709
C2    C     C_R   0.953738 0.674101 0.499432 -0.177309
C3    C     C_R   0.544607 0.797011 0.407432 0.057622
C4    C     C_R   0.451891 0.203081 0.588876 0.061306
C5    C     C_R   0.454509 0.798779 0.591806 0.049022
C6    C     C_R   0.546966 0.201423 0.409706 0.049859
C7    C     C_R   0.454040 0.899969 0.596277 -0.118023
C8    C     C_R   0.549561 0.100313 0.407225 -0.119637
C9    C     C_R   0.543308 0.897948 0.401247 -0.120020
C10   C     C_R   0.447876 0.102159 0.589496 -0.114777
C11   C     C_R   0.498683 0.949588 0.498647 -0.017294
C12   C     C_R   0.673522 0.499988 0.499653 0.898263
C13   C     C_R   0.498735 0.050594 0.498470 -0.018751
C14   C     C_R   0.408815 0.952231 0.693452 0.310596
C15   C     C_R   0.599445 0.048264 0.314709 0.320428
C16   C     C_R   0.586428 0.947969 0.302006 0.268080
C17   C     C_R   0.396061 0.052128 0.679765 0.277914
C18   C     C_R   0.499956 0.499392 0.257121 0.888937
C19   C     C_R   0.500775 0.500488 0.742910 0.891710
C20   C     C_3   0.430706 0.550160 0.042709 -0.149706
C21   C     C_3   0.571063 0.448989 0.957277 -0.162390
C22   C     C_3   0.507378 0.590474 0.961959 -0.054921
C23   C     C_R   0.953661 0.499901 0.499746 0.062597
C24   C     C_3   0.494482 0.408533 0.038231 -0.088822
C25   C     C_3   0.424802 0.460596 0.956030 -0.175312
C26   C     C_3   0.576973 0.538456 0.044139 -0.164659
C27   C     C_3   0.501344 0.501026 0.877863 -0.041759
C28   C     C_3   0.500351 0.498212 0.122242 -0.024840
C29   C     C_R   0.815201 0.586834 0.498900 -0.225175
C30   C     C_R   0.184828 0.413025 0.501190 -0.208155
C31   C     C_R   0.769403 0.499937 0.499146 -0.090479
C32   C     C_R   0.230601 0.499954 0.500888 -0.090464
C33   C     C_R   0.815167 0.413000 0.499163 -0.211146
C34   C     C_R   0.046345 0.499909 0.500405 0.062069
C35   C     C_R   0.184815 0.586856 0.500869 -0.227797
C36   C     C_R   0.907313 0.412333 0.499563 0.102043
C37   C     C_R   0.092681 0.587485 0.500532 0.110119
C38   C     C_R   0.907336 0.587470 0.499285 0.108284
C39   C     C_R   0.092683 0.412349 0.500883 0.102424
C40   C     C_R   0.953710 0.325702 0.500026 -0.174152
C41   C     C_R   0.046291 0.674109 0.500091 -0.182242
C42   C     C_R   0.046280 0.325710 0.500778 -0.169297
H1    H     H_    0.363013 0.429032 0.915147 0.175663
H2    H     H_    0.220674 0.654049 0.500869 0.173509
H3    H     H_    0.918449 0.258216 0.499866 0.181507
H4    H     H_    0.081541 0.741598 0.500197 0.163866
H5    H     H_    0.081535 0.258230 0.501200 0.180869
H6    H     H_    0.918497 0.741585 0.499080 0.169602
H7    H     H_    0.582520 0.754552 0.340437 0.191820
H8    H     H_    0.418449 0.245724 0.660394 0.196847
H9    H     H_    0.417220 0.757453 0.659380 0.192808
H10   H     H_    0.580342 0.242967 0.338407 0.197716
H11   H     H_    0.360301 0.933303 0.036507 0.387701
H12   H     H_    0.638711 0.570110 0.085051 0.173760
H13   H     H_    0.800985 0.068595 0.116703 0.392447
H14   H     H_    0.554008 0.986734 0.024336 0.384897
H15   H     H_    0.202366 0.010512 0.730766 0.355859
H16   H     H_    0.373672 0.591241 0.082258 0.170400
H17   H     H_    0.628140 0.408077 0.917553 0.169992
H18   H     H_    0.514150 0.664090 0.926387 0.231404
H19   H     H_    0.489257 0.334379 0.073495 0.189102
H20   H     H_    0.779350 0.654023 0.498638 0.176795
H21   H     H_    0.220702 0.345857 0.501368 0.196924
H22   H     H_    0.779285 0.345823 0.499135 0.194990
N1    N     N_R   0.500000 0.750030 0.500000 -0.144530
N2    N     N_R   0.500000 0.249970 0.500000 -0.146966
O1    O     O_R   0.367850 0.580280 0.500030 -0.629436
O2    O     O_2   0.452505 0.825683 0.872767 -0.314263
O3    O     O_3   0.369728 0.973020 0.960325 -0.456577
O4    O     O_2   0.642623 0.158501 0.116825 -0.306814
O5    O     O_2   0.731555 0.178626 0.311240 -0.340883
O6    O     O_3   0.761622 0.030097 0.171526 -0.439638
O7    O     O_2   0.700405 0.837908 0.168958 -0.235583
O8    O     O_2   0.541959 0.812689 0.127367 -0.319807
O9    O     O_3   0.615432 0.961621 0.032159 -0.420034
O10   O     O_2   0.346201 0.164337 0.876305 -0.233811
O11   O     O_2   0.264894 0.184347 0.676517 -0.359812
O12   O     O_R   0.632150 0.419720 0.499970 -0.620232
O13   O     O_3   0.228626 0.036822 0.810443 -0.424196
O14   O     O_R   0.632150 0.580280 0.499970 -0.627990
O15   O     O_R   0.367850 0.419720 0.500030 -0.620353
O16   O     O_R   0.499970 0.580260 0.313950 -0.614523
O17   O     O_R   0.500030 0.419740 0.686050 -0.623529
O18   O     O_R   0.500030 0.580260 0.686050 -0.623600
O19   O     O_R   0.499970 0.419740 0.313950 -0.632882
O20   O     O_2   0.294215 0.841163 0.820377 -0.302593
S1    S     S_3+6 0.380126 0.894782 0.838519 0.049955
S2    S     S_3+6 0.684612 0.107196 0.226640 0.046262
S3    S     S_3+6 0.611828 0.886844 0.156074 0.082539
S4    S     S_3+6 0.308181 0.112634 0.762265 0.068110
Zn1   Zn    Zn3+2 0.500000 0.607200 0.500000 0.973923
Zn2   Zn    Zn3+2 0.500000 0.392800 0.500000 0.974923

loop_
_geom_bond_atom_site_label_1
_geom_bond_atom_site_label_2
_ccdc_geom_bond_type
C30   C32   A    
C21   C26   S    
C8    C13   A    
C34   C37   A    
H15   O13   S    
O4    S2    D    
C25   H1    S    
C3    H7    S    
C7    C11   A    
O17   Zn2   S    
C24   H19   S    
O8    S3    D    
C35   C37   A    
C9    C16   A    
C14   S1    S    
C21   H17   S    
C22   H18   S    
C20   C25   S    
C10   C17   A    
C1    O15   A    
C15   C16   A    
C33   C36   A    
O13   S4    S    
C18   O16   A    
O15   Zn2   S    
C7    C14   A    
C12   O12   A    
C29   C38   A    
C41   H4    S    
C31   C33   A    
O18   Zn1   S    
C19   C27   S    
H13   O6    S    
O3    S1    S    
C40   C42   A    
C21   C27   S    
H11   O3    S    
C16   S3    S    
H14   O9    S    
C30   H21   S    
C14   C17   A    
C3    N1    A    
C19   O17   A    
C26   H12   S    
O6    S2    S    
O19   Zn2   S    
C39   C42   A    
C40   H3    S    
O11   S4    D    
C18   O19   A    
C34   C39   A    
C32   C35   A    
C36   C40   A    
C18   C28   S    
C24   C25   S    
C5    N1    A    
C5    C7    A    
O20   S1    D    
N2    Zn2   S    
C20   C28   S    
O12   Zn2   S    
C1    C32   S    
O16   Zn1   S    
C4    H8    S    
C3    C9    A    
C2    C38   A    
C23   C34   A    
O1    Zn1   S    
C35   H2    S    
C9    C11   A    
C20   C22   S    
C8    C15   A    
C22   C27   S    
C12   C31   S    
C20   H16   S    
C19   O18   A    
N1    Zn1   S    
C29   H20   S    
C17   S4    S    
C24   C28   S    
C10   C13   A    
C6    C8    A    
C25   C27   S    
C23   C38   A    
C26   C28   S    
C2    H6    S    
O14   Zn1   S    
O7    S3    D    
C29   C31   A    
C4    N2    A    
C11   C13   A    
C33   H22   S    
C12   O14   A    
C1    O1    A    
C30   C39   A    
C42   H5    S    
C37   C41   A    
O9    S3    S    
O5    S2    D    
C6    N2    A    
C23   C36   A    
C22   C26   S    
C21   C24   S    
O2    S1    D    
C5    H9    S    
C2    C41   A    
C6    H10   S    
C4    C10   A    
O10   S4    D    
C15   S2    S    
