data_mof_unit_44480.cif
_audit_creation_date              2013-03-05T16:11:36-0500
_audit_creation_method            fapswitch 2.2
_symmetry_space_group_name_H-M    P1
_symmetry_Int_Tables_number       1
_space_group_crystal_system       triclinic
_cell_length_a                    8.476473
_cell_length_b                    16.935075
_cell_length_c                    19.038352
_cell_angle_alpha                 110.973662
_cell_angle_beta                  84.949431
_cell_angle_gamma                 97.100241
_cell_volume                      2529.47941187

loop_
_atom_site_label
_atom_site_type_symbol
_atom_site_description
_atom_site_fract_x
_atom_site_fract_y
_atom_site_fract_z
_atom_type_partial_charge
P1    P     P_3+3 0.571100 0.575270 0.673500 0.166946
O1    O     O_2   0.390320 0.549400 0.679900 -0.313995
O2    O     O_3   0.642260 0.547940 0.592270 -0.407272
O3    O     O_3   0.101430 0.389200 0.608960 -0.369834
O4    O     O_2   0.256718 0.438523 0.734656 -0.504647
O5    O     O_3   0.617724 0.686423 0.714662 -0.643597
O6    O     O_3   0.018939 0.326815 0.728096 -0.511500
H1    H     H_    0.181588 0.256364 0.652186 0.167813
C1    C     C_3   0.989552 0.173526 0.678798 -1.168667
H2    H     H_    0.061204 0.162567 0.719319 0.354699
P2    P     P_3+3 0.077880 0.297790 0.409490 0.149223
P3    P     P_3+3 0.486912 0.232925 0.542435 0.575205
O7    O     O_2   0.246270 0.285030 0.428370 -0.297329
O8    O     O_3   0.502600 0.343750 0.565720 -0.377738
O9    O     O_2   0.347872 0.193312 0.489517 -0.423372
O10   O     O_3   0.046914 0.237985 0.312031 -0.515436
O11   O     O_3   0.432348 0.203253 0.622606 -0.524032
C2    C     C_3   0.496817 0.262026 0.690252 0.111787
H3    H     H_    0.433326 0.319940 0.708269 0.119658
C3    C     C_3   0.479506 0.222809 0.754373 0.206360
C4    C     C_3   0.629197 0.271516 0.332688 0.502772
H4    H     H_    0.756656 0.274898 0.342792 0.094238
H5    H     H_    0.561294 0.298832 0.387013 0.150137
C5    C     C_3   0.560887 0.178933 0.293603 -0.857524
H6    H     H_    0.578846 0.161235 0.231581 0.222344
H7    H     H_    0.430336 0.172655 0.306410 0.322904
Ba1   Ba    Ba6+2 0.331680 0.458770 0.526950 0.634898
C6    C     C_3   0.491808 0.735389 0.723130 0.880361
C7    C     C_3   0.561300 0.830413 0.747341 -0.908786
H8    H     H_    0.614716 0.850202 0.803044 0.197539
H9    H     H_    0.659614 0.839620 0.707714 0.179128
C8    C     C_3   0.108681 0.260082 0.248768 -0.131324
C9    C     C_3   0.115992 0.173518 0.181510 0.378028
H10   H     H_    0.206810 0.140895 0.196716 0.031685
P4    P     P_3+3 0.618570 0.424660 0.326480 0.566665
O12   O     O_2   0.799370 0.450570 0.320050 -0.375073
O13   O     O_3   0.547420 0.451990 0.407710 -0.470115
O14   O     O_3   0.088250 0.610730 0.391020 -0.352819
O15   O     O_3   0.616373 0.314067 0.282894 -0.640438
P5    P     P_3+3 0.699745 0.765487 0.449449 0.462918
O16   O     O_3   0.160890 0.606020 0.554260 -0.362691
O17   O     O_3   0.687070 0.656180 0.434260 -0.417875
O18   O     O_2   0.805371 0.806984 0.517901 -0.394115
O19   O     O_3   0.819218 0.786068 0.376690 -0.387776
Ba2   Ba    Ba6+2 0.858120 0.541160 0.473030 1.367398
P6    P     P_3+3 0.084415 0.419481 0.708122 0.465158
C10   C     C_3   0.052452 0.255468 0.664574 0.532678
H11   H     H_    0.995743 0.255257 0.614168 0.081824
H12   H     H_    0.866053 0.177639 0.703273 0.300446
O20   O     O_3   0.028790 0.393910 0.445720 -0.414414
C11   C     C_3   0.000967 0.779020 0.728235 1.286747
H13   H     H_    0.900572 0.783799 0.697364 -1.101441
C12   C     C_3   0.034980 0.867713 0.789324 -0.957214
H14   H     H_    0.085620 0.914649 0.763355 0.268279
H15   H     H_    0.924318 0.891379 0.821513 0.223251
H16   H     H_    0.123102 0.865867 0.828353 0.255445
P7    P     P_3+3 0.124768 0.716626 0.584450 0.684722
O21   O     O_2   0.943420 0.714940 0.571590 -0.385657
O22   O     O_3   0.143537 0.762170 0.683153 -0.656114
C13   C     C_3   0.726773 0.785046 0.318023 0.159070
H17   H     H_    0.598802 0.763311 0.324837 0.140833
C14   C     C_3   0.737813 0.876192 0.315952 -1.103514
H18   H     H_    0.638582 0.909108 0.351724 0.347593
H19   H     H_    0.850198 0.912461 0.340611 0.360639
P8    P     P_3+3 0.118045 0.600986 0.296045 0.517311
C15   C     C_3   0.247244 0.733168 0.262903 0.995617
O23   O     O_2   0.962246 0.553222 0.258848 -0.223605
O24   O     O_3   0.112390 0.705631 0.299787 -0.559022
H20   H     H_    0.355068 0.706124 0.270414 -0.345877
H21   H     H_    0.393347 0.852206 0.280040 -0.134347
C16   C     C_3   0.276369 0.830046 0.301168 0.512304
H22   H     H_    0.282369 0.845334 0.362908 0.029122
N1    N     N_R   0.716132 0.513610 0.053594 0.091087
N2    N     N_R   0.768870 0.518214 0.986782 -0.023373
C17   C     C_2   0.836306 0.519265 0.712628 0.444302
C18   C     C_3   0.958073 0.510358 0.762419 0.217289
C19   C     C_2   0.883264 0.501759 0.834752 -0.157673
C20   C     C_2   0.728954 0.514618 0.856713 0.277667
C21   C     C_2   0.627568 0.537931 0.805862 -0.350317
C22   C     C_1   0.684902 0.537844 0.736884 0.083150
N3    N     N_R   0.507976 0.495595 0.949191 -0.059122
N4    N     N_R   0.455341 0.490702 0.016131 -0.050279
C23   C     C_R   0.558398 0.498537 0.069912 0.039975
C24   C     C_R   0.666494 0.509395 0.932626 -0.057697
C25   C     C_R   0.580130 0.464277 0.191708 -0.727737
C26   C     C_R   0.523059 0.473261 0.267008 0.724033
C27   C     C_R   0.298109 0.543412 0.251842 0.370203
C28   C     C_R   0.355649 0.534969 0.178307 -0.019119
C29   C     C_R   0.498543 0.498248 0.147386 0.404940
C30   C     C_R   0.379679 0.510598 0.294618 -1.203077
H23   H     H_    0.959629 0.486865 0.870260 0.108415
H24   H     H_    0.289130 0.558182 0.145158 0.070798
C31   C     C_2   0.371727 0.759467 0.478754 -0.201881
C32   C     C_R   0.787516 0.247175 0.474532 -0.822782
C33   C     C_2   0.217279 0.872367 0.561570 0.340301
C34   C     C_2   0.236695 0.788303 0.535692 -0.252577
C35   C     C_2   0.504595 0.812867 0.476849 -0.244939
C36   C     C_3   0.499596 0.906881 0.523641 0.625911
C37   C     C_3   0.327843 0.930520 0.531149 -0.415876
C38   C     C_2   0.623223 0.967610 0.500587 -1.205479
C39   C     C_2   0.591841 0.044096 0.500826 0.337144
C40   C     C_R   0.867060 0.087134 0.456141 -0.036851
C41   C     C_R   0.713232 0.108150 0.484867 -0.008604
C42   C     C_R   0.981544 0.146948 0.440907 -0.278650
C43   C     C_R   0.944154 0.229096 0.451968 0.650408
C44   C     C_R   0.674891 0.190661 0.495208 0.148195
H25   H     H_    0.096490 0.127354 0.416549 0.210534
H26   H     H_    0.374940 0.693177 0.447880 0.138449
H27   H     H_    0.749054 0.304128 0.472630 0.205541
H28   H     H_    0.744437 0.950607 0.488797 0.429111
H29   H     H_    0.471098 0.060894 0.513855 0.147971
C45   C     C_2   0.638906 0.116883 0.315033 0.519141
H30   H     H_    0.767283 0.116418 0.309098 0.119916
O25   O     O_2   0.558377 0.064939 0.337323 -0.532963
C46   C     C_2   0.378827 0.726420 0.786433 0.637239
H31   H     H_    0.413675 0.756372 0.844294 -0.042463
O26   O     O_2   0.250228 0.684459 0.774060 -0.620274
O27   O     O_3   0.415230 0.708472 0.654674 -0.646276
C47   C     C_3   0.522631 0.713850 0.595310 0.149728
H32   H     H_    0.478477 0.665788 0.542689 2.607160
H33   H     H_    0.645587 0.700124 0.598337 0.132807
H34   H     H_    0.530344 0.779016 0.594817 -0.077544
C48   C     C_2   0.439717 0.889365 0.751651 0.751485
H35   H     H_    0.380701 0.883626 0.701565 -0.029792
O28   O     O_2   0.409089 0.945289 0.811191 -0.566315
C49   C     C_2   0.272058 0.303821 0.257163 0.798981
H36   H     H_    0.339603 0.315769 0.210278 0.016312
O29   O     O_2   0.330021 0.327555 0.317392 -0.526554
C50   C     C_2   0.997866 0.313106 0.231942 0.676964
H37   H     H_    0.874527 0.289654 0.224338 0.097436
O30   O     O_2   0.045458 0.380175 0.223161 -0.630613
C51   C     C_2   0.992589 0.098138 0.607607 0.963440
H38   H     H_    0.888428 0.052536 0.593577 -0.001596
O31   O     O_2   0.113565 0.085267 0.567025 -0.534292
C52   C     C_2   0.180971 0.178650 0.105548 0.162355
H39   H     H_    0.228338 0.123355 0.063562 0.168513
O32   O     O_2   0.178508 0.242638 0.090296 -0.539005
O33   O     O_3   0.971541 0.119388 0.179069 -0.659393
C53   C     C_3   0.873180 0.111409 0.120164 0.046766
H40   H     H_    0.922088 0.068796 0.065563 0.161759
H41   H     H_    0.856353 0.173691 0.116362 0.148722
H42   H     H_    0.754423 0.081165 0.130890 0.169778
O34   O     O_3   0.958830 0.711115 0.756203 -0.576659
C54   C     C_3   0.883230 0.735398 0.829062 0.132842
H43   H     H_    0.778511 0.770090 0.832954 0.106830
H44   H     H_    0.968569 0.772511 0.872825 0.140804
H45   H     H_    0.840930 0.677918 0.842347 0.101865
C55   C     C_2   0.573607 0.279961 0.822467 0.675560
H46   H     H_    0.560232 0.347182 0.845430 0.014816
O35   O     O_2   0.665100 0.251375 0.851218 -0.483592
C56   C     C_2   0.791867 0.723621 0.245888 0.728456
H47   H     H_    0.909007 0.738085 0.223081 0.142288
O36   O     O_2   0.712604 0.657858 0.211826 -0.711784
C57   C     C_2   0.727259 0.880451 0.238868 0.487967
H48   H     H_    0.627090 0.847558 0.204992 0.119154
O37   O     O_2   0.831858 0.920747 0.213765 -0.505890
O38   O     O_3   0.214854 0.710435 0.185861 -0.677701
C58   C     C_3   0.352813 0.723174 0.142305 0.140688
H49   H     H_    0.332020 0.685429 0.082263 0.144796
H50   H     H_    0.460091 0.701568 0.156877 0.089618
H51   H     H_    0.374517 0.790939 0.147372 0.187864
O39   O     O_3   0.151667 0.869465 0.286762 -0.575318
C59   C     C_3   0.192843 0.958038 0.311043 -0.461123
H52   H     H_    0.293830 0.973999 0.275493 0.236222
H53   H     H_    0.221399 0.984532 0.371585 0.250183
H54   H     H_    0.090114 0.988942 0.304358 0.303457
C60   C     C_2   0.491957 0.587328 0.843284 0.841169
H55   H     H_    0.381930 0.577208 0.815590 0.061542
O40   O     O_2   0.503218 0.641292 0.906120 -0.806230
C61   C     C_2   0.707793 0.408004 0.157043 1.305592
H56   H     H_    0.695259 0.344380 0.159024 -1.626481
O41   O     O_2   0.829668 0.432278 0.128603 -0.653984
O42   O     O_3   0.892761 0.509234 0.640110 -0.614539
C62   C     C_3   0.817820 0.432390 0.592898 0.542445
H57   H     H_    0.695645 0.428999 0.608683 0.088426
H58   H     H_    0.848361 0.374102 0.598292 -0.024611
H59   H     H_    0.827655 0.430975 0.535361 0.126656
C63   C     C_2   0.299163 0.504327 0.363978 0.902985
H60   H     H_    0.190024 0.462959 0.360944 0.104565
O43   O     O_2   0.344909 0.551053 0.425067 -0.587020
C64   C     C_2   0.095443 0.910202 0.620639 0.269151
H61   H     H_    0.986639 0.873425 0.628631 0.156890
O44   O     O_2   0.116273 0.983890 0.662448 -0.630323
C65   C     C_2   0.668480 0.286645 0.678679 0.480968
H62   H     H_    0.740728 0.241679 0.638667 0.048120
O45   O     O_2   0.726235 0.356283 0.716740 -0.690068
O46   O     O_3   0.314739 0.208604 0.775851 -0.577275
C66   C     C_3   0.250230 0.280668 0.829971 0.151852
H63   H     H_    0.280737 0.338984 0.815814 0.096847
H64   H     H_    0.289302 0.291060 0.887067 0.093990
H65   H     H_    0.118772 0.268614 0.832772 0.196675
O47   O     O_3   0.553910 0.145450 0.726578 -0.652152
C67   C     C_3   0.447084 0.071888 0.700150 0.427204
H66   H     H_    0.371691 0.075477 0.656972 0.177283
H67   H     H_    0.372858 0.061128 0.747557 0.152465
H68   H     H_    0.517090 0.016678 0.673827 -0.012187

loop_
_geom_bond_atom_site_label_1
_geom_bond_atom_site_label_2
_geom_bond_distance
_ccdc_geom_bond_type
C15   O24   1.406597 S    
C27   C28   1.404288 A    
C30   C63   1.464449 S    
C32   C43   1.395381 A    
C38   H28   1.084098 S    
C49   H36   1.084515 S    
C16   O39   1.412361 S    
C17   O42   1.378356 S    
C46   O26   1.217611 D    
N1    N2    1.336462 A    
C48   O28   1.220535 D    
C33   C34   1.355765 D    
C5    C45   1.494733 S    
O3    Ba1   2.801233 S    
P6    C18   1.912504 S    
C63   H60   1.081756 S    
C48   H35   1.083772 S    
C60   O40   1.221194 D    
O3    P6    1.767818 S    
O42   C62   1.401341 S    
O38   C58   1.413025 S    
C66   H65   1.107828 S    
C13   C14   1.549230 S    
C6    C7    1.559347 S    
P4    O13   1.536866 S    
C55   O35   1.221755 D    
C2    H3    1.107405 S    
C31   H26   1.067189 S    
C25   C26   1.432579 A    
C53   H42   1.108401 S    
C33   C37   1.506058 S    
C12   H16   1.109587 S    
C15   H20   1.113065 S    
C61   H56   1.083391 S    
O34   C54   1.415678 S    
C36   C37   1.538404 S    
C64   H61   1.078330 S    
C65   H62   1.073827 S    
C66   H64   1.110990 S    
P1    O1    1.547365 D    
C8    C49   1.480767 S    
C9    C52   1.529812 S    
O27   C47   1.409415 S    
C45   H30   1.084808 S    
O14   Ba2   2.800629 S    
C14   H19   1.110328 S    
C58   H51   1.109885 S    
C62   H57   1.053065 S    
P5    O18   1.545346 D    
O5    C6    1.394844 S    
C59   H52   1.111613 S    
C51   H38   1.082857 S    
C67   H67   1.110429 S    
P7    C34   1.897922 S    
P3    O11   1.778595 S    
P2    C43   1.865026 S    
C10   H11   1.109203 S    
Ba1   O13   2.765004 S    
C56   H47   1.083763 S    
C3    C55   1.531871 S    
P8    C27   1.882243 S    
H21   C16   1.109814 S    
C2    C65   1.482907 S    
O8    Ba1   2.890196 S    
C1    H2    1.100597 S    
C57   O37   1.220449 D    
Ba1   O20   2.995954 S    
Ba1   Ba2   4.716911 S    
C47   H33   1.106204 S    
C39   C41   1.494230 S    
C4    H4    1.104967 S    
C58   H50   1.112233 S    
C54   H45   1.101873 S    
C45   O25   1.219701 D    
C42   C43   1.402756 A    
C35   C36   1.524784 S    
C12   H15   1.109938 S    
C23   C29   1.518471 S    
N2    C24   1.361491 A    
Ba2   O21   2.909371 S    
C11   H13   1.102407 S    
O6    P6    1.757861 S    
C28   H24   1.079721 S    
C52   H39   1.085186 S    
C59   H54   1.108245 S    
C1    H12   1.107587 S    
C5    H6    1.110662 S    
C54   H44   1.109646 S    
C26   C30   1.411655 A    
C64   O44   1.217053 D    
C8    C50   1.502897 S    
C60   H55   1.076824 S    
C25   C29   1.438718 A    
C20   C21   1.528301 S    
C33   C64   1.478185 S    
C1    C51   1.493615 S    
P8    O23   1.546077 D    
C19   C20   1.357221 D    
O2    Ba2   2.765611 S    
N3    N4    1.340308 A    
C14   C57   1.505796 S    
C13   H17   1.113420 S    
P1    O2    1.536891 S    
C13   C56   1.502778 S    
O6    C10   1.407639 S    
P4    O15   1.754479 S    
C17   C18   1.516504 S    
C53   H41   1.109847 S    
C32   C44   1.399986 A    
C7    H8    1.111118 S    
C6    C46   1.511475 S    
P2    O10   1.792250 S    
Ba1   O16   2.901102 S    
C15   C16   1.535985 S    
C4    O15   1.398693 S    
O14   P8    1.754075 S    
P2    Ba1   3.477650 S    
C9    O33   1.429597 S    
C53   H40   1.110991 S    
P8    O24   1.754413 S    
C14   H18   1.106947 S    
C9    H10   1.113790 S    
O12   Ba2   2.819931 S    
C18   C19   1.512188 S    
C40   C42   1.403454 A    
C62   H59   1.083097 S    
C57   H48   1.081428 S    
O1    Ba1   2.819362 S    
C15   O38   1.419683 S    
P3    O8    1.757778 S    
C67   H68   1.107627 S    
C1    C10   1.531008 S    
C31   C34   1.504793 S    
C36   C38   1.524544 S    
N4    C23   1.364067 A    
C4    H5    1.110624 S    
C58   H49   1.109452 S    
C27   C30   1.402925 A    
C11   O22   1.416274 S    
O13   Ba2   3.002012 S    
P4    Ba2   3.444786 S    
C31   C35   1.360907 D    
P5    C35   1.878513 S    
N3    C24   1.363842 A    
O39   C59   1.409990 S    
C17   C22   1.360430 D    
C47   H34   1.100795 S    
C52   O32   1.221033 D    
C19   H23   1.085864 S    
C49   O29   1.199263 D    
C59   H53   1.113773 S    
O7    Ba1   2.909146 S    
C5    H7    1.112342 S    
C54   H43   1.106687 S    
C3    O47   1.429442 S    
C63   O43   1.214033 D    
C47   H32   1.101454 S    
C12   H14   1.104585 S    
C11   O34   1.427183 S    
O10   C8    1.424072 S    
O4    P6    1.545690 D    
C32   H27   1.068958 S    
C25   C61   1.481117 S    
O11   C2    1.421163 S    
O47   C67   1.406309 S    
O2    Ba1   3.001147 S    
P3    O9    1.543964 D    
C50   H37   1.074502 S    
H1    C10   1.098648 S    
O16   P7    1.809082 S    
O46   C66   1.419717 S    
C7    H9    1.108761 S    
P2    O20   1.616098 S    
C6    O27   1.406491 S    
C8    C9    1.567555 S    
C3    O46   1.436135 S    
P3    C44   1.851652 S    
P2    O7    1.560584 D    
P7    O21   1.572937 D    
C61   O41   1.218708 D    
Ba2   O20   2.900505 S    
O19   C13   1.413791 S    
C39   H29   1.080149 S    
C7    C48   1.498806 S    
P5    O17   1.759231 S    
C38   C39   1.352524 D    
P4    C26   1.899504 S    
C65   O45   1.209753 D    
C41   C44   1.414567 A    
C2    C3    1.574068 S    
C55   H46   1.080200 S    
C56   O36   1.219421 D    
C40   C41   1.405636 A    
C62   H58   1.091964 S    
P7    O22   1.770908 S    
O33   C53   1.413993 S    
C11   C12   1.547023 S    
C21   C22   1.359112 D    
C20   C24   1.523838 S    
P5    O19   1.754207 S    
C16   H22   1.113836 S    
C28   C29   1.413852 A    
C51   O31   1.221138 D    
C67   H66   1.107120 S    
C4    C5    1.537366 S    
P1    O5    1.768694 S    
P1    Ba1   3.444137 S    
P1    C22   1.921468 S    
O16   Ba2   2.995085 S    
C66   H63   1.109050 S    
P4    O12   1.547707 D    
C21   C60   1.481760 S    
N1    C23   1.359631 A    
O17   Ba2   2.890864 S    
C42   H25   1.079216 S    
C46   H31   1.085477 S    
C50   O30   1.221295 D    
