data_mof_unit_65330.cif
_audit_creation_date              2012-12-10T17:48:27-0500
_audit_creation_method            fapswitch 2.2
_symmetry_space_group_name_H-M    P1
_symmetry_Int_Tables_number       1
_space_group_crystal_system       monoclinic
_cell_length_a                    25.89329
_cell_length_b                    27.72302
_cell_length_c                    27.725338
_cell_angle_alpha                 90.0
_cell_angle_beta                  90.0
_cell_angle_gamma                 90.042804
_cell_volume                      19902.356525

loop_
_atom_site_label
_atom_site_type_symbol
_atom_type_description
_atom_site_fract_x
_atom_site_fract_y
_atom_site_fract_z
_atom_type_partial_charge
C1    C     C_R   0.391558 0.000593 0.249578 0.816341
C2    C     C_R   0.891558 0.000593 0.250422 0.816341
C3    C     C_R   0.750003 0.999993 0.620766 0.815508
C4    C     C_R   0.749995 0.499996 0.379243 0.815055
C5    C     C_R   0.749995 0.499996 0.620757 0.815055
C6    C     C_R   0.250003 0.499993 0.379234 0.815508
C7    C     C_R   0.250003 0.499993 0.620766 0.815508
C8    C     C_R   0.749995 0.999996 0.879243 0.815055
C9    C     C_R   0.749995 0.999996 0.120757 0.815055
C10   C     C_R   0.250003 0.999993 0.879234 0.815508
C11   C     C_R   0.250003 0.999993 0.120766 0.815508
C12   C     C_R   0.249995 0.499996 0.879243 0.815055
C13   C     C_R   0.108487 0.000624 0.749454 0.782538
C14   C     C_R   0.249995 0.499996 0.120757 0.815055
C15   C     C_R   0.750003 0.499993 0.879234 0.815508
C16   C     C_R   0.750003 0.499993 0.120766 0.815508
C17   C     C_R   0.250003 0.129234 0.250017 0.815353
C18   C     C_R   0.250003 0.129234 0.749983 0.815353
C19   C     C_R   0.750003 0.129234 0.249983 0.815353
C20   C     C_R   0.750003 0.129234 0.750017 0.815353
C21   C     C_R   0.750003 0.629234 0.250017 0.815353
C22   C     C_R   0.750003 0.629234 0.749983 0.815353
C23   C     C_R   0.250003 0.629234 0.249983 0.815353
C24   C     C_R   0.108487 0.000624 0.250546 0.782538
C25   C     C_R   0.250003 0.629234 0.750017 0.815353
C26   C     C_R   0.249994 0.870729 0.250007 0.816847
C27   C     C_R   0.249994 0.870729 0.749993 0.816847
C28   C     C_R   0.749994 0.870729 0.249993 0.816847
C29   C     C_R   0.749994 0.870729 0.750007 0.816847
C30   C     C_R   0.749994 0.370729 0.250007 0.816847
C31   C     C_R   0.749994 0.370729 0.749993 0.816847
C32   C     C_R   0.249994 0.370729 0.249993 0.816847
C33   C     C_R   0.249994 0.370729 0.750007 0.816847
C34   C     C_1   0.249988 0.818943 0.250009 -0.150470
C35   C     C_R   0.391558 0.500593 0.749578 0.816341
C36   C     C_1   0.249988 0.818943 0.749991 -0.150470
C37   C     C_1   0.749988 0.818943 0.249991 -0.150470
C38   C     C_1   0.749988 0.818943 0.750009 -0.150470
C39   C     C_1   0.749988 0.318943 0.250009 -0.150470
C40   C     C_1   0.749988 0.318943 0.749991 -0.150470
C41   C     C_1   0.249988 0.318943 0.249991 -0.150470
C42   C     C_1   0.249988 0.318943 0.750009 -0.150470
C43   C     C_1   0.250005 0.775444 0.249989 -0.003394
C44   C     C_1   0.250005 0.775444 0.750011 -0.003394
C45   C     C_1   0.750005 0.775444 0.250011 -0.003394
C46   C     C_R   0.391558 0.500593 0.250422 0.816341
C47   C     C_1   0.750005 0.775444 0.749988 -0.003394
C48   C     C_1   0.750005 0.275444 0.249989 -0.003394
C49   C     C_1   0.750005 0.275444 0.750011 -0.003394
C50   C     C_1   0.250005 0.275444 0.250011 -0.003394
C51   C     C_1   0.250005 0.275444 0.749988 -0.003394
C52   C     C_1   0.250024 0.724499 0.249965 -0.005339
C53   C     C_1   0.250024 0.724499 0.750035 -0.005339
C54   C     C_1   0.750024 0.724499 0.250035 -0.005339
C55   C     C_1   0.750024 0.724499 0.749965 -0.005339
C56   C     C_1   0.750024 0.224499 0.249965 -0.005339
C57   C     C_R   0.608487 0.500624 0.749454 0.782538
C58   C     C_1   0.750024 0.224499 0.750035 -0.005339
C59   C     C_1   0.250024 0.224499 0.250035 -0.005339
C60   C     C_1   0.250024 0.224499 0.749965 -0.005339
C61   C     C_1   0.250023 0.681006 0.249962 -0.160357
C62   C     C_1   0.250023 0.681006 0.750038 -0.160357
C63   C     C_1   0.750023 0.681006 0.250038 -0.160357
C64   C     C_1   0.750023 0.681006 0.749962 -0.160357
C65   C     C_1   0.750023 0.181006 0.249962 -0.160357
C66   C     C_1   0.750023 0.181006 0.750038 -0.160357
C67   C     C_1   0.250023 0.181006 0.250038 -0.160357
C68   C     C_R   0.608487 0.500624 0.250546 0.782538
C69   C     C_1   0.250023 0.181006 0.749962 -0.160357
C70   C     C_3   0.030124 0.954589 0.227886 -0.484580
C71   C     C_3   0.030124 0.954589 0.772114 -0.484580
C72   C     C_3   0.970343 0.954834 0.227554 -0.512372
C73   C     C_3   0.970343 0.954834 0.772446 -0.512372
C74   C     C_3   0.530124 0.454589 0.227886 -0.484580
C75   C     C_3   0.530124 0.454589 0.772114 -0.484580
C76   C     C_3   0.470343 0.454834 0.227554 -0.512372
C77   C     C_3   0.470343 0.454834 0.772446 -0.512372
C78   C     C_3   0.530124 0.954589 0.727886 -0.484580
C79   C     C_3   0.029466 0.002692 0.303537 -0.428334
C80   C     C_3   0.530124 0.954589 0.272114 -0.484580
C81   C     C_3   0.470343 0.954834 0.727554 -0.512372
C82   C     C_3   0.470343 0.954834 0.272446 -0.512372
C83   C     C_3   0.030124 0.454589 0.727886 -0.484580
C84   C     C_3   0.030124 0.454589 0.272114 -0.484580
C85   C     C_3   0.970343 0.454834 0.727554 -0.512372
C86   C     C_3   0.970343 0.454834 0.272446 -0.512372
C87   C     C_3   0.059466 0.108248 0.271727 0.188184
C88   C     C_3   0.073019 0.161603 0.269938 -0.832121
C89   C     C_3   0.059466 0.108248 0.728273 0.188184
C90   C     C_3   0.029466 0.002692 0.696463 -0.428334
C91   C     C_3   0.073019 0.161603 0.730062 -0.832121
C92   C     C_3   0.937275 0.123723 0.206212 0.149756
C93   C     C_3   0.916410 0.168889 0.230459 -0.819291
C94   C     C_3   0.937275 0.123723 0.793787 0.149756
C95   C     C_3   0.916410 0.168889 0.769541 -0.819291
C96   C     C_3   0.559466 0.608248 0.271727 0.188184
C97   C     C_3   0.573019 0.661603 0.269938 -0.832121
C98   C     C_3   0.559466 0.608248 0.728273 0.188184
C99   C     C_3   0.573019 0.661603 0.730062 -0.832121
C100  C     C_3   0.437275 0.623723 0.206212 0.149756
C101  C     C_3   0.969933 0.005635 0.303082 -0.388141
C102  C     C_3   0.416410 0.668889 0.230459 -0.819291
C103  C     C_3   0.437275 0.623723 0.793787 0.149756
C104  C     C_3   0.416410 0.668889 0.769541 -0.819291
C105  C     C_3   0.559466 0.108248 0.771727 0.188184
C106  C     C_3   0.573019 0.161603 0.769938 -0.832121
C107  C     C_3   0.559466 0.108248 0.228273 0.188184
C108  C     C_3   0.573019 0.161603 0.230062 -0.832121
C109  C     C_3   0.437275 0.123723 0.706213 0.149756
C110  C     C_3   0.416410 0.168889 0.730459 -0.819291
C111  C     C_3   0.437275 0.123723 0.293787 0.149756
C112  C     C_R   0.391558 0.000593 0.750422 0.816341
C113  C     C_3   0.969933 0.005634 0.696918 -0.388141
C114  C     C_3   0.416410 0.168889 0.269541 -0.819291
C115  C     C_3   0.059466 0.608248 0.771727 0.188184
C116  C     C_3   0.073019 0.661603 0.769938 -0.832121
C117  C     C_3   0.059466 0.608248 0.228273 0.188184
C118  C     C_3   0.073019 0.661603 0.230062 -0.832120
C119  C     C_3   0.937275 0.623723 0.706213 0.149756
C120  C     C_3   0.916410 0.668889 0.730459 -0.819291
C121  C     C_3   0.937275 0.623723 0.293787 0.149756
C122  C     C_3   0.916410 0.668889 0.269541 -0.819291
C123  C     C_3   0.529466 0.502692 0.303537 -0.428334
C124  C     C_3   0.529466 0.502692 0.696463 -0.428334
C125  C     C_3   0.469933 0.505634 0.303082 -0.388141
C126  C     C_3   0.469933 0.505635 0.696918 -0.388141
C127  C     C_3   0.529466 0.002692 0.803536 -0.428334
C128  C     C_3   0.529466 0.002692 0.196463 -0.428334
C129  C     C_3   0.469933 0.005634 0.803082 -0.388141
C130  C     C_3   0.469933 0.005634 0.196917 -0.388141
C131  C     C_3   0.029466 0.502692 0.803536 -0.428334
C132  C     C_R   0.608487 0.000624 0.249454 0.782538
C133  C     C_3   0.029466 0.502692 0.196463 -0.428334
C134  C     C_3   0.969933 0.505635 0.803082 -0.388141
C135  C     C_3   0.969933 0.505634 0.196917 -0.388141
C136  C     C_3   0.029285 0.044977 0.219832 0.312797
C137  C     C_3   0.029285 0.044977 0.780168 0.312797
C138  C     C_3   0.969348 0.046236 0.221096 0.294931
C139  C     C_3   0.969348 0.046236 0.778904 0.294931
C140  C     C_3   0.529285 0.544977 0.219832 0.312797
C141  C     C_3   0.529285 0.544977 0.780168 0.312797
C142  C     C_3   0.469348 0.546236 0.221096 0.294931
C143  C     C_R   0.608487 0.000624 0.750546 0.782538
C144  C     C_3   0.469348 0.546236 0.778904 0.294931
C145  C     C_3   0.529285 0.044977 0.719832 0.312797
C146  C     C_3   0.529285 0.044977 0.280168 0.312797
C147  C     C_3   0.469348 0.046236 0.721096 0.294931
C148  C     C_3   0.469348 0.046236 0.278904 0.294931
C149  C     C_3   0.029285 0.544977 0.719832 0.312797
C150  C     C_3   0.029285 0.544977 0.280168 0.312797
C151  C     C_3   0.969348 0.546236 0.721096 0.294931
C152  C     C_3   0.969348 0.546236 0.278904 0.294931
C153  C     C_3   0.050983 0.001827 0.251043 0.030162
C154  C     C_R   0.891558 0.500593 0.249578 0.816341
C155  C     C_3   0.050983 0.001827 0.748957 0.030162
C156  C     C_3   0.949171 0.001946 0.250631 0.081116
C157  C     C_3   0.949171 0.001946 0.749369 0.081116
C158  C     C_3   0.550983 0.501827 0.251043 0.030162
C159  C     C_3   0.550983 0.501827 0.748957 0.030162
C160  C     C_3   0.449171 0.501946 0.250631 0.081116
C161  C     C_3   0.449171 0.501946 0.749369 0.081116
C162  C     C_3   0.550983 0.001827 0.751043 0.030162
C163  C     C_3   0.550983 0.001827 0.248957 0.030162
C164  C     C_3   0.449171 0.001946 0.750631 0.081116
C165  C     C_R   0.891558 0.500593 0.750422 0.816341
C166  C     C_3   0.449171 0.001946 0.249369 0.081116
C167  C     C_3   0.050983 0.501827 0.751043 0.030162
C168  C     C_3   0.050983 0.501827 0.248957 0.030162
C169  C     C_3   0.949171 0.501946 0.750631 0.081116
C170  C     C_3   0.949171 0.501946 0.249369 0.081116
C171  C     C_1   0.250005 0.999997 0.068977 -0.148735
C172  C     C_1   0.250005 0.999997 0.931023 -0.148735
C173  C     C_1   0.749990 0.000004 0.068973 -0.152953
C174  C     C_1   0.749990 0.000004 0.931027 -0.152954
C175  C     C_1   0.750005 0.499997 0.068977 -0.148735
C176  C     C_R   0.108487 0.500624 0.249454 0.782538
C177  C     C_1   0.750005 0.499997 0.931023 -0.148735
C178  C     C_1   0.249990 0.500004 0.068973 -0.152953
C179  C     C_1   0.249990 0.500004 0.931027 -0.152954
C180  C     C_1   0.750005 0.999997 0.568977 -0.148735
C181  C     C_1   0.750005 0.999997 0.431023 -0.148735
C182  C     C_1   0.249990 0.000004 0.568973 -0.152953
C183  C     C_1   0.249990 0.000004 0.431027 -0.152954
C184  C     C_1   0.250005 0.499997 0.568977 -0.148735
C185  C     C_1   0.250005 0.499997 0.431023 -0.148735
C186  C     C_1   0.749990 0.500004 0.568973 -0.152953
C187  C     C_R   0.108487 0.500624 0.750546 0.782538
C188  C     C_1   0.749990 0.500004 0.431027 -0.152954
C189  C     C_1   0.250007 0.999999 0.025476 -0.003356
C190  C     C_1   0.250007 0.999999 0.974523 -0.003356
C191  C     C_1   0.749988 0.000009 0.025475 -0.006762
C192  C     C_1   0.749988 0.000010 0.974525 -0.006762
C193  C     C_1   0.750007 0.499999 0.025476 -0.003356
C194  C     C_1   0.750007 0.499999 0.974523 -0.003356
C195  C     C_1   0.249988 0.500009 0.025475 -0.006762
C196  C     C_1   0.249988 0.500009 0.974525 -0.006762
C197  C     C_1   0.750007 0.999999 0.525477 -0.003356
C198  C     C_R   0.891558 0.000593 0.749578 0.816341
C199  C     C_1   0.750007 0.999999 0.474523 -0.003356
C200  C     C_1   0.249988 0.000009 0.525474 -0.006762
C201  C     C_1   0.249988 0.000010 0.474525 -0.006762
C202  C     C_1   0.250007 0.499999 0.525477 -0.003356
C203  C     C_1   0.250007 0.499999 0.474523 -0.003356
C204  C     C_1   0.749988 0.500010 0.525474 -0.006762
C205  C     C_1   0.749988 0.500009 0.474525 -0.006762
C206  C     C_R   0.249995 0.999996 0.379243 0.815055
C207  C     C_R   0.249995 0.999996 0.620757 0.815055
C208  C     C_R   0.750003 0.999993 0.379234 0.815508
H1    H     H_    0.044094 0.922554 0.248279 0.212445
H2    H     H_    0.544094 0.922554 0.251721 0.212445
H3    H     H_    0.881117 0.159971 0.748566 0.260436
H4    H     H_    0.592303 0.589615 0.289418 0.110271
H5    H     H_    0.523833 0.604336 0.293564 0.176505
H6    H     H_    0.541899 0.682027 0.251493 0.255867
H7    H     H_    0.577644 0.675802 0.307142 0.196888
H8    H     H_    0.609805 0.666897 0.249988 0.265216
H9    H     H_    0.523833 0.604336 0.706436 0.176505
H10   H     H_    0.592303 0.589615 0.710582 0.110271
H11   H     H_    0.609805 0.666897 0.750012 0.265216
H12   H     H_    0.577644 0.675802 0.692858 0.196888
H13   H     H_    0.455864 0.922896 0.747796 0.213381
H14   H     H_    0.541899 0.682027 0.748507 0.255867
H15   H     H_    0.406535 0.609403 0.182041 0.157144
H16   H     H_    0.471709 0.633675 0.184349 0.164636
H17   H     H_    0.445844 0.684233 0.255209 0.247842
H18   H     H_    0.406480 0.696248 0.202724 0.207626
H19   H     H_    0.381117 0.659971 0.251434 0.260436
H20   H     H_    0.471709 0.633675 0.815651 0.164636
H21   H     H_    0.406536 0.609403 0.817959 0.157144
H22   H     H_    0.406480 0.696248 0.797276 0.207626
H23   H     H_    0.445844 0.684233 0.744791 0.247842
H24   H     H_    0.455864 0.922896 0.252204 0.213381
H25   H     H_    0.381117 0.659971 0.748566 0.260436
H26   H     H_    0.592303 0.089615 0.789418 0.110271
H27   H     H_    0.523833 0.104336 0.793563 0.176505
H28   H     H_    0.541899 0.182027 0.751493 0.255867
H29   H     H_    0.577644 0.175801 0.807142 0.196888
H30   H     H_    0.609805 0.166897 0.749988 0.265216
H31   H     H_    0.523833 0.104336 0.206436 0.176505
H32   H     H_    0.592303 0.089615 0.210582 0.110271
H33   H     H_    0.609805 0.166897 0.250012 0.265216
H34   H     H_    0.577644 0.175801 0.192858 0.196888
H35   H     H_    0.044094 0.422554 0.748279 0.212445
H36   H     H_    0.541899 0.182027 0.248507 0.255867
H37   H     H_    0.406535 0.109403 0.682041 0.157144
H38   H     H_    0.471709 0.133675 0.684349 0.164636
H39   H     H_    0.445844 0.184233 0.755209 0.247842
H40   H     H_    0.406480 0.196248 0.702724 0.207626
H41   H     H_    0.381117 0.159971 0.751434 0.260436
H42   H     H_    0.471709 0.133675 0.315651 0.164636
H43   H     H_    0.406535 0.109403 0.317959 0.157144
H44   H     H_    0.406480 0.196248 0.297276 0.207626
H45   H     H_    0.445844 0.184233 0.244791 0.247842
H46   H     H_    0.044094 0.422554 0.251721 0.212445
H47   H     H_    0.381117 0.159971 0.248566 0.260436
H48   H     H_    0.092303 0.589615 0.789418 0.110271
H49   H     H_    0.023833 0.604336 0.793563 0.176505
H50   H     H_    0.041899 0.682027 0.751493 0.255867
H51   H     H_    0.077644 0.675802 0.807142 0.196888
H52   H     H_    0.109805 0.666897 0.749988 0.265216
H53   H     H_    0.023833 0.604336 0.206436 0.176505
H54   H     H_    0.092303 0.589615 0.210582 0.110271
H55   H     H_    0.109805 0.666897 0.250012 0.265216
H56   H     H_    0.077644 0.675801 0.192857 0.196888
H57   H     H_    0.955864 0.422896 0.747796 0.213381
H58   H     H_    0.041899 0.682027 0.248507 0.255867
H59   H     H_    0.906536 0.609403 0.682041 0.157144
H60   H     H_    0.971708 0.633675 0.684349 0.164636
H61   H     H_    0.945844 0.684233 0.755209 0.247842
H62   H     H_    0.906479 0.696248 0.702724 0.207626
H63   H     H_    0.881117 0.659971 0.751434 0.260436
H64   H     H_    0.971708 0.633675 0.315651 0.164636
H65   H     H_    0.906536 0.609403 0.317959 0.157145
H66   H     H_    0.906479 0.696248 0.297276 0.207626
H67   H     H_    0.945844 0.684233 0.244791 0.247842
H68   H     H_    0.955864 0.422896 0.252204 0.213381
H69   H     H_    0.881117 0.659971 0.248566 0.260436
H70   H     H_    0.044742 0.950695 0.190329 0.162794
H71   H     H_    0.044742 0.950695 0.809671 0.162794
H72   H     H_    0.956222 0.951482 0.189788 0.164029
H73   H     H_    0.044094 0.922554 0.751721 0.212445
H74   H     H_    0.956222 0.951482 0.810212 0.164029
H75   H     H_    0.544742 0.450695 0.190329 0.162794
H76   H     H_    0.544742 0.450695 0.809671 0.162794
H77   H     H_    0.456222 0.451482 0.189788 0.164029
H78   H     H_    0.456222 0.451482 0.810212 0.164029
H79   H     H_    0.544742 0.950695 0.690329 0.162794
H80   H     H_    0.544742 0.950695 0.309671 0.162794
H81   H     H_    0.456222 0.951482 0.689788 0.164029
H82   H     H_    0.456222 0.951482 0.310212 0.164029
H83   H     H_    0.044742 0.450695 0.690329 0.162794
H84   H     H_    0.955864 0.922896 0.247796 0.213381
H85   H     H_    0.044742 0.450695 0.309671 0.162794
H86   H     H_    0.956222 0.451482 0.689788 0.164029
H87   H     H_    0.956222 0.451482 0.310212 0.164029
H88   H     H_    0.040986 0.968904 0.322386 0.207766
H89   H     H_    0.040986 0.968904 0.677614 0.207766
H90   H     H_    0.954065 0.975793 0.325489 0.189842
H91   H     H_    0.954065 0.975793 0.674511 0.189842
H92   H     H_    0.540986 0.468904 0.322386 0.207766
H93   H     H_    0.540986 0.468904 0.677614 0.207766
H94   H     H_    0.454065 0.475793 0.325489 0.189842
H95   H     H_    0.955864 0.922896 0.752204 0.213381
H96   H     H_    0.454065 0.475793 0.674511 0.189842
H97   H     H_    0.540986 0.968904 0.822386 0.207766
H98   H     H_    0.540986 0.968904 0.177614 0.207766
H99   H     H_    0.454065 0.975793 0.825489 0.189842
H100  H     H_    0.454065 0.975793 0.174511 0.189842
H101  H     H_    0.040986 0.468904 0.822386 0.207766
H102  H     H_    0.040986 0.468904 0.177614 0.207766
H103  H     H_    0.954065 0.475793 0.825489 0.189842
H104  H     H_    0.954065 0.475793 0.174511 0.189842
H105  H     H_    0.038695 0.034697 0.181972 0.078387
H106  H     H_    0.544094 0.422554 0.248279 0.212445
H107  H     H_    0.038695 0.034697 0.818028 0.078387
H108  H     H_    0.955163 0.041314 0.183229 0.015725
H109  H     H_    0.955163 0.041314 0.816771 0.015725
H110  H     H_    0.538695 0.534697 0.181972 0.078387
H111  H     H_    0.538695 0.534697 0.818028 0.078387
H112  H     H_    0.455163 0.541314 0.183229 0.015725
H113  H     H_    0.455163 0.541314 0.816771 0.015725
H114  H     H_    0.538695 0.034697 0.681972 0.078387
H115  H     H_    0.538695 0.034697 0.318028 0.078387
H116  H     H_    0.455163 0.041314 0.683229 0.015725
H117  H     H_    0.544094 0.422554 0.751721 0.212445
H118  H     H_    0.455163 0.041314 0.316771 0.015725
H119  H     H_    0.038695 0.534697 0.681972 0.078387
H120  H     H_    0.038695 0.534697 0.318028 0.078387
H121  H     H_    0.955163 0.541314 0.683229 0.015725
H122  H     H_    0.955163 0.541315 0.316771 0.015725
H123  H     H_    0.045914 0.031942 0.325873 0.133748
H124  H     H_    0.045914 0.031942 0.674127 0.133748
H125  H     H_    0.957194 0.039990 0.320013 0.190340
H126  H     H_    0.957194 0.039990 0.679987 0.190340
H127  H     H_    0.545914 0.531942 0.325873 0.133748
H128  H     H_    0.455864 0.422896 0.247796 0.213381
H129  H     H_    0.545914 0.531942 0.674127 0.133748
H130  H     H_    0.457194 0.539990 0.320013 0.190340
H131  H     H_    0.457194 0.539990 0.679987 0.190340
H132  H     H_    0.545914 0.031942 0.825873 0.133748
H133  H     H_    0.545914 0.031942 0.174127 0.133748
H134  H     H_    0.457194 0.039990 0.820013 0.190340
H135  H     H_    0.457194 0.039990 0.179987 0.190340
H136  H     H_    0.045914 0.531942 0.825873 0.133748
H137  H     H_    0.045914 0.531942 0.174127 0.133748
H138  H     H_    0.957194 0.539990 0.820013 0.190340
H139  H     H_    0.455864 0.422896 0.752204 0.213381
H140  H     H_    0.957194 0.539990 0.179987 0.190340
H141  H     H_    0.092303 0.089615 0.289418 0.110271
H142  H     H_    0.023833 0.104336 0.293564 0.176505
H143  H     H_    0.041899 0.182027 0.251493 0.255867
H144  H     H_    0.077644 0.175801 0.307142 0.196888
H145  H     H_    0.109805 0.166897 0.249988 0.265216
H146  H     H_    0.023833 0.104336 0.706436 0.176505
H147  H     H_    0.092303 0.089615 0.710582 0.110271
H148  H     H_    0.109805 0.166897 0.750012 0.265216
H149  H     H_    0.077644 0.175801 0.692858 0.196888
H150  H     H_    0.544094 0.922554 0.748279 0.212445
H151  H     H_    0.041899 0.182027 0.748507 0.255867
H152  H     H_    0.906536 0.109403 0.182041 0.157144
H153  H     H_    0.971708 0.133675 0.184349 0.164636
H154  H     H_    0.945844 0.184233 0.255209 0.247842
H155  H     H_    0.906479 0.196248 0.202724 0.207626
H156  H     H_    0.881117 0.159971 0.251434 0.260436
H157  H     H_    0.971708 0.133675 0.815651 0.164636
H158  H     H_    0.906536 0.109403 0.817959 0.157144
H159  H     H_    0.906479 0.196248 0.797276 0.207626
H160  H     H_    0.945844 0.184233 0.744791 0.247842
O1    O     O_3   0.250000 0.999990 0.250000 -0.478266
O2    O     O_R   0.366860 0.972110 0.777870 -0.652591
O3    O     O_R   0.133150 0.027840 0.222150 -0.614058
O4    O     O_R   0.366850 0.527840 0.777850 -0.641292
O5    O     O_R   0.366850 0.527840 0.222150 -0.641292
O6    O     O_R   0.633150 0.527840 0.777850 -0.614058
O7    O     O_R   0.633150 0.527840 0.222150 -0.614058
O8    O     O_3   0.053206 0.091243 0.224110 -0.589917
O9    O     O_3   0.053206 0.091243 0.775890 -0.589917
O10   O     O_3   0.950503 0.089625 0.242022 -0.614085
O11   O     O_3   0.950503 0.089625 0.757978 -0.614086
O12   O     O_3   0.553206 0.591243 0.224110 -0.589917
O13   O     O_R   0.633140 0.972110 0.222130 -0.649931
O14   O     O_3   0.553206 0.591243 0.775890 -0.589917
O15   O     O_3   0.450503 0.589625 0.242022 -0.614086
O16   O     O_3   0.450503 0.589625 0.757978 -0.614086
O17   O     O_3   0.553206 0.091243 0.724110 -0.589917
O18   O     O_3   0.553206 0.091243 0.275890 -0.589917
O19   O     O_3   0.450503 0.089625 0.742022 -0.614085
O20   O     O_3   0.450503 0.089625 0.257978 -0.614086
O21   O     O_3   0.053206 0.591243 0.724110 -0.589917
O22   O     O_3   0.053206 0.591243 0.275890 -0.589917
O23   O     O_3   0.950503 0.589625 0.742022 -0.614086
O24   O     O_R   0.633140 0.972110 0.777870 -0.649931
O25   O     O_3   0.950503 0.589625 0.257978 -0.614085
O26   O     O_R   0.866860 0.472110 0.222130 -0.652591
O27   O     O_R   0.866860 0.472110 0.777870 -0.652591
O28   O     O_R   0.133140 0.472110 0.222130 -0.649931
O29   O     O_R   0.133140 0.472110 0.777870 -0.649931
O30   O     O_R   0.866860 0.972110 0.722130 -0.652591
O31   O     O_R   0.866860 0.972110 0.277870 -0.652591
O32   O     O_R   0.133140 0.972110 0.722130 -0.649931
O33   O     O_3   0.250000 0.999990 0.750000 -0.478266
O34   O     O_R   0.133140 0.972110 0.277870 -0.649931
O35   O     O_R   0.366860 0.472110 0.722130 -0.652591
O36   O     O_R   0.366860 0.472110 0.277870 -0.652591
O37   O     O_R   0.633140 0.472110 0.722130 -0.649931
O38   O     O_R   0.633140 0.472110 0.277870 -0.649931
O39   O     O_R   0.280630 0.027850 0.356260 -0.643434
O40   O     O_R   0.280630 0.027850 0.643740 -0.643434
O41   O     O_R   0.719370 0.027850 0.356260 -0.632022
O42   O     O_R   0.719370 0.027850 0.643740 -0.632022
O43   O     O_R   0.780630 0.527850 0.356260 -0.643434
O44   O     O_3   0.750000 0.999990 0.250000 -0.478266
O45   O     O_R   0.780630 0.527850 0.643740 -0.643434
O46   O     O_R   0.219370 0.527850 0.356260 -0.632022
O47   O     O_R   0.219370 0.527850 0.643740 -0.632022
O48   O     O_R   0.780630 0.027850 0.856260 -0.643434
O49   O     O_R   0.780630 0.027850 0.143740 -0.643434
O50   O     O_R   0.219370 0.027850 0.856260 -0.632022
O51   O     O_R   0.219370 0.027850 0.143740 -0.632022
O52   O     O_R   0.280630 0.527850 0.856260 -0.643434
O53   O     O_R   0.280630 0.527850 0.143740 -0.643434
O54   O     O_R   0.719370 0.527850 0.856260 -0.632022
O55   O     O_3   0.750000 0.999990 0.750000 -0.478266
O56   O     O_R   0.719370 0.527850 0.143740 -0.632022
O57   O     O_R   0.280630 0.106260 0.277850 -0.640531
O58   O     O_R   0.280630 0.106260 0.722150 -0.640531
O59   O     O_R   0.719370 0.106260 0.277850 -0.625300
O60   O     O_R   0.719370 0.106260 0.722150 -0.625300
O61   O     O_R   0.780630 0.606260 0.277850 -0.640531
O62   O     O_R   0.780630 0.606260 0.722150 -0.640531
O63   O     O_R   0.219370 0.606260 0.277850 -0.625300
O64   O     O_R   0.219370 0.606260 0.722150 -0.625300
O65   O     O_R   0.780630 0.106260 0.777850 -0.640531
O66   O     O_3   0.750000 0.499990 0.250000 -0.478266
O67   O     O_R   0.780630 0.106260 0.222150 -0.640531
O68   O     O_R   0.219370 0.106260 0.777850 -0.625300
O69   O     O_R   0.219370 0.106260 0.222150 -0.625300
O70   O     O_R   0.280630 0.606260 0.777850 -0.640531
O71   O     O_R   0.280630 0.606260 0.222150 -0.640531
O72   O     O_R   0.719370 0.606260 0.777850 -0.625300
O73   O     O_R   0.719370 0.606260 0.222150 -0.625300
O74   O     O_R   0.280650 0.893700 0.222130 -0.636046
O75   O     O_R   0.280650 0.893700 0.777870 -0.636046
O76   O     O_R   0.719350 0.893700 0.222130 -0.633885
O77   O     O_3   0.750000 0.499990 0.750000 -0.478266
O78   O     O_R   0.719350 0.893700 0.777870 -0.633885
O79   O     O_R   0.780650 0.393700 0.222130 -0.636046
O80   O     O_R   0.780650 0.393700 0.777870 -0.636046
O81   O     O_R   0.219350 0.393700 0.222130 -0.633885
O82   O     O_R   0.219350 0.393700 0.777870 -0.633885
O83   O     O_R   0.780650 0.893700 0.722130 -0.636046
O84   O     O_R   0.780650 0.893700 0.277870 -0.636046
O85   O     O_R   0.219350 0.893700 0.722130 -0.633885
O86   O     O_R   0.219350 0.893700 0.277870 -0.633885
O87   O     O_R   0.280650 0.393700 0.722130 -0.636046
O88   O     O_3   0.250000 0.499990 0.250000 -0.478266
O89   O     O_R   0.280650 0.393700 0.277870 -0.636046
O90   O     O_R   0.719350 0.393700 0.722130 -0.633885
O91   O     O_R   0.719350 0.393700 0.277870 -0.633885
O92   O     O_R   0.219370 0.972130 0.356260 -0.634382
O93   O     O_R   0.219370 0.972130 0.643740 -0.634382
O94   O     O_R   0.780630 0.972130 0.356260 -0.635974
O95   O     O_R   0.780630 0.972130 0.643740 -0.635974
O96   O     O_R   0.719370 0.472130 0.356260 -0.634382
O97   O     O_R   0.719370 0.472130 0.643740 -0.634382
O98   O     O_R   0.280630 0.472130 0.356260 -0.635974
O99   O     O_3   0.250000 0.499990 0.750000 -0.478266
O100  O     O_R   0.280630 0.472130 0.643740 -0.635974
O101  O     O_R   0.719370 0.972130 0.856260 -0.634382
O102  O     O_R   0.719370 0.972130 0.143740 -0.634382
O103  O     O_R   0.280630 0.972130 0.856260 -0.635974
O104  O     O_R   0.280630 0.972130 0.143740 -0.635974
O105  O     O_R   0.219370 0.472130 0.856260 -0.634382
O106  O     O_R   0.219370 0.472130 0.143740 -0.634382
O107  O     O_R   0.780630 0.472130 0.856260 -0.635974
O108  O     O_R   0.780630 0.472130 0.143740 -0.635974
O109  O     O_R   0.366850 0.027840 0.277850 -0.641292
O110  O     O_R   0.366860 0.972110 0.222130 -0.652591
O111  O     O_R   0.366850 0.027840 0.722150 -0.641292
O112  O     O_R   0.633150 0.027840 0.277850 -0.614058
O113  O     O_R   0.633150 0.027840 0.722150 -0.614058
O114  O     O_R   0.866850 0.527840 0.277850 -0.641292
O115  O     O_R   0.866850 0.527840 0.722150 -0.641292
O116  O     O_R   0.133150 0.527840 0.277850 -0.614058
O117  O     O_R   0.133150 0.527840 0.722150 -0.614058
O118  O     O_R   0.866850 0.027840 0.777850 -0.641292
O119  O     O_R   0.866850 0.027840 0.222150 -0.641292
O120  O     O_R   0.133150 0.027840 0.777850 -0.614058
Zn1   Zn    Zn3+2 0.206230 0.960180 0.289800 0.964901
Zn2   Zn    Zn3+2 0.706230 0.960180 0.210200 0.964901
Zn3   Zn    Zn3+2 0.293770 0.960180 0.789800 0.969231
Zn4   Zn    Zn3+2 0.293770 0.960180 0.210200 0.969231
Zn5   Zn    Zn3+2 0.206230 0.460180 0.789800 0.964901
Zn6   Zn    Zn3+2 0.206230 0.460180 0.210200 0.964901
Zn7   Zn    Zn3+2 0.793770 0.460180 0.789800 0.969231
Zn8   Zn    Zn3+2 0.793770 0.460180 0.210200 0.969231
Zn9   Zn    Zn3+2 0.293770 0.039800 0.289800 0.961782
Zn10  Zn    Zn3+2 0.293770 0.039800 0.710200 0.961782
Zn11  Zn    Zn3+2 0.706230 0.039800 0.289800 0.992530
Zn12  Zn    Zn3+2 0.206230 0.960180 0.710200 0.964901
Zn13  Zn    Zn3+2 0.706230 0.039800 0.710200 0.992530
Zn14  Zn    Zn3+2 0.793770 0.539800 0.289800 0.961782
Zn15  Zn    Zn3+2 0.793770 0.539800 0.710200 0.961782
Zn16  Zn    Zn3+2 0.206230 0.539800 0.289800 0.992530
Zn17  Zn    Zn3+2 0.206230 0.539800 0.710200 0.992530
Zn18  Zn    Zn3+2 0.793770 0.039800 0.789800 0.961782
Zn19  Zn    Zn3+2 0.793770 0.039800 0.210200 0.961782
Zn20  Zn    Zn3+2 0.206230 0.039800 0.789800 0.992530
Zn21  Zn    Zn3+2 0.206230 0.039800 0.210200 0.992530
Zn22  Zn    Zn3+2 0.293770 0.539800 0.789800 0.961782
Zn23  Zn    Zn3+2 0.793770 0.960180 0.289800 0.969231
Zn24  Zn    Zn3+2 0.293770 0.539800 0.210200 0.961782
Zn25  Zn    Zn3+2 0.706230 0.539800 0.789800 0.992530
Zn26  Zn    Zn3+2 0.706230 0.539800 0.210200 0.992530
Zn27  Zn    Zn3+2 0.793770 0.960180 0.710200 0.969231
Zn28  Zn    Zn3+2 0.706230 0.460180 0.289800 0.964901
Zn29  Zn    Zn3+2 0.706230 0.460180 0.710200 0.964901
Zn30  Zn    Zn3+2 0.293770 0.460180 0.289800 0.969231
Zn31  Zn    Zn3+2 0.293770 0.460180 0.710200 0.969231
Zn32  Zn    Zn3+2 0.706230 0.960180 0.789800 0.964901

loop_
_geom_bond_atom_site_label_1
_geom_bond_atom_site_label_2
_ccdc_geom_bond_type
C73   H74   S    
O98   Zn30  S    
C11   C171  S    
C41   C50   T    
C128  H133  S    
C125  H130  S    
C35   O4    A    
O6    Zn25  S    
C24   C153  S    
C23   O71   A    
C152  H122  S    
O46   Zn16  S    
C137  H107  S    
C50   C59   S    
C20   C66   S    
C84   C86   S    
C147  C164  S    
C122  H66   S    
O87   Zn31  S    
C54   C63   T    
C176  O28   A    
C15   O107  A    
C8    O48   A    
C120  H62   S    
C154  C170  S    
O78   Zn32  S    
O51   Zn21  S    
O56   Zn26  S    
C178  C195  T    
O50   Zn20  S    
C143  O24   A    
O66   Zn26  S    
C132  O112  A    
C44   C53   S    
C133  H137  S    
C32   O81   A    
C134  C169  S    
O114  Zn14  S    
C9    O102  A    
C5    O97   A    
O7    Zn26  S    
O44   Zn23  S    
C89   H146  S    
C57   C159  S    
C99   H14   S    
C24   O34   A    
C13   O120  A    
C11   O51   A    
C105  H27   S    
O102  Zn2   S    
O55   Zn27  S    
C5    C186  S    
C68   C158  S    
C87   H141  S    
O62   Zn15  S    
C110  H41   S    
C165  C169  S    
C112  C164  S    
O83   Zn27  S    
C188  C205  T    
C17   C67   S    
C128  H98   S    
C202  C203  S    
C191  C192  S    
C183  C201  T    
O48   Zn18  S    
C92   H153  S    
C68   O38   A    
O71   Zn24  S    
C141  C144  S    
C71   C73   S    
C83   H83   S    
C167  C187  S    
O80   Zn7   S    
O109  Zn9   S    
C84   H85   S    
C172  C190  T    
O55   Zn13  S    
C173  C191  T    
C102  H17   S    
C85   C169  S    
C86   H87   S    
C129  C164  S    
C154  O26   A    
C137  O9    S    
C88   H144  S    
C80   C163  S    
O40   Zn10  S    
C84   C168  S    
C85   H57   S    
C152  C170  S    
C150  C168  S    
C30   O91   A    
O45   Zn15  S    
C121  H64   S    
C148  H118  S    
O69   Zn21  S    
C154  O114  A    
C117  H54   S    
C16   C175  S    
C19   O59   A    
C74   H75   S    
O1    Zn9   S    
C97   H6    S    
C98   H10   S    
O104  Zn4   S    
C17   O57   A    
C36   C44   T    
C23   O63   A    
C37   C45   T    
O90   Zn29  S    
C133  H102  S    
O76   Zn2   S    
C80   H2    S    
C165  O27   A    
C31   O90   A    
C2    C156  S    
O58   Zn10  S    
C74   H106  S    
O97   Zn29  S    
C136  H105  S    
C107  H32   S    
O99   Zn31  S    
C70   H70   S    
C52   C61   T    
C142  H112  S    
C4    C188  S    
C132  C163  S    
C130  H135  S    
C136  C153  S    
C129  H99   S    
C107  O18   S    
C206  O92   A    
C25   C62   S    
O82   Zn5   S    
C195  C196  S    
O73   Zn26  S    
C99   H12   S    
C139  C157  S    
C193  C194  S    
C133  C135  S    
C115  O21   S    
C113  C157  S    
C131  H136  S    
C175  C193  T    
O75   Zn3   S    
C46   C160  S    
C139  H109  S    
C110  H39   S    
C72   C156  S    
C83   H35   S    
C12   O52   A    
O33   Zn20  S    
C112  O2    A    
C125  C160  S    
O4    Zn22  S    
C103  O16   S    
C131  H101  S    
C35   C161  S    
C74   C76   S    
C2    O119  A    
C148  O20   S    
C135  H140  S    
C149  O21   S    
C5    O45   A    
C149  C151  S    
C147  O19   S    
C112  O111  A    
C8    C174  S    
C43   C52   S    
C198  O30   A    
O111  Zn10  S    
C145  O17   S    
C40   C49   T    
C73   C157  S    
C12   O105  A    
C137  C155  S    
C197  C199  S    
C157  C198  S    
C135  C170  S    
O107  Zn7   S    
C144  H113  S    
C59   C67   T    
O66   Zn14  S    
C141  C159  S    
C118  H55   S    
C106  H29   S    
C108  H33   S    
C32   C41   S    
C198  O118  A    
C9    C173  S    
O13   Zn2   S    
C89   C91   S    
C18   C69   S    
C123  H127  S    
C75   C159  S    
C95   H159  S    
C93   H155  S    
C25   O64   A    
C94   C95   S    
C89   O9    S    
C149  H119  S    
O37   Zn29  S    
O113  Zn13  S    
C80   H80   S    
O101  Zn32  S    
O27   Zn7   S    
C111  O20   S    
C98   O14   S    
O103  Zn3   S    
O89   Zn30  S    
C24   O3    A    
C80   C82   S    
C115  H49   S    
C133  C168  S    
C29   O78   A    
C104  H23   S    
C100  H15   S    
C83   C167  S    
C75   H76   S    
C71   H71   S    
C72   H72   S    
O1    Zn21  S    
C3    C180  S    
C127  C129  S    
O44   Zn11  S    
C79   C153  S    
C100  O15   S    
O88   Zn30  S    
O3    Zn21  S    
C151  O23   S    
O28   Zn6   S    
O77   Zn29  S    
O99   Zn17  S    
C75   C77   S    
C14   C178  S    
C116  H51   S    
C6    O98   A    
C150  H120  S    
C151  H121  S    
C98   C99   S    
C127  C162  S    
C15   C177  S    
C68   O7    A    
C106  H30   S    
C81   C164  S    
C10   O103  A    
O106  Zn6   S    
O35   Zn31  S    
O93   Zn12  S    
C124  C126  S    
O43   Zn14  S    
C168  C176  S    
C82   H24   S    
C104  H25   S    
O29   Zn5   S    
O26   Zn8   S    
C86   C170  S    
C34   C43   T    
C45   C54   S    
C208  O94   A    
C19   C65   S    
O72   Zn25  S    
C151  C169  S    
C11   O104  A    
C95   H3    S    
C28   O76   A    
C72   H84   S    
C117  H53   S    
C208  O41   A    
C10   O50   A    
C117  C118  S    
C101  H125  S    
C28   C37   S    
C150  O22   S    
C119  H60   S    
O32   Zn12  S    
C22   O62   A    
C30   C39   S    
O30   Zn27  S    
C18   O58   A    
C124  H129  S    
C96   O12   S    
C126  H96   S    
C204  C205  S    
C129  H134  S    
C33   O87   A    
C79   C101  S    
C105  O17   S    
C51   C60   S    
O118  Zn18  S    
C81   H81   S    
O117  Zn17  S    
C174  C192  T    
C181  C199  T    
C103  H21   S    
O1    Zn4   S    
C87   C88   S    
O100  Zn31  S    
C96   H4    S    
C144  C161  S    
O77   Zn15  S    
C70   C153  S    
C148  C166  S    
C105  H26   S    
C149  C167  S    
C131  C134  S    
O88   Zn16  S    
C27   O75   A    
C30   O79   A    
C14   O53   A    
C114  H47   S    
C137  C139  S    
O84   Zn23  S    
O110  Zn4   S    
O96   Zn28  S    
C1    O109  A    
C140  C142  S    
C33   O82   A    
C90   H124  S    
O5    Zn24  S    
C123  C125  S    
O24   Zn32  S    
C10   C172  S    
C19   O67   A    
C102  H18   S    
C31   C40   S    
C77   H139  S    
C207  O93   A    
C115  H48   S    
C73   H95   S    
O120  Zn20  S    
C126  C161  S    
C77   H78   S    
C94   H157  S    
C146  C148  S    
C134  H103  S    
C3    O95   A    
C87   O8    S    
C113  H91   S    
O31   Zn23  S    
C145  H114  S    
O66   Zn8   S    
C145  C147  S    
O74   Zn4   S    
C179  C196  T    
C77   C161  S    
O52   Zn22  S    
C146  O18   S    
C177  C194  T    
C74   C158  S    
C71   H73   S    
C181  C208  S    
C182  C200  T    
O47   Zn17  S    
C92   H152  S    
C35   O35   A    
C101  C156  S    
C103  H20   S    
C107  H31   S    
C120  H61   S    
C86   H68   S    
C9    O49   A    
C96   C97   S    
C79   H88   S    
O39   Zn9   S    
C130  C166  S    
C104  H22   S    
C6    C185  S    
C71   C155  S    
C7    O100  A    
O70   Zn22  S    
C121  C122  S    
C106  H28   S    
C135  H104  S    
C89   H147  S    
C83   C85   S    
C99   H11   S    
O41   Zn11  S    
C7    O47   A    
C33   C42   S    
O99   Zn22  S    
C85   H86   S    
O77   Zn7   S    
C87   H142  S    
C127  H132  S    
C116  H50   S    
O91   Zn28  S    
C82   C166  S    
C110  H40   S    
C32   O89   A    
C114  H45   S    
O59   Zn11  S    
C46   O36   A    
C142  O15   S    
O57   Zn9   S    
C207  O40   A    
C128  C130  S    
C119  C120  S    
C15   O54   A    
O2    Zn3   S    
O116  Zn16  S    
C91   H148  S    
C81   H13   S    
C105  C106  S    
C88   H145  S    
C140  O12   S    
O77   Zn25  S    
O53   Zn24  S    
O38   Zn28  S    
C185  C203  T    
C88   H143  S    
C18   O68   A    
C101  H90   S    
C109  C110  S    
C78   C81   S    
O60   Zn13  S    
C131  C167  S    
C183  C206  S    
C2    O31   A    
C92   C93   S    
O33   Zn10  S    
C4    O96   A    
C111  C114  S    
C79   H123  S    
C189  C190  S    
C121  H65   S    
O81   Zn6   S    
C21   C63   S    
C96   H5    S    
C22   C64   S    
C23   C61   S    
C118  H56   S    
C97   H7    S    
C98   H9    S    
C108  H34   S    
C103  C104  S    
C100  H16   S    
C122  H67   S    
C31   O80   A    
C3    O42   A    
C115  C116  S    
C46   O5    A    
C39   C48   T    
O61   Zn14  S    
O85   Zn12  S    
C92   O10   S    
C93   H154  S    
O68   Zn20  S    
C123  H92   S    
C114  H44   S    
O119  Zn19  S    
C113  H126  S    
C134  H138  S    
O44   Zn19  S    
O1    Zn1   S    
O115  Zn15  S    
O99   Zn5   S    
C120  H63   S    
C7    C184  S    
C60   C69   T    
C20   O60   A    
C143  O113  A    
C206  O39   A    
C21   O61   A    
C1    C166  S    
C145  C162  S    
O65   Zn18  S    
C111  H43   S    
C56   C65   T    
C127  H97   S    
C124  C159  S    
C25   O70   A    
C171  C189  T    
C182  C207  S    
C90   C113  S    
C13   C155  S    
C180  C197  T    
C82   H82   S    
C118  H58   S    
C26   C34   S    
C76   H128  S    
O44   Zn2   S    
C200  C201  S    
C20   O65   A    
C124  H93   S    
C16   O56   A    
C143  C162  S    
C116  H52   S    
C42   C51   T    
C140  C158  S    
O34   Zn1   S    
O95   Zn27  S    
C26   O74   A    
C132  O13   A    
O94   Zn23  S    
C28   O84   A    
C58   C66   T    
C16   O108  A    
O88   Zn6   S    
C126  H131  S    
C26   O86   A    
C184  C202  T    
C187  O117  A    
O54   Zn25  S    
C17   O69   A    
C4    O43   A    
C136  C138  S    
C91   H151  S    
O64   Zn17  S    
O49   Zn19  S    
C14   O106  A    
C141  O14   S    
C97   H8    S    
C128  C163  S    
C49   C58   S    
O33   Zn12  S    
C57   O6    A    
C29   C38   S    
O92   Zn1   S    
C152  O25   S    
C78   H150  S    
O67   Zn19  S    
C53   C62   T    
O55   Zn18  S    
C27   O85   A    
O42   Zn13  S    
C107  C108  S    
C119  H59   S    
C55   C64   T    
C108  H36   S    
C100  C102  S    
C186  C204  T    
C21   O73   A    
C38   C47   T    
O66   Zn28  S    
O88   Zn24  S    
C125  H94   S    
C90   H89   S    
O63   Zn16  S    
C109  H38   S    
C78   C162  S    
C95   H160  S    
O33   Zn3   S    
C93   H156  S    
C84   H46   S    
C150  C152  S    
C76   H77   S    
C122  H69   S    
O105  Zn5   S    
C78   H79   S    
C165  O115  A    
C187  O29   A    
C47   C55   S    
C13   O32   A    
C138  C156  S    
O79   Zn8   S    
C48   C56   S    
C76   C160  S    
C22   O72   A    
C146  H115  S    
O108  Zn8   S    
C142  C160  S    
O86   Zn1   S    
C57   O37   A    
C109  O19   S    
C138  H108  S    
O112  Zn11  S    
C123  C158  S    
C140  H110  S    
C146  C163  S    
C111  H42   S    
C141  H111  S    
C27   C36   S    
C94   O11   S    
C75   H117  S    
C147  H116  S    
C144  O16   S    
C130  H100  S    
C91   H149  S    
C117  O22   S    
C102  H19   S    
C6    O46   A    
O55   Zn32  S    
C176  O116  A    
C139  O11   S    
C109  H37   S    
C12   C179  S    
C121  O25   S    
C136  O8    S    
C8    O101  A    
C70   H1    S    
C70   C72   S    
O36   Zn30  S    
C90   C155  S    
C29   O83   A    
C94   H158  S    
C119  O23   S    
C1    O110  A    
C138  O10   S    
