data_mof_unit_13982.cif
_audit_creation_date              2012-12-10T18:57:10-0500
_audit_creation_method            fapswitch 2.2
_symmetry_space_group_name_H-M    P1
_symmetry_Int_Tables_number       1
_space_group_crystal_system       triclinic
_cell_length_a                    11.119046
_cell_length_b                    10.107455
_cell_length_c                    11.065396
_cell_angle_alpha                 87.355336
_cell_angle_beta                  93.525615
_cell_angle_gamma                 88.433101
_cell_volume                      1239.3435158

loop_
_atom_site_label
_atom_site_type_symbol
_atom_type_description
_atom_site_fract_x
_atom_site_fract_y
_atom_site_fract_z
_atom_type_partial_charge
C1    C     C_R   0.259502 0.501711 0.498728 0.896969
C2    C     C_R   0.477406 0.611333 0.923866 -0.000259
C3    C     C_R   0.461718 0.506439 0.124151 -0.100291
C4    C     C_R   0.476365 0.490850 0.869467 -0.177519
C5    C     C_R   0.421253 0.392510 0.064729 0.046399
C6    C     C_R   0.447660 0.375936 0.941653 0.041347
C7    C     C_3   0.394471 0.730967 0.896686 0.376457
C8    C     C_3   0.408456 0.746877 0.034245 0.410097
C9    C     C_R   0.062221 0.390038 0.517126 0.377296
C10   C     C_R   0.939227 0.384140 0.491019 0.360972
C11   C     C_R   0.869415 0.502557 0.476603 -0.265578
C12   C     C_R   0.738528 0.499816 0.492220 0.943483
C13   C     C_R   0.124439 0.505250 0.489925 -0.248627
C14   C     C_R   0.929000 0.624307 0.455116 0.035961
C15   C     C_R   0.055095 0.620878 0.450106 -0.045912
C16   C     C_3   0.337964 0.299862 0.128534 -0.309584
C17   C     C_3   0.210030 0.292084 0.067523 -0.357691
C18   C     C_3   0.115104 0.373536 0.129409 -0.808546
C19   C     C_3   0.454917 0.236544 0.895625 -0.399122
C20   C     C_3   0.353518 0.203996 0.801339 -0.192417
C21   C     C_3   0.260789 0.105442 0.845680 -0.734907
C22   C     C_3   0.266849 0.707212 0.834670 -0.370867
C23   C     C_R   0.581236 0.065633 0.573115 0.308469
C24   C     C_3   0.205646 0.576457 0.863576 -0.394148
C25   C     C_3   0.069061 0.587874 0.838859 -0.778849
C26   C     C_3   0.491531 0.860087 0.077853 -0.329034
C27   C     C_3   0.623969 0.853631 0.038353 -0.356298
C28   C     C_3   0.676128 0.990276 0.017077 -0.748864
C29   C     C_3   0.864609 0.760701 0.446407 -0.314296
C30   C     C_3   0.795110 0.796308 0.325472 -0.385163
C31   C     C_3   0.752852 0.942521 0.319337 -0.792518
C32   C     C_3   0.114413 0.745027 0.411203 -0.216855
C33   C     C_3   0.151280 0.823894 0.524757 -0.399567
C34   C     C_R   0.415912 0.077065 0.434268 0.331116
C35   C     C_3   0.113077 0.969303 0.514384 -0.629157
C36   C     C_R   0.579827 0.922849 0.575179 0.385708
C37   C     C_R   0.423160 0.937981 0.427146 0.255712
C38   C     C_R   0.488846 0.503055 0.259246 0.846265
C39   C     C_R   0.494178 0.496481 0.738901 0.891997
C40   C     C_R   0.480982 0.618494 0.049605 -0.092394
Cl1   Cl    Cl    0.450176 0.866625 0.811198 -0.689464
Cl2   Cl    Cl    0.264726 0.740066 0.099365 -0.656626
Cl3   Cl    Cl    0.128122 0.260636 0.609039 -0.653112
Cl4   Cl    Cl    0.879555 0.225038 0.474697 -0.555718
Cl5   Cl    Cl    0.682691 0.143666 0.672563 -0.505667
Cl6   Cl    Cl    0.286690 0.160920 0.370883 -0.604201
Cl7   Cl    Cl    0.678890 0.832369 0.681435 -0.541229
Cl8   Cl    Cl    0.335446 0.874686 0.316734 -0.596812
H1    H     H_    0.102451 0.330051 0.221608 0.298310
H2    H     H_    0.172516 0.155882 0.855515 0.258329
H3    H     H_    0.306482 0.296745 0.766804 0.233541
H4    H     H_    0.395382 0.160759 0.722989 0.258720
H5    H     H_    0.543078 0.225400 0.855574 0.242037
H6    H     H_    0.461145 0.161803 0.971393 0.195996
H7    H     H_    0.029626 0.662759 0.896560 0.283959
H8    H     H_    0.045684 0.615893 0.741992 0.254784
H9    H     H_    0.029082 0.490701 0.860018 0.260463
H10   H     H_    0.239940 0.499530 0.805614 0.206258
H11   H     H_    0.225888 0.544404 0.958868 0.284832
H12   H     H_    0.142581 0.477583 0.137530 0.281989
H13   H     H_    0.206348 0.792423 0.853013 0.245298
H14   H     H_    0.275700 0.711053 0.735490 0.211704
H15   H     H_    0.644655 0.031083 0.925736 0.316136
H16   H     H_    0.648855 0.059899 0.085763 0.233142
H17   H     H_    0.776064 0.981468 0.020670 0.261707
H18   H     H_    0.680898 0.796589 0.108671 0.199721
H19   H     H_    0.635460 0.798201 0.955864 0.297321
H20   H     H_    0.446584 0.956694 0.051583 0.222357
H21   H     H_    0.501470 0.852915 0.177162 0.239884
H22   H     H_    0.750560 0.983048 0.410524 0.288929
H23   H     H_    0.027487 0.372876 0.075659 0.251305
H24   H     H_    0.814714 0.003162 0.266266 0.279319
H25   H     H_    0.660258 0.954167 0.277184 0.235778
H26   H     H_    0.854308 0.778788 0.250072 0.219192
H27   H     H_    0.716154 0.732842 0.313133 0.250518
H28   H     H_    0.811901 0.773195 0.523521 0.268949
H29   H     H_    0.923769 0.842238 0.464816 0.220337
H30   H     H_    0.187882 0.024116 0.556558 0.298362
H31   H     H_    0.094170 0.006200 0.418970 0.319201
H32   H     H_    0.032463 0.988040 0.566263 0.282511
H33   H     H_    0.112091 0.780649 0.607046 0.208441
H34   H     H_    0.208090 0.325206 0.971123 0.236094
H35   H     H_    0.249688 0.819633 0.544297 0.274244
H36   H     H_    0.186275 0.711921 0.355830 0.276634
H37   H     H_    0.058852 0.805402 0.341166 0.207428
H38   H     H_    0.182555 0.187238 0.072714 0.259102
H39   H     H_    0.381117 0.199667 0.143273 0.208502
H40   H     H_    0.323108 0.338981 0.217110 0.273942
H41   H     H_    0.243455 0.030787 0.776797 0.275472
H42   H     H_    0.290338 0.052360 0.932517 0.261357
N1    N     N_R   0.500000 0.857200 0.500000 -0.180999
N2    N     N_R   0.500000 0.142810 0.500000 -0.196320
O1    O     O_R   0.316770 0.614620 0.499990 -0.635141
O2    O     O_R   0.683230 0.614620 0.500010 -0.616566
O3    O     O_R   0.316800 0.385290 0.500000 -0.531037
O4    O     O_R   0.683200 0.385290 0.500000 -0.513743
O5    O     O_R   0.500000 0.614690 0.316780 -0.588015
O6    O     O_R   0.500000 0.614690 0.683220 -0.535907
O7    O     O_R   0.500020 0.385360 0.316780 -0.620271
O8    O     O_R   0.499980 0.385360 0.683220 -0.616725
Zn1   Zn    Zn3+2 0.500000 0.653120 0.500000 1.034144
Zn2   Zn    Zn3+2 0.500000 0.346880 0.500000 1.061517

loop_
_geom_bond_atom_site_label_1
_geom_bond_atom_site_label_2
_ccdc_geom_bond_type
C23   Cl5   S    
O4    Zn2   S    
C34   C37   A    
C8    C26   S    
C19   C20   S    
C25   H8    S    
C15   C32   S    
C29   H28   S    
C21   H41   S    
C6    C19   S    
C26   C27   S    
C8    Cl2   S    
C20   H3    S    
C5    C6    A    
C30   H26   S    
C11   C14   A    
C31   H25   S    
C35   H32   S    
C36   Cl7   S    
C17   H34   S    
C9    C13   A    
C5    C16   S    
C31   H22   S    
C2    C7    S    
C3    C38   S    
C16   C17   S    
C16   H39   S    
C34   Cl6   S    
C9    C10   A    
O3    Zn2   S    
N2    Zn2   S    
C19   H5    S    
C12   O2    A    
C25   H9    S    
N1    Zn1   S    
C38   O5    A    
C21   H2    S    
C21   H42   S    
C32   H36   S    
C9    Cl3   S    
C37   N1    A    
C10   Cl4   S    
C17   H38   S    
C7    C8    S    
C24   C25   S    
O2    Zn1   S    
C4    C6    A    
O1    Zn1   S    
C39   O6    A    
C1    O1    A    
C2    C4    A    
C29   C30   S    
C22   H14   S    
C4    C39   S    
C1    O3    A    
O8    Zn2   S    
C17   C18   S    
C37   Cl8   S    
C33   H35   S    
C28   H16   S    
C36   N1    A    
C18   H12   S    
C31   H24   S    
C3    C40   A    
C13   C15   A    
C22   C24   S    
C1    C13   S    
C14   C29   S    
O6    Zn1   S    
C19   H6    S    
C18   H23   S    
C14   C15   A    
C25   H7    S    
C38   O7    A    
C3    C5    A    
C11   C12   S    
C7    C22   S    
C35   H30   S    
C26   H20   S    
C32   C33   S    
C28   H17   S    
C20   H4    S    
C27   H18   S    
C22   H13   S    
C30   H27   S    
C39   O8    A    
C30   C31   S    
C24   H11   S    
C32   H37   S    
C35   H31   S    
C33   C35   S    
C7    Cl1   S    
C34   N2    A    
C27   H19   S    
C10   C11   A    
C28   H15   S    
C2    C40   A    
O7    Zn2   S    
C29   H29   S    
C20   C21   S    
C24   H10   S    
C23   C36   A    
C27   C28   S    
C16   H40   S    
C26   H21   S    
C23   N2    A    
C12   O4    A    
C8    C40   S    
C33   H33   S    
O5    Zn1   S    
C18   H1    S    
