data_mof_unit_50979.cif
_audit_creation_date              2012-12-10T20:24:52-0500
_audit_creation_method            fapswitch 2.2
_symmetry_space_group_name_H-M    P1
_symmetry_Int_Tables_number       1
_space_group_crystal_system       triclinic
_cell_length_a                    10.743808
_cell_length_b                    19.20977
_cell_length_c                    18.461881
_cell_angle_alpha                 90.600142
_cell_angle_beta                  90.976093
_cell_angle_gamma                 89.989465
_cell_volume                      3809.5133636

loop_
_atom_site_label
_atom_site_type_symbol
_atom_type_description
_atom_site_fract_x
_atom_site_fract_y
_atom_site_fract_z
_atom_type_partial_charge
C1    C     C_R   0.496969 0.365747 0.499533 0.879087
C2    C     C_R   0.517030 0.179455 0.551047 -0.163165
C3    C     C_R   0.432156 0.852075 0.498010 0.028990
C4    C     C_R   0.433804 0.148475 0.500891 0.042910
C5    C     C_R   0.380145 0.811963 0.552613 -0.266557
C6    C     C_R   0.371822 0.189571 0.449448 -0.261235
C7    C     C_R   0.399807 0.740570 0.554667 0.491340
C8    C     C_R   0.391705 0.261018 0.448093 0.501915
C9    C     C_R   0.474822 0.708960 0.501294 -0.150566
C10   C     C_R   0.476555 0.291354 0.498348 -0.145077
C11   C     C_R   0.420124 0.964415 0.564952 -0.180153
C12   C     C_R   0.496179 0.634371 0.500446 0.871414
C13   C     C_R   0.407104 0.036248 0.434250 -0.178688
C14   C     C_R   0.418376 0.036477 0.565662 -0.189102
C15   C     C_R   0.405158 0.964075 0.433623 -0.196306
C16   C     C_R   0.259862 0.502007 0.499236 0.830549
C17   C     C_R   0.740126 0.498214 0.500701 0.883677
C18   C     C_R   0.416693 0.072887 0.500285 0.138822
C19   C     C_R   0.416256 0.927722 0.498845 0.144447
C20   C     C_R   0.466727 0.558699 0.726284 0.006681
C21   C     C_R   0.402150 0.471494 0.273048 0.076668
C22   C     C_R   0.464023 0.559663 0.802174 -0.303173
C23   C     C_R   0.872476 0.498048 0.501737 -0.073415
C24   C     C_R   0.399250 0.471227 0.197086 -0.290357
C25   C     C_R   0.496095 0.499671 0.841276 0.160801
C26   C     C_R   0.498732 0.499762 0.158660 0.150999
C27   C     C_R   0.530823 0.439968 0.801833 -0.234363
C28   C     C_R   0.600074 0.527157 0.199030 -0.231189
C29   C     C_R   0.531336 0.441105 0.725877 0.007179
C30   C     C_R   0.598195 0.527463 0.274967 -0.002559
C31   C     C_R   0.443047 0.443284 0.961469 0.502896
C32   C     C_R   0.537389 0.559636 0.038120 0.503290
C33   C     C_R   0.448870 0.443558 0.037598 -0.335426
C34   C     C_R   0.127441 0.503595 0.498061 -0.092221
C35   C     C_R   0.539317 0.557384 0.962055 -0.337824
C36   C     C_R   0.495861 0.501090 0.077226 -0.078105
C37   C     C_R   0.493004 0.499714 0.922531 -0.080229
C38   C     C_R   0.225671 0.645356 0.306995 0.563527
C39   C     C_R   0.816460 0.343380 0.693897 0.535911
C40   C     C_R   0.184791 0.615325 0.371557 -0.208672
C41   C     C_R   0.850690 0.375264 0.629175 -0.217934
C42   C     C_R   0.112078 0.554545 0.369736 0.082104
C43   C     C_R   0.887678 0.445329 0.628379 0.078453
C44   C     C_R   0.081280 0.523717 0.302423 -0.200037
C45   C     C_R   0.941700 0.475307 0.562360 0.012047
C46   C     C_R   0.888566 0.484328 0.692954 -0.126313
C47   C     C_R   0.123258 0.552843 0.238308 -0.239976
C48   C     C_R   0.854812 0.453417 0.757743 -0.196435
C49   C     C_R   0.195959 0.613067 0.240656 -0.198477
C50   C     C_R   0.821459 0.383186 0.758846 -0.265217
C51   C     C_R   0.930587 0.523211 0.440203 -0.266895
C52   C     C_R   0.069077 0.478871 0.559751 -0.265916
C53   C     C_3   0.242495 0.668986 0.592335 0.111353
C54   C     C_3   0.129200 0.717571 0.593704 -0.410708
C55   C     C_3   0.009227 0.677730 0.576495 -0.928222
C56   C     C_R   0.058225 0.526224 0.437030 0.017780
C57   C     C_3   0.224661 0.331557 0.422317 0.101809
C58   C     C_3   0.110235 0.285901 0.407006 -0.386364
C59   C     C_3   0.990650 0.324555 0.425434 -0.927556
C60   C     C_3   0.271836 0.400628 0.899670 0.087016
C61   C     C_3   0.174411 0.379860 0.955070 -0.358787
C62   C     C_3   0.042556 0.388595 0.924389 -0.961361
C63   C     C_3   0.480230 0.658965 0.098975 0.096401
C64   C     C_3   0.443120 0.714561 0.043886 -0.362840
C65   C     C_3   0.341815 0.762173 0.073493 -0.957991
C66   C     C_3   0.236915 0.762689 0.332736 0.066458
C67   C     C_R   0.525192 0.748944 0.446130 -0.219014
C68   C     C_3   0.152428 0.792545 0.272882 -0.384791
C69   C     C_3   0.092788 0.860790 0.297235 -0.939035
C70   C     C_3   0.700191 0.250835 0.740347 0.058396
C71   C     C_3   0.760425 0.211551 0.803630 -0.335903
C72   C     C_3   0.664160 0.192192 0.859795 -0.946927
C73   C     C_R   0.537148 0.250623 0.550179 -0.275938
C74   C     C_R   0.505491 0.820191 0.445028 -0.199088
H1    H     H_    0.227797 0.635362 0.190772 0.136124
H2    H     H_    0.318668 0.449859 0.168755 0.136372
H3    H     H_    0.558716 0.392966 0.829480 0.165218
H4    H     H_    0.680717 0.547831 0.172302 0.177477
H5    H     H_    0.557498 0.394892 0.696041 0.125713
H6    H     H_    0.675785 0.549430 0.305457 0.125349
H7    H     H_    0.415828 0.398159 0.065757 0.178797
H8    H     H_    0.577194 0.601516 0.933793 0.177764
H9    H     H_    0.208736 0.639716 0.422653 0.101413
H10   H     H_    0.851718 0.344580 0.579697 0.138113
H11   H     H_    0.024349 0.477205 0.299659 0.143230
H12   H     H_    0.800522 0.360587 0.810556 0.144280
H13   H     H_    0.918488 0.538144 0.693382 0.130017
H14   H     H_    0.099620 0.528613 0.186700 0.157812
H15   H     H_    0.857226 0.483555 0.807614 0.159676
H16   H     H_    0.876209 0.542225 0.394454 0.163483
H17   H     H_    0.122884 0.460103 0.605861 0.174172
H18   H     H_    0.582051 0.725215 0.404701 0.175454
H19   H     H_    0.601909 0.273885 0.588917 0.185273
H20   H     H_    0.549411 0.850385 0.403379 0.147854
H21   H     H_    0.568803 0.148568 0.589932 0.144928
H22   H     H_    0.323316 0.835819 0.593922 0.147793
H23   H     H_    0.429845 0.937744 0.616098 0.135550
H24   H     H_    0.307101 0.166532 0.410514 0.142998
H25   H     H_    0.227878 0.626923 0.632147 0.172261
H26   H     H_    0.249528 0.642860 0.538898 0.105800
H27   H     H_    0.122561 0.742341 0.648169 0.234912
H28   H     H_    0.139375 0.759070 0.552808 0.212712
H29   H     H_    0.012137 0.655291 0.520893 0.268591
H30   H     H_    0.928552 0.713696 0.579624 0.266302
H31   H     H_    0.996190 0.635204 0.615905 0.263730
H32   H     H_    0.211374 0.381442 0.393427 0.178309
H33   H     H_    0.231766 0.344871 0.481280 0.106909
H34   H     H_    0.406492 0.063035 0.382952 0.135892
H35   H     H_    0.107027 0.270568 0.348783 0.235775
H36   H     H_    0.116307 0.237999 0.440052 0.217621
H37   H     H_    0.993590 0.341535 0.483014 0.266603
H38   H     H_    0.909387 0.289622 0.416542 0.267864
H39   H     H_    0.979027 0.370904 0.390496 0.265297
H40   H     H_    0.256428 0.369173 0.849469 0.171567
H41   H     H_    0.258379 0.456141 0.884015 0.127373
H42   H     H_    0.188736 0.324604 0.970424 0.235484
H43   H     H_    0.185237 0.412875 0.004559 0.209947
H44   H     H_    0.025662 0.443703 0.909458 0.263101
H45   H     H_    0.422552 0.063659 0.617334 0.130075
H46   H     H_    0.974071 0.373502 0.965763 0.267417
H47   H     H_    0.028483 0.354803 0.875741 0.267299
H48   H     H_    0.511478 0.685189 0.150042 0.183791
H49   H     H_    0.397244 0.627216 0.112757 0.122802
H50   H     H_    0.525982 0.746373 0.030754 0.235078
H51   H     H_    0.408010 0.689053 0.993251 0.212609
H52   H     H_    0.257479 0.731504 0.086288 0.259439
H53   H     H_    0.316269 0.801629 0.032313 0.267577
H54   H     H_    0.375831 0.789574 0.123282 0.267157
H55   H     H_    0.307145 0.802827 0.347831 0.183390
H56   H     H_    0.398995 0.936769 0.382064 0.124755
H57   H     H_    0.182986 0.752770 0.382573 0.124118
H58   H     H_    0.208121 0.802010 0.223786 0.233905
H59   H     H_    0.077576 0.754665 0.258603 0.216502
H60   H     H_    0.035336 0.852290 0.345821 0.264937
H61   H     H_    0.031920 0.881028 0.253044 0.267018
H62   H     H_    0.165636 0.900232 0.310271 0.261023
H63   H     H_    0.636845 0.214219 0.710883 0.157745
H64   H     H_    0.639421 0.293802 0.759782 0.112884
H65   H     H_    0.804900 0.163288 0.782710 0.228523
H66   H     H_    0.834106 0.243830 0.830195 0.218228
H67   H     H_    0.441438 0.604988 0.696932 0.178497
H68   H     H_    0.620923 0.239910 0.882798 0.276068
H69   H     H_    0.710140 0.163074 0.904468 0.265782
H70   H     H_    0.590492 0.158769 0.834737 0.262655
H71   H     H_    0.325465 0.449342 0.302076 0.137516
H72   H     H_    0.435323 0.606755 0.829970 0.144053
N1    N     N_R   0.500020 0.499980 0.689440 -0.092389
N2    N     N_R   0.499980 0.500020 0.310560 -0.093812
O1    O     O_R   0.500010 0.398180 0.560840 -0.639854
O2    O     O_3   0.333202 0.299846 0.394705 -0.645804
O3    O     O_3   0.393269 0.385508 0.926183 -0.661863
O4    O     O_3   0.581300 0.618981 0.073165 -0.661664
O5    O     O_3   0.302235 0.703338 0.307722 -0.657568
O6    O     O_3   0.792398 0.272126 0.691316 -0.661248
O7    O     O_R   0.499990 0.601820 0.439160 -0.610326
O8    O     O_R   0.499950 0.398180 0.439210 -0.576467
O9    O     O_R   0.500050 0.601820 0.560790 -0.597163
O10   O     O_R   0.316790 0.500010 0.560810 -0.634268
O11   O     O_R   0.683210 0.499990 0.439190 -0.638819
O12   O     O_R   0.316730 0.500000 0.439190 -0.629832
O13   O     O_R   0.683270 0.500000 0.560810 -0.607415
O14   O     O_3   0.353571 0.704155 0.612775 -0.661516
Zn1   Zn    Zn3+2 0.500040 0.500000 0.581210 0.949746
Zn2   Zn    Zn3+2 0.499960 0.500000 0.418790 0.965696

loop_
_geom_bond_atom_site_label_1
_geom_bond_atom_site_label_2
_ccdc_geom_bond_type
C72   H69   S    
C66   C68   S    
C34   C56   A    
C69   H60   S    
C23   C45   A    
C63   H49   S    
C16   O12   A    
C58   H35   S    
C14   C18   A    
C54   H27   S    
C60   H40   S    
C73   H19   S    
C5    H22   S    
C9    C67   A    
C39   C41   A    
C38   C49   A    
C53   C54   S    
C53   H25   S    
C72   H68   S    
C11   C19   A    
C43   C46   A    
C17   C23   S    
C13   C18   A    
C55   H31   S    
O12   Zn2   S    
C2    H21   S    
C35   C37   A    
C24   C26   A    
C66   H57   S    
C51   H16   S    
C10   C73   A    
C53   O14   S    
C27   C29   A    
C55   H29   S    
C33   C36   A    
C7    C9    A    
C51   C56   A    
C68   H58   S    
C3    C74   A    
C74   H20   S    
C42   C56   S    
C15   C19   A    
C22   H72   S    
C68   C69   S    
C22   C25   A    
C29   H5    S    
C52   H17   S    
C59   H37   S    
C31   C33   A    
C3    C19   S    
C70   C71   S    
O1    Zn1   S    
C12   O9    A    
C28   H4    S    
O9    Zn1   S    
C62   H46   S    
C64   H51   S    
C44   C47   A    
C66   H55   S    
C4    C18   S    
C40   C42   A    
C57   H32   S    
C69   H61   S    
C70   O6    S    
C41   C43   A    
C40   H9    S    
C42   C44   A    
C13   H34   S    
C47   C49   A    
O13   Zn1   S    
C35   H8    S    
C53   H26   S    
C7    O14   S    
C46   C48   A    
C39   O6    S    
C61   H43   S    
N2    Zn2   S    
C65   H54   S    
C4    C6    A    
C5    C7    A    
C24   H2    S    
C6    C8    A    
C45   C52   A    
C3    C5    A    
C21   N2    A    
C64   H50   S    
C41   H10   S    
C16   O10   A    
C55   H30   S    
C31   C37   A    
C60   C61   S    
C60   O3    S    
C21   H71   S    
C1    O8    A    
C8    O2    S    
C32   C35   A    
C31   O3    S    
C23   C51   A    
C32   O4    S    
C59   H39   S    
C16   C34   S    
C57   O2    S    
C61   H42   S    
C49   H1    S    
C59   H38   S    
C20   N1    A    
C67   C74   A    
C1    O1    A    
C43   C45   S    
C2    C73   A    
C17   O13   A    
O10   Zn1   S    
C26   C36   S    
C57   H33   S    
C20   C22   A    
C70   H64   S    
C69   H62   S    
C48   H15   S    
C13   C15   A    
C12   O7    A    
C44   H11   S    
C6    H24   S    
C63   H48   S    
C46   H13   S    
C72   H70   S    
C54   C55   S    
C68   H59   S    
C58   H36   S    
C34   C52   A    
C20   H67   S    
C54   H28   S    
C1    C10   S    
C27   H3    S    
C29   N1    A    
C66   O5    S    
C71   H65   S    
C32   C36   A    
C30   N2    A    
C71   H66   S    
O7    Zn2   S    
C25   C27   A    
C26   C28   A    
C11   H23   S    
C65   H52   S    
C28   C30   A    
C65   H53   S    
C58   C59   S    
C30   H6    S    
C71   C72   S    
N1    Zn1   S    
C47   H14   S    
C38   C40   A    
C57   C58   S    
C15   H56   S    
C2    C4    A    
C64   C65   S    
C48   C50   A    
C67   H18   S    
C11   C14   A    
C61   C62   S    
C17   O11   A    
C9    C12   S    
C63   O4    S    
C62   H44   S    
C50   H12   S    
C63   C64   S    
C39   C50   A    
O8    Zn2   S    
C70   H63   S    
C8    C10   A    
C14   H45   S    
C21   C24   A    
O11   Zn2   S    
C60   H41   S    
C38   O5    S    
C33   H7    S    
C62   H47   S    
C25   C37   S    
