data_mof_unit_19303.cif
_audit_creation_date              2012-12-10T17:11:10-0500
_audit_creation_method            fapswitch 2.2
_symmetry_space_group_name_H-M    P1
_symmetry_Int_Tables_number       1
_space_group_crystal_system       triclinic
_cell_length_a                    10.052215
_cell_length_b                    10.791121
_cell_length_c                    16.571311
_cell_angle_alpha                 90.035009
_cell_angle_beta                  86.865335
_cell_angle_gamma                 89.31492
_cell_volume                      1794.74814581

loop_
_atom_site_label
_atom_site_type_symbol
_atom_type_description
_atom_site_fract_x
_atom_site_fract_y
_atom_site_fract_z
_atom_type_partial_charge
C1    C     C_R   0.498048 0.738167 0.502845 0.821536
C2    C     C_R   0.523409 0.539881 0.262735 -0.074078
C3    C     C_2   0.589104 0.068837 0.536096 0.585059
C4    C     C_R   0.482748 0.501358 0.653073 0.843791
C5    C     C_2   0.507706 0.134218 0.491563 -0.426329
C6    C     C_2   0.603778 0.937070 0.519316 0.289803
C7    C     C_2   0.490252 0.871291 0.516975 0.145174
C8    C     C_2   0.080297 0.478230 0.435795 0.627975
C9    C     C_2   0.932507 0.447582 0.444845 0.010391
C10   C     C_R   0.501173 0.263704 0.499364 0.981785
C11   C     C_R   0.516790 0.503438 0.346778 0.860264
C12   C     C_R   0.412444 0.448030 0.792884 -0.166775
C13   C     C_R   0.470453 0.531761 0.737653 -0.013065
C14   C     C_R   0.496065 0.653485 0.760813 -0.166754
C15   C     C_R   0.470961 0.689898 0.840441 -0.200386
C16   C     C_R   0.416357 0.605302 0.896347 0.009979
C17   C     C_R   0.386028 0.484693 0.872591 -0.162435
C18   C     C_3   0.823476 0.959306 0.465423 0.113677
C19   C     C_3   0.796925 0.972258 0.375270 -0.389173
C20   C     C_3   0.874631 0.079553 0.336507 -0.963664
C21   C     C_3   0.257862 0.902748 0.493021 0.155081
C22   C     C_3   0.285187 0.907848 0.400184 -0.415447
C23   C     C_R   0.450033 0.681761 0.161300 0.717699
C24   C     C_3   0.180867 0.835706 0.356654 -0.934168
C25   C     C_3   0.077676 0.509258 0.295712 0.002086
C26   C     C_3   0.044700 0.398416 0.242879 -0.317601
C27   C     C_3   0.993982 0.440466 0.162216 -0.956735
C28   C     C_3   0.887113 0.600742 0.614950 0.260784
C29   C     C_3   0.824045 0.720516 0.648940 -0.331885
C30   C     C_3   0.828291 0.725455 0.740881 -1.007984
C31   C     C_3   0.176186 0.668281 0.990118 0.089565
C32   C     C_3   0.173706 0.810567 0.987873 -0.310432
C33   C     C_3   0.049922 0.859347 0.948317 -0.960961
C34   C     C_R   0.443290 0.639475 0.240222 -0.324857
C35   C     C_R   0.615666 0.485785 0.206847 -0.218609
C36   C     C_R   0.620176 0.525785 0.126876 -0.272911
C37   C     C_R   0.534064 0.620923 0.103496 0.093741
C38   C     C_2   0.406641 0.636416 0.982356 0.492281
C39   C     C_2   0.523795 0.644571 0.017420 -0.263450
F1    F     F_    0.660202 0.121995 0.594418 -0.662155
F2    F     F_    0.098935 0.441518 0.565700 -0.617379
F3    F     F_    0.374014 0.780649 0.141266 -0.689998
H1    H     H_    0.532421 0.720945 0.716983 0.140620
H2    H     H_    0.494539 0.783142 0.858730 0.142777
H3    H     H_    0.922820 0.915436 0.470629 0.149186
H4    H     H_    0.831584 0.050876 0.495204 0.190186
H5    H     H_    0.825745 0.884471 0.343433 0.231515
H6    H     H_    0.689263 0.989458 0.367344 0.208799
H7    H     H_    0.837997 0.168696 0.363418 0.261757
H8    H     H_    0.859778 0.081801 0.270620 0.272028
H9    H     H_    0.982736 0.069402 0.345654 0.270589
H10   H     H_    0.179813 0.974041 0.508160 0.149468
H11   H     H_    0.209825 0.815564 0.513790 0.182705
H12   H     H_    0.686641 0.479239 0.082630 0.166240
H13   H     H_    0.281788 0.005738 0.379628 0.217352
H14   H     H_    0.384384 0.868821 0.380910 0.207054
H15   H     H_    0.183678 0.736622 0.374516 0.272031
H16   H     H_    0.200947 0.842766 0.290276 0.291856
H17   H     H_    0.080097 0.873634 0.371591 0.257483
H18   H     H_    0.143232 0.572401 0.259070 0.205815
H19   H     H_    0.986207 0.564655 0.313081 0.123393
H20   H     H_    0.135578 0.340034 0.231130 0.248340
H21   H     H_    0.967761 0.340640 0.274459 0.203511
H22   H     H_    0.909502 0.506947 0.171843 0.267685
H23   H     H_    0.452617 0.092829 0.444429 0.104611
H24   H     H_    0.959892 0.359073 0.128291 0.262069
H25   H     H_    0.075641 0.485395 0.125803 0.286677
H26   H     H_    0.988677 0.596429 0.637754 0.181625
H27   H     H_    0.833051 0.518563 0.639750 0.163506
H28   H     H_    0.879242 0.801102 0.622979 0.252359
H29   H     H_    0.719418 0.727451 0.631969 0.256272
H30   H     H_    0.779047 0.643157 0.768754 0.276305
H31   H     H_    0.775687 0.810353 0.764131 0.287858
H32   H     H_    0.933120 0.727944 0.758769 0.268991
H33   H     H_    0.085525 0.637893 0.025480 0.157860
H34   H     H_    0.891446 0.383373 0.402993 0.053654
H35   H     H_    0.167988 0.628547 0.928697 0.136470
H36   H     H_    0.173970 0.847296 0.050510 0.272550
H37   H     H_    0.263431 0.845113 0.953207 0.216124
H38   H     H_    0.048932 0.825795 0.884969 0.270571
H39   H     H_    0.050397 0.962233 0.947881 0.274806
H40   H     H_    0.958268 0.828137 0.982535 0.265162
H41   H     H_    0.377177 0.685588 0.284383 0.174655
H42   H     H_    0.680832 0.411083 0.224575 0.161640
H43   H     H_    0.616328 0.641946 0.980021 0.114751
H44   H     H_    0.344853 0.418754 0.916159 0.153773
H45   H     H_    0.387660 0.355261 0.774223 0.151200
N1    N     N_2   0.147950 0.498670 0.499150 0.110967
N2    N     N_2   0.852290 0.498640 0.499130 0.071639
O1    O     O_R   0.386960 0.680940 0.500010 -0.632798
O2    O     O_3   0.368439 0.930778 0.539916 -0.662739
O3    O     O_3   0.150756 0.468450 0.361494 -0.667058
O4    O     O_3   0.898866 0.605412 0.529408 -0.569676
O5    O     O_3   0.288319 0.621635 0.029369 -0.620652
O6    O     O_R   0.613100 0.680900 0.499990 -0.552638
O7    O     O_R   0.373570 0.500040 0.615810 -0.558458
O8    O     O_R   0.599710 0.500000 0.615790 -0.632300
O9    O     O_R   0.386900 0.319100 0.500010 -0.579376
O10   O     O_R   0.613040 0.319060 0.499990 -0.592697
O11   O     O_R   0.400290 0.500000 0.384210 -0.569829
O12   O     O_R   0.626430 0.499960 0.384190 -0.635266
O13   O     O_3   0.729171 0.881062 0.505734 -0.637574
Zn1   Zn    Zn3+2 0.349000 0.500030 0.500020 1.060201
Zn2   Zn    Zn3+2 0.651000 0.499970 0.499980 1.010928

loop_
_geom_bond_atom_site_label_1
_geom_bond_atom_site_label_2
_ccdc_geom_bond_type
C2    C35   A    
C1    O1    A    
C35   C36   A    
C3    C6    S    
C26   C27   S    
C20   H7    S    
C23   F3    S    
C36   C37   A    
C28   H26   S    
C15   H2    S    
C20   H9    S    
C38   C39   D    
C30   H32   S    
C19   H5    S    
O9    Zn1   S    
C18   C19   S    
C18   O13   S    
C4    C13   S    
C10   O9    A    
C20   H8    S    
C4    O7    A    
C19   C20   S    
C24   H15   S    
C12   C17   A    
C8    O3    S    
C9    H34   S    
C33   H40   S    
C2    C34   A    
O10   Zn2   S    
C13   C14   A    
C2    C11   S    
C18   H4    S    
C31   H35   S    
C17   H44   S    
C27   H25   S    
C5    H23   S    
C9    N2    D    
C30   H31   S    
C19   H6    S    
C8    C9    S    
C22   H14   S    
C25   C26   S    
C23   C37   A    
O11   Zn1   S    
C28   O4    S    
C8    N1    D    
C26   H21   S    
C29   C30   S    
C4    O8    A    
C31   H33   S    
C31   C32   S    
C1    O6    A    
C23   C34   A    
C7    O2    S    
C38   O5    S    
C28   H27   S    
C11   O12   A    
C25   H19   S    
C22   H13   S    
C25   H18   S    
C3    F1    S    
O12   Zn2   S    
N2    Zn2   S    
C22   C24   S    
C34   H41   S    
C39   H43   S    
C18   H3    S    
N1    Zn1   S    
O6    Zn2   S    
C29   H28   S    
C21   O2    S    
F2    N1    S    
C28   C29   S    
C25   O3    S    
C12   H45   S    
C1    C7    S    
C3    C5    D    
C30   H30   S    
C35   H42   S    
C33   H38   S    
C6    C7    D    
C31   O5    S    
C32   C33   S    
C26   H20   S    
C5    C10   S    
C37   C39   S    
C27   H24   S    
C32   H37   S    
C21   H11   S    
C16   C17   A    
C24   H17   S    
C6    O13   S    
N2    O4    S    
C10   O10   A    
O1    Zn1   S    
O8    Zn2   S    
C36   H12   S    
C27   H22   S    
C32   H36   S    
C12   C13   A    
C24   H16   S    
O7    Zn1   S    
C14   C15   A    
C11   O11   A    
C21   C22   S    
C33   H39   S    
C21   H10   S    
C15   C16   A    
C16   C38   S    
C14   H1    S    
C29   H29   S    
