data_mof_unit_14454.cif
_audit_creation_date              2012-12-10T17:46:13-0500
_audit_creation_method            fapswitch 2.2
_symmetry_space_group_name_H-M    P1
_symmetry_Int_Tables_number       1
_space_group_crystal_system       triclinic
_cell_length_a                    14.146055
_cell_length_b                    10.68745
_cell_length_c                    9.918038
_cell_angle_alpha                 88.666363
_cell_angle_beta                  89.94946
_cell_angle_gamma                 92.737147
_cell_volume                      1497.34171259

loop_
_atom_site_label
_atom_site_type_symbol
_atom_type_description
_atom_site_fract_x
_atom_site_fract_y
_atom_site_fract_z
_atom_type_partial_charge
C1    C     C_R   0.501321 0.260684 0.501764 0.846898
C2    C     C_R   0.433324 0.063713 0.436809 -0.180747
C3    C     C_R   0.431265 0.934849 0.434222 -0.047764
C4    C     C_R   0.329228 0.499050 0.500109 0.848323
C5    C     C_R   0.508059 0.873389 0.491936 -0.145972
C6    C     C_R   0.374996 0.333751 0.143876 -0.145053
C7    C     C_R   0.314601 0.250654 0.075518 -0.159609
C8    C     C_R   0.315433 0.249935 0.935945 -0.173993
C9    C     C_R   0.376526 0.332500 0.863800 -0.146180
C10   C     C_R   0.439090 0.417498 0.929667 0.161620
C11   C     C_R   0.438738 0.417858 0.074251 0.167678
C12   C     C_1   0.771762 0.489644 0.500026 -0.192550
C13   C     C_R   0.558625 0.578779 0.069418 -0.081603
C14   C     C_R   0.558547 0.578828 0.926333 -0.090299
C15   C     C_R   0.502597 0.739868 0.498173 0.886105
C16   C     C_R   0.670488 0.495576 0.500024 0.901732
C17   C     C_1   0.227637 0.496215 0.500287 -0.192581
C18   C     C_1   0.142270 0.493277 0.500398 0.011103
C19   C     C_1   0.042243 0.489963 0.500463 0.030474
C20   C     C_1   0.956895 0.488013 0.500413 0.035261
C21   C     C_1   0.856959 0.487560 0.500215 0.015277
C22   C     C_2   0.779902 0.143245 0.810491 0.385906
C23   C     C_R   0.648608 0.133457 0.647528 -0.282009
C24   C     C_2   0.814653 0.878123 0.741063 0.433098
C25   C     C_2   0.712785 0.788744 0.501620 0.373823
C26   C     C_2   0.347358 0.866720 0.374495 0.429357
C27   C     C_R   0.720179 0.070617 0.713604 -0.032219
C28   C     C_R   0.733347 0.944052 0.683316 -0.050896
C29   C     C_R   0.672514 0.884618 0.588067 -0.049936
C30   C     C_R   0.586436 0.940187 0.550878 0.091054
C31   C     C_R   0.579512 0.068521 0.569628 0.085540
C32   C     C_R   0.504820 0.128707 0.505501 -0.109865
H1    H     H_    0.376663 0.114391 0.390354 0.171893
H2    H     H_    0.882802 0.927406 0.753306 0.119205
H3    H     H_    0.769211 0.732731 0.538323 0.103679
H4    H     H_    0.337245 0.765925 0.385474 0.070459
H5    H     H_    0.268143 0.185361 0.883052 0.164034
H6    H     H_    0.372563 0.327168 0.756835 0.200281
H7    H     H_    0.606300 0.643323 0.870914 0.184572
H8    H     H_    0.645858 0.232746 0.663261 0.165096
H9    H     H_    0.606440 0.643195 0.121438 0.192894
H10   H     H_    0.369216 0.329392 0.250903 0.193567
H11   H     H_    0.266626 0.186667 0.131388 0.184671
H12   H     H_    0.782031 0.244956 0.805324 0.080502
N1    N     N_R   0.499190 0.498800 0.142780 -0.122385
N2    N     N_R   0.499160 0.498720 0.857170 -0.122580
O1    O     O_R   0.500000 0.316780 0.614690 -0.643362
O2    O     O_2   0.805418 0.768441 0.778098 -0.584895
O3    O     O_2   0.689623 0.779541 0.383553 -0.558281
O4    O     O_2   0.287380 0.923080 0.312573 -0.572850
O5    O     O_R   0.499990 0.316750 0.385360 -0.622471
O6    O     O_R   0.373720 0.500010 0.614690 -0.609089
O7    O     O_R   0.373710 0.499990 0.385360 -0.622735
O8    O     O_R   0.500010 0.683250 0.614640 -0.610863
O9    O     O_R   0.500000 0.683220 0.385310 -0.580292
O10   O     O_R   0.626290 0.500010 0.614640 -0.606896
O11   O     O_R   0.626280 0.499990 0.385310 -0.558885
O12   O     O_2   0.823685 0.091952 0.900376 -0.551873
Zn1   Zn    Zn3+2 0.500010 0.500020 0.653130 0.941296
Zn2   Zn    Zn3+2 0.499990 0.499980 0.346870 0.973332

loop_
_geom_bond_atom_site_label_1
_geom_bond_atom_site_label_2
_ccdc_geom_bond_type
C10   N2    A    
C16   O10   A    
N1    Zn2   S    
C22   O12   D    
C6    C7    A    
O6    Zn1   S    
C23   C27   A    
C4    O7    A    
C24   C28   S    
C9    C10   A    
C31   C32   A    
O10   Zn1   S    
C30   C31   A    
C16   O11   A    
C13   H9    S    
C17   C18   T    
C7    C8    A    
C14   N2    A    
C13   C14   A    
C13   N1    A    
C1    O5    A    
C29   C30   A    
C22   H12   S    
C4    O6    A    
C4    C17   S    
C2    H1    S    
C26   H4    S    
C28   C29   A    
O7    Zn2   S    
C25   H3    S    
C2    C3    A    
C7    H11   S    
O8    Zn1   S    
C26   O4    D    
C25   C29   S    
C22   C27   S    
N2    Zn1   S    
C25   O3    D    
C11   N1    A    
C5    C15   S    
C10   C11   A    
C1    C32   S    
O1    Zn1   S    
C23   H8    S    
C24   O2    D    
C15   O8    A    
C12   C16   S    
C6    C11   A    
C20   C21   S    
C2    C32   A    
C18   C19   S    
C8    H5    S    
C27   C28   A    
C1    O1    A    
O11   Zn2   S    
C9    H6    S    
O5    Zn2   S    
C14   H7    S    
O9    Zn2   S    
C6    H10   S    
C12   C21   T    
C3    C26   S    
C24   H2    S    
C19   C20   T    
C5    C30   A    
C23   C31   A    
C8    C9    A    
C3    C5    A    
C15   O9    A    
