data_mof_unit_50039.cif
_audit_creation_date              2012-12-10T16:57:09-0500
_audit_creation_method            fapswitch 2.2
_symmetry_space_group_name_H-M    P1
_symmetry_Int_Tables_number       1
_space_group_crystal_system       triclinic
_cell_length_a                    7.7525
_cell_length_b                    8.571444
_cell_length_c                    16.622563
_cell_angle_alpha                 91.759692
_cell_angle_beta                  82.065243
_cell_angle_gamma                 93.467213
_cell_volume                      1091.71422748

loop_
_atom_site_label
_atom_site_type_symbol
_atom_type_description
_atom_site_fract_x
_atom_site_fract_y
_atom_site_fract_z
_atom_type_partial_charge
C1    C     C_R   0.546007 0.794732 0.497944 0.945992
C2    C     C_R   0.380345 0.495961 0.215370 0.084673
C3    C     C_R   0.578688 0.276938 0.834561 -0.162315
C4    C     C_R   0.385817 0.439812 0.134877 -0.130243
C5    C     C_R   0.419987 0.280299 0.885529 0.085783
C6    C     C_R   0.527928 0.359498 0.097166 0.117873
C7    C     C_R   0.277890 0.344652 0.858336 -0.144697
C8    C     C_R   0.668710 0.336464 0.137944 -0.133504
C9    C     C_R   0.299857 0.417178 0.783600 -0.260661
C10   C     C_R   0.665277 0.387137 0.217669 -0.233216
C11   C     C_2   0.417175 0.260230 0.973070 0.421300
C12   C     C_R   0.453999 0.205256 0.502047 0.953581
C13   C     C_2   0.547266 0.328760 0.010241 0.407569
C14   C     C_3   0.799992 0.435192 0.746254 -0.371623
C15   C     C_3   0.832391 0.590284 0.793363 -0.328437
C16   C     C_3   0.922570 0.718828 0.738679 -0.787257
C17   C     C_3   0.228557 0.589788 0.255299 -0.384168
C18   C     C_3   0.108648 0.649764 0.197976 -0.393645
C19   C     C_3   0.974826 0.755928 0.243500 -0.796648
C20   C     C_2   0.570431 0.958017 0.496734 -0.374519
C21   C     C_2   0.429586 0.041973 0.503270 -0.367599
C22   C     C_R   0.479424 0.494279 0.654765 0.835534
C23   C     C_R   0.519635 0.495874 0.345184 0.823483
C24   C     C_R   0.466514 0.437153 0.738191 -0.064281
C25   C     C_R   0.521882 0.464484 0.257812 -0.072818
C26   C     C_R   0.611201 0.373514 0.767624 0.120186
F1    F     F_    0.693721 0.396888 0.967557 -0.715774
F2    F     F_    0.268411 0.200684 0.017620 -0.693952
F3    F     F_    0.032769 0.336932 0.440227 -0.585799
F4    F     F_    0.970572 0.668639 0.554873 -0.602740
H1    H     H_    0.774998 0.362775 0.248286 0.188619
H2    H     H_    0.835206 0.751120 0.695037 0.300173
H3    H     H_    0.951489 0.824067 0.776227 0.236517
H4    H     H_    0.708267 0.634744 0.824893 0.247427
H5    H     H_    0.914674 0.569697 0.841332 0.245106
H6    H     H_    0.888291 0.349195 0.764615 0.162833
H7    H     H_    0.844861 0.443802 0.680618 0.247280
H8    H     H_    0.895157 0.692769 0.294334 0.269834
H9    H     H_    0.041384 0.861699 0.268081 0.269174
H10   H     H_    0.886627 0.793216 0.201346 0.255890
H11   H     H_    0.187638 0.717048 0.148305 0.245446
H12   H     H_    0.187412 0.462641 0.762661 0.175307
H13   H     H_    0.036611 0.549394 0.171304 0.236699
H14   H     H_    0.146344 0.515717 0.301029 0.258157
H15   H     H_    0.283772 0.693639 0.286828 0.211965
H16   H     H_    0.152885 0.346361 0.896557 0.195247
H17   H     H_    0.782061 0.279763 0.107743 0.184117
H18   H     H_    0.283806 0.462649 0.099371 0.156475
H19   H     H_    0.686531 0.222447 0.855495 0.174332
H20   H     H_    0.703598 0.008617 0.490470 0.212100
H21   H     H_    0.296422 0.991364 0.509533 0.211881
H22   H     H_    0.047169 0.679774 0.705359 0.288343
N1    N     N_2   0.953500 0.457650 0.478520 0.244644
N2    N     N_2   0.046500 0.542350 0.521480 0.239281
O1    O     O_R   0.388470 0.738640 0.505270 -0.598749
O2    O     O_R   0.611530 0.261360 0.494730 -0.602801
O3    O     O_R   0.679650 0.711510 0.491500 -0.567983
O4    O     O_R   0.320350 0.288490 0.508500 -0.568393
O5    O     O_R   0.337210 0.515200 0.623500 -0.626515
O6    O     O_R   0.662790 0.484800 0.376500 -0.622611
O7    O     O_R   0.628380 0.488060 0.609730 -0.609282
O8    O     O_R   0.371620 0.511940 0.390270 -0.602123
Zn1   Zn    Zn3+2 0.305580 0.518120 0.509190 1.075215
Zn2   Zn    Zn3+2 0.694420 0.481880 0.490810 1.074312

loop_
_geom_bond_atom_site_label_1
_geom_bond_atom_site_label_2
_ccdc_geom_bond_type
O7    Zn2   S    
C2    C4    A    
O2    Zn2   S    
C9    C24   A    
O8    Zn1   S    
C19   H8    S    
C1    O3    A    
C16   H3    S    
C16   H2    S    
C11   C13   D    
C15   H4    S    
O5    Zn1   S    
O6    Zn2   S    
C12   O4    A    
C17   C18   S    
C3    H19   S    
C8    H17   S    
C22   O5    A    
C18   H13   S    
C14   C26   S    
C2    C17   S    
C14   H6    S    
F4    N2    S    
C9    H12   S    
C12   O2    A    
F3    N1    S    
C11   F2    S    
C20   H20   S    
C19   H9    S    
C10   C25   A    
C8    C10   A    
C24   C26   A    
C5    C11   S    
C2    C25   A    
C19   H10   S    
C23   C25   S    
C1    O1    A    
C23   O6    A    
N1    Zn2   S    
C22   C24   S    
C17   H14   S    
C4    C6    A    
N2    Zn1   S    
C15   C16   S    
C12   C21   S    
C7    H16   S    
C7    C9    A    
C22   O7    A    
C21   H21   S    
C20   C21   D    
O3    Zn2   S    
C14   H7    S    
C18   C19   S    
C4    H18   S    
C18   H11   S    
C15   H5    S    
O4    Zn1   S    
C5    C7    A    
C14   C15   S    
C13   F1    S    
C1    C20   S    
C6    C8    A    
C23   O8    A    
C3    C5    A    
N1    N2    D    
C10   H1    S    
C3    C26   A    
C16   H22   S    
C17   H15   S    
C6    C13   S    
O1    Zn1   S    
