data_mof_unit_35788.cif
_audit_creation_date              2012-12-10T17:38:46-0500
_audit_creation_method            fapswitch 2.2
_symmetry_space_group_name_H-M    P1
_symmetry_Int_Tables_number       1
_space_group_crystal_system       triclinic
_cell_length_a                    12.311557
_cell_length_b                    13.157905
_cell_length_c                    23.500415
_cell_angle_alpha                 77.936188
_cell_angle_beta                  100.804208
_cell_angle_gamma                 116.514666
_cell_volume                      3311.95100914

loop_
_atom_site_label
_atom_site_type_symbol
_atom_type_description
_atom_site_fract_x
_atom_site_fract_y
_atom_site_fract_z
_atom_type_partial_charge
C1    C     C_R   0.854926 0.286531 0.504934 0.767696
C2    C     C_R   0.905465 0.282565 0.045886 -0.156992
C3    C     C_R   0.908342 0.282847 0.986848 -0.161667
C4    C     C_R   0.941631 0.385757 0.947778 0.002873
C5    C     C_R   0.971479 0.489178 0.968521 -0.017882
C6    C     C_R   0.003898 0.592388 0.929483 -0.084748
C7    C     C_R   0.033264 0.694938 0.950275 -0.246073
C8    C     C_R   0.034223 0.696816 0.009774 0.496340
C9    C     C_R   0.945907 0.388069 0.888237 0.529759
C10   C     C_R   0.006808 0.590574 0.870316 0.561129
C11   C     C_R   0.897191 0.513146 0.747931 -0.104693
C12   C     C_R   0.998528 0.499060 0.608928 0.788673
C13   C     C_R   0.902471 0.516094 0.688882 -0.222286
C14   C     C_R   0.993782 0.496306 0.671421 -0.038454
C15   C     C_R   0.079190 0.472860 0.714223 -0.217358
C16   C     C_R   0.073570 0.469830 0.773340 -0.103241
C17   C     C_R   0.982750 0.490228 0.790343 0.353049
C18   C     C_R   0.872743 0.447596 0.236309 -0.085102
C19   C     C_R   0.882921 0.452165 0.295842 -0.269301
C20   C     C_R   0.998232 0.497687 0.328333 -0.166574
C21   C     C_R   0.104893 0.539848 0.299550 0.358607
C22   C     C_R   0.092820 0.533944 0.239769 -0.163503
C23   C     C_R   0.145121 0.713454 0.491355 0.824629
C24   C     C_R   0.977720 0.488870 0.208165 0.277888
C25   C     C_R   0.276768 0.021045 0.420897 -0.171053
C26   C     C_R   0.228320 0.834562 0.478853 -0.042718
C27   C     C_R   0.815044 0.084721 0.542512 -0.177728
C28   C     C_R   0.736224 0.969561 0.553494 -0.139479
C29   C     C_R   0.613191 0.931893 0.532779 -0.175485
C30   C     C_R   0.566855 0.008995 0.498349 0.082579
C31   C     C_R   0.650551 0.123639 0.481330 0.080662
C32   C     C_R   0.440420 0.975796 0.479699 0.078570
C33   C     C_R   0.401285 0.053012 0.439711 0.157449
C34   C     C_R   0.001359 0.501158 0.391008 0.849139
C35   C     C_R   0.486952 0.160257 0.417943 -0.219457
C36   C     C_R   0.609809 0.194593 0.437789 -0.189779
C37   C     C_R   0.351259 0.868417 0.500183 -0.215459
C38   C     C_R   0.190611 0.911869 0.440061 -0.199915
C39   C     C_R   0.773104 0.163366 0.507831 -0.097666
C40   C     C_R   0.342070 0.322854 0.590497 -0.292776
C41   C     C_R   0.761644 0.647785 0.422232 0.066825
C42   C     C_R   0.667800 0.683159 0.406966 -0.224775
C43   C     C_R   0.564806 0.629207 0.437211 -0.123720
C44   C     C_R   0.553948 0.537971 0.483065 -0.022090
C45   C     C_R   0.998503 0.589511 0.109578 0.570427
C46   C     C_R   0.653379 0.505834 0.497683 0.284850
C47   C     C_R   0.448677 0.477358 0.514812 -0.039526
C48   C     C_R   0.444881 0.385838 0.559882 0.172008
C49   C     C_R   0.543929 0.358053 0.574464 -0.275969
C50   C     C_R   0.646276 0.417535 0.544529 -0.185215
C51   C     C_R   0.345730 0.502581 0.503735 0.076411
C52   C     C_R   0.242742 0.350157 0.576311 0.064843
C53   C     C_R   0.936555 0.386733 0.126656 0.547903
C54   C     C_R   0.936078 0.385219 0.067164 0.005990
C55   C     C_R   0.969025 0.489240 0.028367 -0.081650
C56   C     C_R   0.000229 0.593070 0.049345 -0.126471
Cu1   Cu    Cu3+1 0.098270 0.475410 0.513370 0.984188
Cu2   Cu    Cu3+1 0.901730 0.524590 0.486630 0.927441
H1    H     H_    0.879892 0.201695 0.074851 0.191590
H2    H     H_    0.800030 0.419308 0.316726 0.171010
H3    H     H_    0.173038 0.565336 0.217045 0.180899
H4    H     H_    0.095627 0.886501 0.422839 0.153682
H5    H     H_    0.458892 0.218166 0.385475 0.160539
H6    H     H_    0.246462 0.079480 0.390179 0.151933
H7    H     H_    0.374871 0.808376 0.532600 0.140266
H8    H     H_    0.908668 0.112624 0.562387 0.154070
H9    H     H_    0.557594 0.841385 0.543324 0.128615
H10   H     H_    0.769955 0.909475 0.579811 0.147367
H11   H     H_    0.884737 0.202226 0.971993 0.192146
H12   H     H_    0.672257 0.276322 0.417162 0.173270
H13   H     H_    0.162541 0.301359 0.599382 0.125455
H14   H     H_    0.542609 0.289546 0.609630 0.158773
H15   H     H_    0.338352 0.252618 0.624941 0.145237
H16   H     H_    0.342380 0.572794 0.471734 0.192790
H17   H     H_    0.841791 0.690712 0.398875 0.135337
H18   H     H_    0.495562 0.660823 0.423855 0.206232
H19   H     H_    0.675118 0.752923 0.371758 0.173600
H20   H     H_    0.717953 0.391187 0.560003 0.207827
H21   H     H_    0.056397 0.774761 0.920526 0.201250
H22   H     H_    0.826623 0.528748 0.760824 0.141763
H23   H     H_    0.835014 0.533890 0.656999 0.162829
H24   H     H_    0.150311 0.457010 0.702101 0.159211
H25   H     H_    0.140240 0.452421 0.805964 0.143119
H26   H     H_    0.783342 0.412786 0.211938 0.154695
N1    N     N_R   0.968560 0.487868 0.146569 -0.466511
N2    N     N_R   0.978442 0.489523 0.850984 -0.468930
N3    N     N_R   0.246280 0.438190 0.533650 -0.190579
N4    N     N_R   0.754320 0.561190 0.466710 -0.208970
O1    O     O_R   0.972510 0.318130 0.516820 -0.582370
O2    O     O_2   0.907154 0.288303 0.164541 -0.529826
O3    O     O_2   0.917077 0.289779 0.867616 -0.537163
O4    O     O_2   0.039015 0.689151 0.832461 -0.539958
O5    O     O_R   0.806530 0.359650 0.494230 -0.606248
O6    O     O_R   0.082990 0.479200 0.593420 -0.587879
O7    O     O_R   0.917010 0.520720 0.570830 -0.601833
O8    O     O_R   0.193470 0.640350 0.505770 -0.569004
O9    O     O_R   0.027490 0.681870 0.483180 -0.593555
O10   O     O_R   0.082990 0.479280 0.429170 -0.502286
O11   O     O_R   0.917010 0.520800 0.406580 -0.602367
O12   O     O_2   0.026859 0.686411 0.131420 -0.475566
S1    S     S_3+6 0.254351 0.602589 0.335243 -0.020532
O13   O     O_2   0.286235 0.507653 0.369204 -0.288686
O14   O     O_2   0.344947 0.671446 0.291489 -0.290031
O15   O     O_3   0.262593 0.688966 0.381030 -0.558027
H27   H     H_    0.233897 0.744926 0.356299 0.338155
O16   O     O_3   0.061722 0.799645 0.028182 -0.530697
C57   C     C_3   0.189351 0.865084 0.031904 -0.211581
H28   H     H_    0.222591 0.892526 0.987915 0.137815
H29   H     H_    0.238354 0.817373 0.061552 0.162207
H30   H     H_    0.211878 0.943801 0.050587 0.199793

loop_
_geom_bond_atom_site_label_1
_geom_bond_atom_site_label_2
_ccdc_geom_bond_type
C55   C56   A    
S1    O13   D    
C41   C42   A    
C35   C36   A    
C51   H16   S    
C43   C44   A    
C9    O3    S    
C7    C8    A    
C53   C54   A    
C23   O8    A    
Cu1   O1    S    
C18   C24   A    
C28   C29   A    
C28   H10   S    
Cu2   O5    S    
C5    C6    A    
C9    N2    A    
O16   C57   S    
C15   C16   A    
C13   H23   S    
C40   H15   S    
C18   C19   A    
C23   C26   S    
C33   C35   A    
C29   H9    S    
C10   N2    A    
C19   C20   A    
C45   C56   A    
C44   C46   A    
C16   C17   A    
Cu1   O8    S    
C37   H7    S    
C18   H26   S    
C57   H28   S    
C12   O7    A    
C24   N1    S    
C44   C47   A    
C21   S1    S    
C10   O4    S    
S1    O14   D    
C21   C22   A    
C8    C56   A    
C57   H29   S    
C12   O6    A    
Cu2   O9    S    
C50   H20   S    
O15   H27   S    
C36   H12   S    
C15   H24   S    
C46   N4    A    
C27   C39   A    
C17   N2    S    
C2    C54   A    
C51   N3    A    
C2    H1    S    
C26   C38   A    
C47   C51   A    
C40   C52   A    
C49   H14   S    
C16   H25   S    
Cu1   N3    S    
Cu2   N4    S    
C25   H6    S    
C45   N1    A    
Cu2   O7    S    
C29   C30   A    
C25   C38   A    
C41   H17   S    
C47   C48   A    
C34   O11   A    
C32   C37   A    
C48   C49   A    
C23   O9    A    
C12   C14   S    
S1    O15   S    
Cu1   O6    S    
C57   H30   S    
C22   C24   A    
C42   C43   A    
C3    C4    A    
C53   O2    S    
C7    H21   S    
C43   H18   S    
C40   C48   A    
C41   N4    A    
C54   C55   A    
C11   C17   A    
C1    O1    A    
C3    H11   S    
C14   C15   A    
C5    C55   A    
C52   N3    A    
Cu2   O11   S    
C4    C5    A    
C45   O12   S    
C8    O16   S    
C6    C10   A    
C53   N1    A    
C26   C37   A    
C6    C7    A    
C19   H2    S    
C46   C50   A    
C32   C33   A    
C2    C3    A    
C20   C34   S    
C27   H8    S    
C22   H3    S    
C30   C32   A    
C11   C13   A    
Cu1   Cu2   S    
C30   C31   A    
Cu1   O10   S    
C34   O10   A    
C31   C39   A    
C11   H22   S    
C1    C39   S    
C20   C21   A    
C42   H19   S    
C1    O5    A    
C49   C50   A    
C27   C28   A    
C52   H13   S    
C31   C36   A    
C35   H5    S    
C4    C9    A    
C13   C14   A    
C25   C33   A    
C38   H4    S    
