data_mof_unit_68250.cif
_audit_creation_date              2012-10-26T18:25:36-0400
_audit_creation_method            fapswitch 2.2
_symmetry_space_group_name_H-M    P1
_symmetry_Int_Tables_number       1
_space_group_crystal_system       triclinic
_cell_length_a                    7.702478
_cell_length_b                    8.8065
_cell_length_c                    11.165604
_cell_angle_alpha                 79.801952
_cell_angle_beta                  70.93671
_cell_angle_gamma                 104.279708
_cell_volume                      665.72760393

loop_
_atom_site_label
_atom_site_type_symbol
_atom_type_description
_atom_site_fract_x
_atom_site_fract_y
_atom_site_fract_z
_atom_type_partial_charge
C1    C     C_R   0.450322 0.199139 0.503985 0.517699
C2    C     C_2   0.574683 0.970416 0.494092 -0.131329
C3    C     C_R   0.896437 0.302780 0.649534 0.206571
C4    C     C_R   0.978738 0.209022 0.720852 -0.033431
C5    C     C_R   0.877438 0.058663 0.817377 -0.128733
C6    C     C_R   0.680544 0.990211 0.855659 -0.098570
C7    C     C_R   0.585584 0.076661 0.801322 -0.170500
C8    C     C_R   0.688707 0.227999 0.705489 -0.081738
C9    C     C_R   0.103563 0.697220 0.350466 0.206571
C10   C     C_R   0.021262 0.790978 0.279148 -0.033432
C11   C     C_R   0.122562 0.941337 0.182623 -0.128733
C12   C     C_R   0.549678 0.800861 0.496015 0.517699
C13   C     C_R   0.319456 0.009789 0.144341 -0.098570
C14   C     C_R   0.414415 0.923339 0.198679 -0.170500
C15   C     C_R   0.311293 0.772001 0.294511 -0.081738
C16   C     C_R   0.419553 0.489816 0.743796 0.546481
C17   C     C_R   0.580447 0.510184 0.256204 0.546481
C18   C     C_2   0.370818 0.469878 0.886169 0.210089
C19   C     C_2   0.629182 0.530122 0.113830 0.210088
C20   C     C_2   0.515659 0.514538 0.929425 -0.117476
C21   C     C_2   0.484341 0.485463 0.070575 -0.117476
C22   C     C_2   0.425317 0.029584 0.505908 -0.131329
Cl1   Cl    Cl    0.873490 0.630852 0.004130 -0.593957
Cl2   Cl    Cl    0.126511 0.369146 0.995870 -0.593958
Cu1   Cu    Cu3+1 0.688910 0.517800 0.485820 0.938224
Cu2   Cu    Cu3+1 0.311090 0.482200 0.514180 0.938224
H1    H     H_    0.336421 0.425633 0.142549 0.192468
H2    H     H_    0.876798 0.760328 0.289288 0.180143
H3    H     H_    0.046252 0.004435 0.136633 0.160014
H4    H     H_    0.398728 0.126209 0.070014 0.157046
H5    H     H_    0.571353 0.973042 0.164919 0.134511
H6    H     H_    0.416341 0.731267 0.312562 0.177568
H7    H     H_    0.663579 0.574369 0.857450 0.192467
H8    H     H_    0.283487 0.953252 0.517033 0.150516
H9    H     H_    0.716513 0.046748 0.482967 0.150516
H10   H     H_    0.123202 0.239671 0.710712 0.180143
H11   H     H_    0.953748 0.995565 0.863367 0.160013
H12   H     H_    0.601272 0.873791 0.929986 0.157045
H13   H     H_    0.428647 0.026958 0.835081 0.134511
H14   H     H_    0.583659 0.268733 0.687438 0.177568
N1    N     N_2   0.027170 0.455360 0.535550 -0.144934
N2    N     N_2   0.972830 0.544640 0.464450 -0.144935
O1    O     O_R   0.622710 0.286400 0.490790 -0.517380
O2    O     O_R   0.377290 0.713600 0.509210 -0.517380
O3    O     O_R   0.303660 0.256330 0.514730 -0.530325
O4    O     O_R   0.696340 0.743670 0.485270 -0.530325
O5    O     O_R   0.600900 0.509520 0.671740 -0.551790
O6    O     O_R   0.399100 0.490480 0.328260 -0.551790
O7    O     O_R   0.281840 0.479450 0.695690 -0.471164
O8    O     O_R   0.718160 0.520550 0.304310 -0.471164

loop_
_geom_bond_atom_site_label_1
_geom_bond_atom_site_label_2
_ccdc_geom_bond_type
Cu1   N2    S    
C2    H9    S    
C17   O8    A    
C19   Cl1   S    
C4    H10   S    
C2    C22   D    
C6    C7    A    
C5    H11   S    
C9    C10   A    
Cu1   O5    S    
C17   O6    A    
Cu2   O6    S    
C14   H5    S    
C2    C12   S    
Cu1   O1    S    
C6    H12   S    
C9    C15   A    
Cu2   O2    S    
C1    C22   S    
C12   O2    A    
C13   C14   A    
C20   C21   S    
C11   C13   A    
C1    O3    A    
C9    N2    S    
C18   Cl2   S    
C20   H7    S    
C16   O5    A    
C12   O4    A    
C17   C19   S    
C18   C20   D    
C21   H1    S    
C5    C6    A    
C22   H8    S    
C10   C11   A    
C3    C4    A    
C13   H4    S    
C7    C8    A    
C16   O7    A    
C11   H3    S    
C16   C18   S    
C3    C8    A    
N1    N2    D    
Cu2   O7    S    
C10   H2    S    
C7    H13   S    
Cu1   O8    S    
C3    N1    S    
C8    H14   S    
Cu2   O3    S    
C19   C21   D    
Cu1   Cu2   S    
C14   C15   A    
Cu1   O4    S    
C1    O1    A    
Cu2   N1    S    
C4    C5    A    
C15   H6    S    
