data_mof_unit_17778.cif
_audit_creation_date              2012-12-11T15:46:45-0500
_audit_creation_method            fapswitch 2.2
_symmetry_space_group_name_H-M    P1
_symmetry_Int_Tables_number       1
_space_group_crystal_system       triclinic
_cell_length_a                    11.5193
_cell_length_b                    11.568793
_cell_length_c                    19.526552
_cell_angle_alpha                 90.341975
_cell_angle_beta                  89.908091
_cell_angle_gamma                 60.063035
_cell_volume                      2254.92463025

loop_
_atom_site_label
_atom_site_type_symbol
_atom_type_description
_atom_site_fract_x
_atom_site_fract_y
_atom_site_fract_z
_atom_type_partial_charge
C1    C     C_R   0.640557 0.117086 0.599232 0.546372
C2    C     C_1   0.641320 0.703627 0.667935 0.003843
C3    C     C_1   0.126926 0.199206 0.859372 0.003933
C4    C     C_1   0.171336 0.170177 0.727708 -0.030967
C5    C     C_1   0.150268 0.182499 0.798977 -0.031348
C6    C     C_1   0.195006 0.160646 0.667312 0.004126
C7    C     C_1   0.678375 0.191470 0.860843 0.003082
C8    C     C_1   0.658678 0.167018 0.729023 -0.030925
C9    C     C_1   0.665567 0.180952 0.800370 -0.031218
C10   C     C_1   0.653228 0.149324 0.668606 0.004003
C11   C     C_R   0.644310 0.704581 0.183243 0.014685
C12   C     C_R   0.612618 0.745684 0.598558 0.548312
C13   C     C_R   0.533535 0.717413 0.220566 -0.007741
C14   C     C_R   0.530251 0.726127 0.289881 0.006104
C15   C     C_R   0.725109 0.749196 0.289409 -0.124807
C16   C     C_R   0.731820 0.742282 0.217097 0.220510
C17   C     C_3   0.460799 0.638585 0.223686 -0.258646
C18   C     C_3   0.457712 0.651697 0.300644 -0.272563
C19   C     C_R   0.632855 0.725773 0.326204 -0.029585
C20   C     C_R   0.127639 0.207619 0.195442 0.025845
C21   C     C_R   0.069652 0.311901 0.243236 0.029383
C22   C     C_R   0.097552 0.289657 0.311760 0.014613
C23   C     C_R   0.240834 0.145188 0.598094 0.545824
C24   C     C_R   0.222928 0.053153 0.289614 -0.165261
C25   C     C_R   0.198397 0.076324 0.219427 -0.173425
C26   C     C_3   0.068970 0.441123 0.246240 -0.274048
C27   C     C_3   0.100754 0.416204 0.321636 -0.268156
C28   C     C_R   0.180411 0.161185 0.335724 0.017718
C29   C     C_R   0.691799 0.204503 0.201622 0.036559
C30   C     C_R   0.803710 0.142392 0.244688 0.035216
C31   C     C_R   0.790672 0.125808 0.313439 0.010838
C32   C     C_R   0.550809 0.255793 0.301353 -0.155812
C33   C     C_R   0.564730 0.273455 0.231759 -0.175454
C34   C     C_R   0.644820 0.114559 0.403440 0.549254
C35   C     C_3   0.926360 0.008465 0.239639 -0.270653
C36   C     C_3   0.915452 0.993367 0.315745 -0.272649
C37   C     C_R   0.664333 0.168927 0.340740 0.023113
C38   C     C_R   0.081833 0.231385 0.928671 0.549382
C39   C     C_R   0.683863 0.604811 0.929607 0.543319
C40   C     C_R   0.708300 0.206816 0.930193 0.548752
C41   C     C_R   0.082526 0.236738 0.125412 0.546653
C42   C     C_R   0.679374 0.619918 0.122489 0.528349
C43   C     C_R   0.712530 0.214765 0.129253 0.554493
C44   C     C_R   0.612691 0.748335 0.399334 0.548686
C45   C     C_R   0.244090 0.139854 0.401662 0.547642
C46   C     C_1   0.670563 0.646825 0.860220 0.004483
C47   C     C_1   0.654923 0.683576 0.728418 -0.031509
C48   C     C_1   0.663657 0.666865 0.799723 -0.031400
Cr1   Cr    Cr6+3 0.404720 0.198220 0.499960 1.021433
Cr2   Cr    Cr6+3 0.698290 0.897110 0.500380 1.022271
Cr3   Cr    Cr6+3 0.396970 0.904720 0.499610 1.025173
Cr4   Cr    Cr6+3 0.926290 0.152010 0.028150 1.011788
Cr5   Cr    Cr6+3 0.921440 0.451830 0.027490 0.996608
Cr6   Cr    Cr6+3 0.626370 0.446880 0.028730 1.020719
H1    H     H_    0.790369 0.775893 0.316478 0.147927
H2    H     H_    0.150387 0.440713 0.215331 0.136281
H3    H     H_    0.201570 0.400960 0.333827 0.153764
H4    H     H_    0.018107 0.488492 0.355373 0.137579
H5    H     H_    0.450288 0.298783 0.321979 0.137355
H6    H     H_    0.476413 0.332491 0.201080 0.117643
H7    H     H_    0.016261 0.012166 0.223878 0.147597
H8    H     H_    0.906117 0.939357 0.210523 0.203054
H9    H     H_    0.898800 0.909277 0.328275 0.163817
H10   H     H_    0.995828 0.996913 0.345504 0.139542
H11   H     H_    0.522186 0.532558 0.207593 0.175318
H12   H     H_    0.359505 0.693115 0.200375 0.127945
H13   H     H_    0.355157 0.715598 0.321734 0.139675
H14   H     H_    0.519576 0.555124 0.327170 0.145789
H15   H     H_    0.284213 0.951847 0.306854 0.143142
H16   H     H_    0.235761 0.992548 0.184142 0.121324
H17   H     H_    0.967427 0.526061 0.237994 0.148295
O1    O     O_R   0.267750 0.231960 0.575440 -0.504387
O2    O     O_R   0.685950 0.784660 0.430010 -0.512665
O3    O     O_R   0.502510 0.767000 0.423980 -0.513900
O4    O     O_R   0.288320 0.026340 0.429250 -0.510251
O5    O     O_3   0.499990 0.000020 0.499980 -0.253970
O6    O     O_R   0.821590 0.119350 0.952850 -0.508617
O7    O     O_R   0.037230 0.162540 0.957390 -0.493586
O8    O     O_R   0.056530 0.344750 0.951370 -0.505283
O9    O     O_R   0.798000 0.560370 0.957490 -0.501528
O10   O     O_R   0.596230 0.579400 0.952760 -0.504404
O11   O     O_R   0.639160 0.321170 0.958690 -0.491176
O12   O     O_R   0.527290 0.186640 0.570530 -0.493723
O13   O     O_R   0.821370 0.124220 0.104400 -0.531180
O14   O     O_R   0.037020 0.167050 0.097880 -0.506346
O15   O     O_R   0.056310 0.349620 0.102920 -0.528459
O16   O     O_R   0.797790 0.564880 0.097980 -0.538602
O17   O     O_R   0.596000 0.584270 0.104310 -0.521074
O18   O     O_R   0.638950 0.325690 0.099180 -0.509991
O19   O     O_3   0.824700 0.350240 0.028120 -0.246636
O20   O     O_R   0.728110 0.003450 0.576380 -0.505095
O21   O     O_R   0.682980 0.789190 0.570500 -0.492676
O22   O     O_R   0.499300 0.771880 0.575540 -0.503870
O23   O     O_R   0.285350 0.030870 0.569740 -0.494114
O24   O     O_R   0.270960 0.227070 0.423890 -0.524165
O25   O     O_R   0.530270 0.182120 0.430040 -0.510889
O26   O     O_R   0.731320 0.998570 0.424830 -0.524629
O27   O     O_3   0.800007 0.801259 0.186207 -0.588777
C49   C     C_3   0.878012 0.732954 0.128135 0.002168
H18   H     H_    0.811689 0.756258 0.082926 0.170732
H19   H     H_    0.941848 0.625352 0.138629 0.176024
C50   C     C_3   0.978709 0.776256 0.109464 -0.411490
H20   H     H_    0.050345 0.755182 0.151991 0.127131
H21   H     H_    0.037311 0.718710 0.063858 0.101195
H22   H     H_    0.926511 0.882904 0.095873 0.191268

loop_
_geom_bond_atom_site_label_1
_geom_bond_atom_site_label_2
_ccdc_geom_bond_type
C21   C26   S    
C43   O13   A    
C34   C37   S    
C14   C18   S    
Cr4   O19   S    
C35   C36   S    
Cr3   O3    S    
C2    C12   S    
C20   C41   S    
C15   C19   A    
C41   O15   A    
C26   C27   S    
C43   O18   A    
C30   C35   S    
C11   C42   S    
Cr4   O14   S    
Cr5   O8    S    
C34   O25   A    
Cr6   O19   S    
C30   C31   A    
C20   C25   A    
C18   H14   S    
C15   C16   A    
C29   C33   A    
C34   O26   A    
C50   H22   S    
Cr4   O13   S    
C49   H18   S    
C3    C38   S    
C8    C9    S    
Cr1   O1    S    
C7    C40   S    
Cr5   O15   S    
C36   H9    S    
C1    O20   A    
C22   C28   A    
C13   C14   A    
C29   C43   S    
C26   H17   S    
C44   O2    A    
Cr4   O7    S    
C23   O1    A    
C24   H15   S    
C46   C48   T    
C28   C45   S    
C40   O11   A    
Cr5   O9    S    
C24   C25   A    
C39   O10   A    
Cr6   O18   S    
C4    C6    T    
C27   H3    S    
Cr2   O2    S    
C38   O7    A    
C18   H13   S    
Cr1   O24   S    
C31   C37   A    
C15   H1    S    
C44   O3    A    
C29   C30   A    
Cr2   O5    S    
C11   C16   A    
C47   C48   S    
C17   C18   S    
C17   H12   S    
Cr1   O5    S    
Cr5   O16   S    
C32   C37   A    
Cr3   O5    S    
C50   H21   S    
Cr3   O22   S    
C39   C46   S    
Cr2   O21   S    
C49   H19   S    
C33   H6    S    
C22   C27   S    
C12   O22   A    
C42   O17   A    
Cr4   O6    S    
C45   O24   A    
Cr6   O11   S    
C19   C44   S    
C7    C9    T    
Cr2   O26   S    
C31   C36   S    
C14   C19   A    
C12   O21   A    
C1    C10   S    
C24   C28   A    
Cr3   O4    S    
C4    C5    S    
C3    C5    T    
C27   H4    S    
C26   H2    S    
C25   H16   S    
C2    C47   T    
C1    O12   A    
C41   O14   A    
C17   H11   S    
C23   O23   A    
C13   C17   S    
C45   O4    A    
C32   C33   A    
Cr1   O12   S    
C36   H10   S    
C39   O9    A    
Cr6   O17   S    
C11   C13   A    
C16   O27   S    
C35   H7    S    
C6    C23   S    
C35   H8    S    
Cr1   O25   S    
C50   H20   S    
Cr3   O23   S    
Cr2   O20   S    
C49   C50   S    
C20   C21   A    
C8    C10   T    
O27   C49   S    
C38   O8    A    
Cr5   O19   S    
C40   O6    A    
C42   O16   A    
C32   H5    S    
C21   C22   A    
Cr6   O10   S    
