data_mof_unit_15702.cif
_audit_creation_date              2012-10-26T20:33:27-0400
_audit_creation_method            fapswitch 2.2
_symmetry_space_group_name_H-M    P1
_symmetry_Int_Tables_number       1
_space_group_crystal_system       triclinic
_cell_length_a                    8.872098
_cell_length_b                    9.096263
_cell_length_c                    7.792134
_cell_angle_alpha                 90.005444
_cell_angle_beta                  98.160282
_cell_angle_gamma                 89.995913
_cell_volume                      622.480921668

loop_
_atom_site_label
_atom_site_type_symbol
_atom_type_description
_atom_site_fract_x
_atom_site_fract_y
_atom_site_fract_z
_atom_type_partial_charge
C1    C     C_R   0.499994 0.220059 0.499995 0.561295
C2    C     C_2   0.031403 0.453607 0.746911 0.589544
C3    C     C_R   0.500006 0.779941 0.500005 0.561295
C4    C     C_R   0.203889 0.501571 0.456425 0.533143
C5    C     C_R   0.796111 0.498426 0.543575 0.533141
C6    C     C_2   0.039921 0.510193 0.432160 -0.004363
C7    C     C_2   0.960078 0.489799 0.567838 -0.004361
C8    C     C_1   0.499999 0.065376 0.499994 -0.001255
C9    C     C_1   0.500001 0.934624 0.500006 -0.001256
C10   C     C_2   0.968596 0.546377 0.253085 0.589542
Cu1   Cu    Cu3+1 0.500010 0.500000 0.669080 1.113501
Cu2   Cu    Cu3+1 0.499990 0.500000 0.330920 1.113502
H1    H     H_    0.850949 0.473758 0.028977 0.365694
H2    H     H_    0.149043 0.526221 0.971026 0.365698
N1    N     N_1   0.499980 0.500000 0.076820 -0.067920
N2    N     N_1   0.500020 0.500000 0.923180 -0.067921
O1    O     O_R   0.500010 0.288400 0.642760 -0.491982
O2    O     O_R   0.901933 0.434743 0.144573 -0.641112
O3    O     O_2   0.030471 0.326785 0.798650 -0.474804
O4    O     O_R   0.098057 0.565238 0.855433 -0.641107
O5    O     O_R   0.499990 0.711600 0.357240 -0.491981
O6    O     O_R   0.499990 0.288400 0.357240 -0.491310
O7    O     O_R   0.500010 0.711600 0.642760 -0.491309
O8    O     O_R   0.274840 0.500000 0.609840 -0.484436
O9    O     O_R   0.725160 0.500000 0.390160 -0.484436
O10   O     O_R   0.274830 0.500000 0.324260 -0.506000
O11   O     O_R   0.725170 0.500000 0.675740 -0.506002
O12   O     O_2   0.969544 0.673195 0.201331 -0.474797

loop_
_geom_bond_atom_site_label_1
_geom_bond_atom_site_label_2
_ccdc_geom_bond_type
C6    C10   S    
C4    O10   A    
Cu1   Cu2   S    
C6    C7    D    
C3    C9    S    
Cu2   O6    S    
C1    C8    S    
Cu1   N2    S    
C1    O1    A    
C2    C7    S    
Cu2   N1    S    
Cu1   O11   S    
Cu2   O9    S    
C1    O6    A    
H1    O2    S    
C10   O2    S    
C5    O9    A    
Cu1   O7    S    
C4    O8    A    
C3    O5    A    
C2    O4    S    
N1    N2    T    
H2    O4    S    
Cu1   O8    S    
C4    C6    S    
C10   O12   D    
C5    C7    S    
Cu1   O1    S    
C2    O3    D    
C5    O11   A    
C3    O7    A    
Cu2   O5    S    
Cu2   O10   S    
C8    C9    T    
