data_mof_unit_53018.cif
_audit_creation_date              2012-12-10T18:16:16-0500
_audit_creation_method            fapswitch 2.2
_symmetry_space_group_name_H-M    P1
_symmetry_Int_Tables_number       1
_space_group_crystal_system       triclinic
_cell_length_a                    12.758022
_cell_length_b                    13.023752
_cell_length_c                    27.637766
_cell_angle_alpha                 94.912334
_cell_angle_beta                  103.093288
_cell_angle_gamma                 79.031261
_cell_volume                      4386.772344

loop_
_atom_site_label
_atom_site_type_symbol
_atom_type_description
_atom_site_fract_x
_atom_site_fract_y
_atom_site_fract_z
_atom_type_partial_charge
C1    C     C_R   0.437569 0.691391 0.491371 0.875999
C2    C     C_R   0.483245 0.553049 0.026383 0.023980
C3    C     C_R   0.518701 0.359913 0.022042 0.062719
C4    C     C_R   0.502022 0.500754 0.593815 0.963201
C5    C     C_R   0.500799 0.456779 0.049569 0.031527
C6    C     C_R   0.491272 0.644972 0.056576 -0.341535
C7    C     C_R   0.489310 0.647941 0.106790 0.506504
C8    C     C_R   0.492922 0.554017 0.129270 -0.119326
C9    C     C_R   0.503916 0.458022 0.101131 -0.126151
C10   C     C_R   0.519126 0.363251 0.124716 -0.039938
C11   C     C_R   0.515158 0.365634 0.175018 0.511893
C12   C     C_R   0.405630 0.515822 0.712974 0.066650
C13   C     C_R   0.489344 0.552280 0.179566 0.530552
C14   C     C_R   0.398713 0.490906 0.267719 -0.119963
C15   C     C_R   0.398778 0.503795 0.318186 -0.229248
C16   C     C_R   0.562169 0.308005 0.507559 0.875527
C17   C     C_R   0.596788 0.456865 0.337496 -0.232102
C18   C     C_R   0.596564 0.443673 0.287118 -0.103735
C19   C     C_R   0.497649 0.461028 0.252259 0.321947
C20   C     C_R   0.468161 0.554741 0.974265 0.000374
C21   C     C_R   0.488232 0.459269 0.946723 0.036590
C22   C     C_R   0.504714 0.362134 0.969434 0.013486
C23   C     C_R   0.500990 0.468759 0.745567 0.173327
C24   C     C_R   0.428466 0.648329 0.947925 0.057272
C25   C     C_R   0.500528 0.271690 0.887819 0.509898
C26   C     C_R   0.555112 0.266322 0.049296 0.188391
C27   C     C_R   0.545391 0.268579 0.098764 -0.158247
C28   C     C_R   0.498937 0.497196 0.406359 0.817882
C29   C     C_R   0.498109 0.271482 0.937991 -0.336628
C30   C     C_R   0.718630 0.040329 0.488759 -0.184560
C31   C     C_R   0.599368 0.194346 0.511179 -0.176069
C32   C     C_R   0.289503 0.847893 0.484138 -0.364772
C33   C     C_R   0.254629 0.956669 0.480360 0.516452
C34   C     C_R   0.487694 0.461149 0.895579 -0.186396
C35   C     C_R   0.333840 0.019060 0.483056 -0.135826
C36   C     C_R   0.443924 0.973571 0.483077 -0.039565
C37   C     C_R   0.466254 0.866221 0.470646 0.008374
C38   C     C_R   0.530836 0.030849 0.491753 -0.058342
C39   C     C_R   0.632063 0.983531 0.479054 0.040769
C40   C     C_R   0.491952 0.556312 0.824876 0.569627
C41   C     C_R   0.643151 0.882846 0.455171 0.172820
C42   C     C_R   0.555225 0.827906 0.447487 0.187938
C43   C     C_R   0.522451 0.132420 0.514435 0.469773
C44   C     C_R   0.701632 0.145146 0.503844 -0.304163
C45   C     C_R   0.478360 0.557688 0.873848 -0.158674
C46   C     C_R   0.395887 0.802187 0.480152 -0.146249
C47   C     C_R   0.088197 0.355595 0.422778 -0.001765
C48   C     C_R   0.788267 0.637963 0.557791 -0.141073
C49   C     C_R   0.869802 0.696827 0.558227 0.453115
C50   C     C_R   0.945029 0.660488 0.528331 -0.271602
C51   C     C_R   0.944175 0.565025 0.499662 -0.043098
C52   C     C_R   0.496931 0.371691 0.815643 0.543128
C53   C     C_R   0.850146 0.518998 0.495086 0.182162
C54   C     C_R   0.031335 0.509285 0.476188 -0.020151
C55   C     C_R   0.005591 0.431298 0.438484 0.026035
C56   C     C_R   0.448672 0.652240 0.900300 0.491736
C57   C     C_R   0.896817 0.421048 0.422212 -0.246217
C58   C     C_R   0.833455 0.439013 0.457601 0.180279
C59   C     C_R   0.143723 0.516290 0.492146 0.152213
C60   C     C_R   0.197573 0.366889 0.440126 0.579356
C61   C     C_R   0.600045 0.437090 0.729424 0.089247
C62   C     C_R   0.603193 0.453824 0.680085 0.353512
C63   C     C_R   0.411608 0.538884 0.665282 0.424512
C64   C     C_3   0.320305 0.705759 0.648766 0.093136
C65   C     C_3   0.381305 0.755251 0.618054 -0.883628
C66   C     C_3   0.700886 0.385284 0.765046 -0.843023
C67   C     C_R   0.496333 0.366863 0.866199 -0.107917
C68   C     C_3   0.614537 0.125319 0.868559 0.116001
C69   C     C_3   0.626681 0.037881 0.828940 -0.771507
C70   C     C_3   0.622787 0.167813 0.031706 -0.963338
C71   C     C_3   0.746034 0.837356 0.436245 -0.920217
C72   C     C_3   0.296870 0.541904 0.728472 -0.773560
C73   C     C_3   0.478916 0.182470 0.589700 0.086814
C74   C     C_3   0.386041 0.231339 0.615056 -0.749668
C75   C     C_3   0.070193 0.944607 0.452412 0.110819
C76   C     C_3   0.966870 0.015639 0.427345 -0.855889
C77   C     C_3   0.544156 0.744810 0.405983 -0.811473
C78   C     C_R   0.506741 0.499359 0.647334 -0.346968
C79   C     C_3   0.285046 0.306349 0.376385 0.095667
C80   C     C_3   0.394226 0.248222 0.366671 -0.760219
C81   C     C_3   0.061269 0.255761 0.394416 -0.896645
C82   C     C_3   0.177897 0.601949 0.528319 -0.742175
C83   C     C_3   0.494411 0.812783 0.896246 0.122468
C84   C     C_3   0.436014 0.925965 0.891748 -0.792951
C85   C     C_3   0.783233 0.845402 0.597175 0.081009
C86   C     C_3   0.799051 0.956031 0.615556 -0.778581
C87   C     C_3   0.798576 0.342334 0.467484 -0.811557
C88   C     C_3   0.394438 0.810257 0.121590 0.116850
C89   C     C_R   0.497978 0.486963 0.353327 -0.025359
C90   C     C_3   0.395609 0.906509 0.156858 -0.738982
C91   C     C_3   0.346520 0.736938 0.964585 -0.875534
C92   C     C_3   0.763457 0.498042 0.673489 0.137255
C93   C     C_3   0.866899 0.461029 0.653685 -0.797735
H1    H     H_    0.673978 0.443048 0.363979 0.158850
H2    H     H_    0.726969 0.662779 0.579627 0.126690
H3    H     H_    0.997887 0.713716 0.526108 0.172572
H4    H     H_    0.321829 0.528704 0.329662 0.144468
H5    H     H_    0.322331 0.506251 0.240583 0.130550
H6    H     H_    0.500961 0.715744 0.041707 0.176317
H7    H     H_    0.353483 0.722128 0.689058 0.162751
H8    H     H_    0.233531 0.745518 0.640830 0.182862
H9    H     H_    0.346485 0.743206 0.577944 0.255624
H10   H     H_    0.372793 0.840707 0.627235 0.231461
H11   H     H_    0.469544 0.720495 0.626243 0.232281
H12   H     H_    0.567276 0.196060 0.118179 0.193367
H13   H     H_    0.772488 0.360911 0.747697 0.261517
H14   H     H_    0.723098 0.440040 0.797202 0.221218
H15   H     H_    0.685287 0.313239 0.778693 0.257772
H16   H     H_    0.637921 0.090496 0.905709 0.117647
H17   H     H_    0.672319 0.178559 0.866548 0.130132
H18   H     H_    0.606597 0.071170 0.791609 0.279277
H19   H     H_    0.712196 0.994798 0.836032 0.191646
H20   H     H_    0.571205 0.982198 0.829481 0.252068
H21   H     H_    0.571718 0.106392 0.019213 0.238949
H22   H     H_    0.663357 0.183059 0.002210 0.244326
H23   H     H_    0.673197 0.422225 0.275052 0.132660
H24   H     H_    0.690624 0.136508 0.062623 0.249065
H25   H     H_    0.748615 0.756596 0.420127 0.250824
H26   H     H_    0.753385 0.887124 0.407021 0.241756
H27   H     H_    0.818839 0.833744 0.467283 0.238224
H28   H     H_    0.231693 0.517405 0.698192 0.246167
H29   H     H_    0.296901 0.500418 0.761879 0.227646
H30   H     H_    0.275971 0.627275 0.736604 0.241182
H31   H     H_    0.541864 0.233892 0.598941 0.142082
H32   H     H_    0.514945 0.103865 0.604811 0.135577
H33   H     H_    0.417880 0.239886 0.655799 0.222820
H34   H     H_    0.488959 0.199045 0.951259 0.183376
H35   H     H_    0.348590 0.309955 0.600588 0.271359
H36   H     H_    0.322606 0.180879 0.607878 0.254467
H37   H     H_    0.049444 0.897195 0.479372 0.148517
H38   H     H_    0.099855 0.891800 0.422485 0.136707
H39   H     H_    0.982991 0.052918 0.395817 0.252108
H40   H     H_    0.901938 0.968778 0.412230 0.211084
H41   H     H_    0.938515 0.076834 0.454317 0.259810
H42   H     H_    0.548095 0.777880 0.370842 0.240379
H43   H     H_    0.611765 0.678008 0.414098 0.264916
H44   H     H_    0.464838 0.717197 0.399109 0.212425
H45   H     H_    0.768150 0.186504 0.508504 0.186476
H46   H     H_    0.274501 0.389711 0.367441 0.141520
H47   H     H_    0.219869 0.271763 0.350339 0.137340
H48   H     H_    0.402358 0.163345 0.372195 0.244035
H49   H     H_    0.399204 0.258933 0.327870 0.217362
H50   H     H_    0.462844 0.278320 0.392571 0.248800
H51   H     H_    0.005399 0.223415 0.411911 0.257167
H52   H     H_    0.021819 0.272086 0.355065 0.224780
H53   H     H_    0.133862 0.192902 0.395823 0.273064
H54   H     H_    0.264240 0.597029 0.540314 0.314817
H55   H     H_    0.151148 0.677347 0.509933 0.170161
H56   H     H_    0.798728 0.006534 0.482562 0.174657
H57   H     H_    0.148435 0.600273 0.562973 0.251240
H58   H     H_    0.559844 0.799551 0.874673 0.173189
H59   H     H_    0.534157 0.801138 0.936215 0.104610
H60   H     H_    0.368652 0.940279 0.912170 0.248674
H61   H     H_    0.494377 0.979371 0.907967 0.211499
H62   H     H_    0.401413 0.943024 0.852045 0.277677
H63   H     H_    0.758907 0.808820 0.626892 0.133620
H64   H     H_    0.716730 0.850883 0.563041 0.146792
H65   H     H_    0.829193 0.993476 0.588040 0.266155
H66   H     H_    0.720101 0.003425 0.620938 0.193819
H67   H     H_    0.234122 0.799409 0.489847 0.150388
H68   H     H_    0.859556 0.953989 0.651514 0.254644
H69   H     H_    0.715530 0.338571 0.445062 0.253686
H70   H     H_    0.852072 0.270514 0.456309 0.198306
H71   H     H_    0.811847 0.338055 0.508341 0.250415
H72   H     H_    0.324668 0.772801 0.124668 0.140311
H73   H     H_    0.381566 0.836483 0.083074 0.118347
H74   H     H_    0.463322 0.946712 0.154166 0.254919
H75   H     H_    0.316899 0.961611 0.146935 0.191659
H76   H     H_    0.407048 0.883275 0.195709 0.275305
H77   H     H_    0.276583 0.759261 0.933010 0.267799
H78   H     H_    0.305897 0.102579 0.481677 0.232725
H79   H     H_    0.310577 0.713393 0.994012 0.231765
H80   H     H_    0.384562 0.806888 0.977814 0.226035
H81   H     H_    0.787736 0.515301 0.714212 0.134952
H82   H     H_    0.719584 0.572148 0.655648 0.138088
H83   H     H_    0.845484 0.440133 0.613293 0.267042
H84   H     H_    0.916602 0.524162 0.659596 0.204970
H85   H     H_    0.916007 0.391085 0.673438 0.249565
H86   H     H_    0.873109 0.368461 0.390739 0.168312
N1    N     N_R   0.499525 0.464554 0.796985 -0.328831
N2    N     N_R   0.498866 0.459253 0.200811 -0.361563
N3    N     N_R   0.222180 0.444690 0.474320 -0.155194
N4    N     N_R   0.776980 0.554780 0.525420 -0.146006
O1    O     O_R   0.366730 0.627160 0.487740 -0.636114
O2    O     O_R   0.410930 0.482330 0.420550 -0.616171
O3    O     O_R   0.589030 0.517690 0.436960 -0.619743
O4    O     O_2   0.496266 0.645747 0.804655 -0.549894
O5    O     O_3   0.322682 0.597845 0.635299 -0.620106
O6    O     O_3   0.504819 0.178119 0.859961 -0.566093
O7    O     O_3   0.437338 0.173270 0.537897 -0.607217
O8    O     O_3   0.147082 0.006633 0.478103 -0.609388
O9    O     O_3   0.282165 0.295105 0.426522 -0.583897
O10   O     O_3   0.418190 0.745928 0.876280 -0.562743
O11   O     O_3   0.882751 0.788101 0.587543 -0.613729
O12   O     O_2   0.476548 0.642325 0.207372 -0.515948
O13   O     O_3   0.495053 0.741017 0.134712 -0.561164
O14   O     O_3   0.698158 0.419024 0.662847 -0.587886
O15   O     O_2   0.493970 0.285357 0.785040 -0.528231
O16   O     O_2   0.527661 0.275471 0.198091 -0.573929
O17   O     O_R   0.544830 0.662520 0.504140 -0.601689
O18   O     O_R   0.410970 0.482310 0.563040 -0.597105
O19   O     O_R   0.589070 0.517670 0.579450 -0.600941
O20   O     O_R   0.455170 0.337480 0.495860 -0.506150
O21   O     O_R   0.633270 0.372840 0.512260 -0.620528
Zn1   Zn    Zn3+2 0.381080 0.476390 0.489050 0.979029
Zn2   Zn    Zn3+2 0.618920 0.523610 0.510950 0.922582

loop_
_geom_bond_atom_site_label_1
_geom_bond_atom_site_label_2
_ccdc_geom_bond_type
C10   C27   A    
C87   H70   S    
C8    C13   A    
C48   H2    S    
C72   H28   S    
C90   H76   S    
C35   H78   S    
C41   C42   A    
C88   O13   S    
C79   H46   S    
C35   C36   A    
C11   N2    A    
C59   C82   S    
C66   H14   S    
C58   C87   S    
C19   N2    S    
C82   H54   S    
C4    O18   A    
C7    C8    A    
C39   C41   A    
C40   O4    S    
C85   C86   S    
C70   H21   S    
C16   C31   S    
C5    C9    A    
O20   Zn1   S    
C12   C23   A    
C69   H20   S    
C26   C27   A    
C31   C43   A    
C71   H27   S    
C36   C37   A    
C22   C29   A    
C15   H4    S    
C53   N4    A    
C38   C39   A    
C90   H74   S    
C84   H62   S    
C1    C46   S    
C49   O11   S    
C27   H12   S    
C70   H24   S    
C91   H80   S    
C82   H57   S    
C18   C19   A    
C73   C74   S    
C37   C42   A    
C49   C50   A    
C33   C35   A    
C47   C60   A    
C40   N1    A    
C84   H61   S    
C61   C66   S    
C81   H51   S    
C74   H35   S    
C20   C24   A    
C43   O7    S    
C8    C9    A    
C25   C67   A    
O17   Zn2   S    
C28   C89   S    
C77   H43   S    
C16   O20   A    
C86   H66   S    
C73   O7    S    
C71   H25   S    
C75   H37   S    
C41   C71   S    
C72   H29   S    
C73   H31   S    
C79   H47   S    
C12   C72   S    
C76   H39   S    
C21   C22   A    
C60   N3    A    
C30   C44   A    
C2    C6    A    
C85   H64   S    
C65   H9    S    
C66   H13   S    
C1    O1    A    
C75   H38   S    
C14   H5    S    
C83   H58   S    
C54   C59   A    
C92   H82   S    
C25   C29   A    
C40   C45   A    
C31   C44   A    
O3    Zn2   S    
C2    C20   A    
O2    Zn1   S    
C17   C89   A    
C45   C56   A    
C18   H23   S    
C57   H86   S    
C12   C63   A    
C93   H84   S    
C68   C69   S    
C30   H56   S    
C64   H8    S    
C92   H81   S    
O1    Zn1   S    
C56   O10   S    
C51   C53   A    
C85   H63   S    
C83   O10   S    
C59   N3    A    
C75   O8    S    
C75   C76   S    
C52   N1    A    
C4    C78   S    
C28   O3    A    
C15   C89   A    
C84   H60   S    
C4    O19   A    
C83   C84   S    
C93   H85   S    
C23   C61   A    
C60   O9    S    
C80   H50   S    
C17   C18   A    
C50   C51   A    
C86   H68   S    
C68   H17   S    
C86   H65   S    
C23   N1    S    
C64   O5    S    
C52   C67   A    
C34   C45   A    
C91   H79   S    
C48   C49   A    
O21   Zn2   S    
C63   O5    S    
C81   H52   S    
C79   O9    S    
C29   H34   S    
C72   H30   S    
C13   O12   S    
C26   C70   S    
C76   H40   S    
C2    C5    A    
C52   O15   S    
C65   H10   S    
C92   O14   S    
C24   C91   S    
C76   H41   S    
C47   C55   A    
C83   H59   S    
C9    C10   A    
C54   C55   A    
C80   H49   S    
C44   H45   S    
C91   H77   S    
C90   H75   S    
C32   C46   A    
C14   C19   A    
C62   C78   A    
C3    C26   A    
C62   O14   S    
C77   H44   S    
C3    C5    A    
C34   C67   A    
C48   N4    A    
C82   H55   S    
C53   C58   A    
C6    C7    A    
C21   C34   A    
C70   H22   S    
C24   C56   A    
C93   H83   S    
C88   H73   S    
C71   H26   S    
C33   O8    S    
N3    Zn1   S    
C32   C33   A    
C51   C54   A    
C55   C57   A    
C88   C90   S    
C37   C46   A    
C38   C43   A    
C88   H72   S    
C13   N2    A    
C28   O2    A    
C6    H6    S    
C69   H18   S    
C50   H3    S    
C57   C58   A    
C74   H33   S    
C68   O6    S    
C73   H32   S    
C64   C65   S    
C36   C38   A    
C92   C93   S    
C69   H19   S    
C30   C39   A    
C87   H71   S    
C68   H16   S    
C47   C81   S    
C61   C62   A    
C85   O11   S    
C11   O16   S    
C66   H15   S    
C10   C11   A    
C79   C80   S    
C1    O17   A    
C64   H7    S    
C87   H69   S    
C20   C21   A    
C42   C77   S    
C81   H53   S    
O19   Zn2   S    
C74   H36   S    
N4    Zn2   S    
O18   Zn1   S    
C14   C15   A    
C3    C22   A    
C25   O6    S    
C17   H1    S    
C77   H42   S    
C65   H11   S    
C7    O13   S    
C16   O21   A    
C80   H48   S    
C32   H67   S    
C63   C78   A    
