data_mof_unit_15137.cif
_audit_creation_date              2012-12-10T17:12:04-0500
_audit_creation_method            fapswitch 2.2
_symmetry_space_group_name_H-M    P1
_symmetry_Int_Tables_number       1
_space_group_crystal_system       triclinic
_cell_length_a                    11.652794
_cell_length_b                    13.074565
_cell_length_c                    15.862405
_cell_angle_alpha                 92.247923
_cell_angle_beta                  74.112428
_cell_angle_gamma                 99.296089
_cell_volume                      2293.84432912

loop_
_atom_site_label
_atom_site_type_symbol
_atom_type_description
_atom_site_fract_x
_atom_site_fract_y
_atom_site_fract_z
_atom_type_partial_charge
C1    C     C_R   0.518960 0.700598 0.503323 0.857075
C2    C     C_R   0.479581 0.299595 0.499578 0.852767
C3    C     C_R   0.350375 0.461641 0.086918 -0.227329
C4    C     C_R   0.641064 0.470374 0.913049 -0.229566
C5    C     C_R   0.267742 0.456619 0.037788 -0.237044
C6    C     C_R   0.723442 0.473445 0.962188 -0.235065
C7    C     C_R   0.469435 0.187079 0.498910 -0.228343
C8    C     C_R   0.526573 0.813431 0.508802 -0.226743
C9    C     C_R   0.635835 0.979650 0.536674 0.474224
C10   C     C_R   0.369407 0.021933 0.461572 0.471449
C11   C     C_R   0.626194 0.872420 0.529648 -0.378493
C12   C     C_R   0.380277 0.128917 0.465870 -0.369433
C13   C     C_R   0.433835 0.862456 0.495292 0.459737
C14   C     C_R   0.550425 0.138006 0.528538 0.456224
C15   C     C_R   0.449337 0.971099 0.491558 -0.181117
C16   C     C_R   0.546108 0.030102 0.519154 -0.159774
C17   C     C_R   0.934003 0.583660 0.591096 -0.361023
C18   C     C_R   0.065983 0.416306 0.408864 -0.341450
C19   C     C_R   0.817269 0.577881 0.580811 0.087000
C20   C     C_R   0.183215 0.423195 0.418469 0.076512
C21   C     C_R   0.863106 0.465177 0.459617 0.046218
C22   C     C_R   0.136024 0.532865 0.541510 0.045207
C23   C     C_R   0.426909 0.494291 0.668135 0.781568
C24   C     C_R   0.572914 0.503901 0.331846 0.794193
C25   C     C_R   0.982035 0.469722 0.466744 0.068300
C26   C     C_R   0.017496 0.529232 0.533821 0.062067
C27   C     C_R   0.383426 0.485719 0.764091 -0.051654
C28   C     C_R   0.615061 0.499832 0.235778 -0.050071
C29   C     C_R   0.222208 0.463357 0.898625 -0.202497
C30   C     C_R   0.771729 0.487474 0.101304 -0.202631
C31   C     C_R   0.260100 0.473015 0.807645 -0.200731
C32   C     C_R   0.736165 0.495780 0.192290 -0.200316
C33   C     C_R   0.468038 0.487823 0.812299 -0.263009
C34   C     C_R   0.530297 0.495536 0.187453 -0.258455
C35   C     C_R   0.432143 0.474574 0.903717 0.086878
C36   C     C_R   0.562697 0.482711 0.096114 0.086272
C37   C     C_R   0.307061 0.464748 0.946899 0.169884
C38   C     C_R   0.686260 0.481254 0.053003 0.169161
C39   C     C_R   0.517133 0.473452 0.953361 0.066093
C40   C     C_R   0.476293 0.473352 0.046525 0.066968
Cu1   Cu    Cu3+1 0.386820 0.492450 0.493500 0.944034
Cu2   Cu    Cu3+1 0.613180 0.507550 0.506500 0.944745
H1    H     H_    0.172173 0.447467 0.071432 0.136539
H2    H     H_    0.817397 0.470629 0.928614 0.137729
H3    H     H_    0.247557 0.381962 0.373459 0.122437
H4    H     H_    0.753363 0.620140 0.625126 0.124480
H5    H     H_    0.958653 0.630333 0.643260 0.129972
H6    H     H_    0.041458 0.369938 0.356513 0.135329
H7    H     H_    0.439440 0.504313 0.222652 0.151801
H8    H     H_    0.562106 0.502436 0.777031 0.150941
H9    H     H_    0.803133 0.498772 0.228457 0.147961
H10   H     H_    0.193158 0.471045 0.771582 0.149882
H11   H     H_    0.126413 0.454890 0.931356 0.125208
H12   H     H_    0.866096 0.485370 0.068638 0.125251
H13   H     H_    0.311809 0.452891 0.156655 0.138319
H14   H     H_    0.677362 0.462331 0.843406 0.140744
H15   H     H_    0.319274 0.166568 0.441707 0.188746
H16   H     H_    0.695943 0.835240 0.543169 0.188946
H17   H     H_    0.164147 0.577058 0.593444 0.107055
H18   H     H_    0.834000 0.418597 0.409086 0.117341
N1    N     N_R   0.216750 0.481110 0.483710 -0.175201
N2    N     N_R   0.783250 0.518890 0.516290 -0.179986
O1    O     O_R   0.419950 0.645670 0.495380 -0.534014
O2    O     O_R   0.580050 0.354330 0.504620 -0.537545
O3    O     O_R   0.611110 0.658410 0.506370 -0.597062
O4    O     O_R   0.388890 0.341590 0.493630 -0.597793
O5    O     O_R   0.350820 0.490050 0.621260 -0.595666
O6    O     O_R   0.649180 0.509950 0.378740 -0.593986
O7    O     O_R   0.541970 0.502800 0.632250 -0.595985
O8    O     O_R   0.458030 0.497200 0.367750 -0.594351
O9    O     O_3   0.635521 0.196101 0.564509 -0.541629
C41   C     C_3   0.583315 0.205978 0.655307 -0.209040
H19   H     H_    0.555814 0.128983 0.688562 0.157996
H20   H     H_    0.504695 0.248300 0.668576 0.126261
H21   H     H_    0.651826 0.251731 0.684241 0.175143
O10   O     O_3   0.327851 0.804122 0.486040 -0.534263
C42   C     C_3   0.240278 0.800227 0.568002 -0.237767
H22   H     H_    0.266474 0.757428 0.617310 0.128473
H23   H     H_    0.153353 0.758577 0.559882 0.164993
H24   H     H_    0.224133 0.878855 0.592947 0.161627
O11   O     O_3   0.731252 0.033995 0.563940 -0.577554
C43   C     C_3   0.834791 0.049577 0.491656 0.091367
H25   H     H_    0.814660 0.081763 0.434043 0.134528
H26   H     H_    0.869610 0.975053 0.473091 0.129397
C44   C     C_3   0.932131 0.127099 0.517560 -0.282245
H27   H     H_    0.899159 0.202588 0.533841 0.244588
H28   H     H_    0.950917 0.098122 0.576611 0.220669
C45   C     C_3   0.048957 0.143573 0.443732 -0.952893
H29   H     H_    0.116102 0.202167 0.464170 0.263604
H30   H     H_    0.032568 0.171823 0.383588 0.245326
H31   H     H_    0.086350 0.070013 0.429198 0.283432
O12   O     O_3   0.278911 0.968194 0.428507 -0.561413
C46   C     C_3   0.325563 0.956856 0.337094 0.119968
H32   H     H_    0.403518 0.913349 0.321968 0.138773
H33   H     H_    0.355974 0.034180 0.304327 0.081706
C47   C     C_3   0.227177 0.898183 0.298427 -0.374968
H34   H     H_    0.149685 0.941614 0.311522 0.203496
H35   H     H_    0.264310 0.893219 0.226209 0.165069
C48   C     C_3   0.182549 0.788549 0.335885 -0.677282
H36   H     H_    0.116966 0.747144 0.302088 0.200587
H37   H     H_    0.136259 0.791260 0.406915 0.279604
H38   H     H_    0.259207 0.744622 0.325897 0.253524

loop_
_geom_bond_atom_site_label_1
_geom_bond_atom_site_label_2
_ccdc_geom_bond_type
C46   H32   S    
C5    C37   A    
C1    C8    S    
C14   O9    S    
C23   O7    A    
C2    C7    S    
Cu1   N1    S    
C31   H10   S    
O11   C43   S    
C19   H4    S    
C24   O8    A    
Cu1   O5    S    
C44   H27   S    
C27   C33   A    
C30   H12   S    
C8    C13   A    
C17   C26   A    
C35   C37   A    
C9    C16   A    
C10   C15   A    
C44   C45   S    
C19   N2    A    
C15   C16   A    
C47   C48   S    
C30   C38   A    
Cu1   Cu2   S    
C23   O5    A    
C20   N1    A    
C33   C35   A    
C3    H13   S    
C7    C14   A    
C47   H35   S    
Cu2   O3    S    
C1    O3    A    
C6    C38   A    
C23   C27   S    
C11   H16   S    
Cu2   N2    S    
C18   C20   A    
C20   H3    S    
C44   H28   S    
C5    H1    S    
C10   O12   S    
C46   H33   S    
C6    H2    S    
C4    H14   S    
Cu2   O6    S    
C18   C25   A    
C41   H21   S    
C1    O1    A    
C2    O2    A    
C42   H23   S    
C7    C12   A    
C27   C31   A    
C24   C28   S    
C28   C32   A    
O10   C42   S    
C21   H18   S    
C41   H20   S    
C22   H17   S    
C3    C5    A    
C33   H8    S    
C42   H22   S    
Cu2   O7    S    
C35   C39   A    
C32   H9    S    
C48   H36   S    
C13   O10   S    
C36   C40   A    
C47   H34   S    
C9    C11   A    
C21   N2    A    
C10   C12   A    
C12   H15   S    
C4    C6    A    
C48   H37   S    
C45   H30   S    
C3    C40   A    
C46   C47   S    
C43   H26   S    
C13   C15   A    
C14   C16   A    
Cu1   O1    S    
Cu2   O2    S    
C39   C40   A    
C42   H24   S    
C21   C25   A    
C34   H7    S    
C17   H5    S    
C41   H19   S    
C2    O4    A    
C18   H6    S    
Cu1   O4    S    
C43   C44   S    
C4    C39   A    
C36   C38   A    
C25   C26   A    
O9    C41   S    
C29   C31   A    
C22   N1    A    
C30   C32   A    
C45   H31   S    
C29   H11   S    
C8    C11   A    
O12   C46   S    
C17   C19   A    
C34   C36   A    
C24   O6    A    
C28   C34   A    
C48   H38   S    
C45   H29   S    
C43   H25   S    
C22   C26   A    
C29   C37   A    
C9    O11   S    
Cu1   O8    S    
