data_mof_unit_14431.cif
_audit_creation_date              2012-12-11T16:23:27-0500
_audit_creation_method            fapswitch 2.2
_symmetry_space_group_name_H-M    P1
_symmetry_Int_Tables_number       1
_space_group_crystal_system       triclinic
_cell_length_a                    19.965871
_cell_length_b                    7.228633
_cell_length_c                    19.850284
_cell_angle_alpha                 89.962744
_cell_angle_beta                  98.747272
_cell_angle_gamma                 90.078531
_cell_volume                      2831.58574113

loop_
_atom_site_label
_atom_site_type_symbol
_atom_type_description
_atom_site_fract_x
_atom_site_fract_y
_atom_site_fract_z
_atom_type_partial_charge
O1    O     O_R   0.188410 0.619490 0.310050 -0.504488
O2    O     O_R   0.811590 0.380510 0.689950 -0.513919
O3    O     O_R   0.311590 0.119490 0.189950 -0.521789
O4    O     O_R   0.688410 0.880510 0.810050 -0.526658
O5    O     O_R   0.327280 0.288800 0.321740 -0.508861
O6    O     O_R   0.672720 0.711200 0.678260 -0.517756
O7    O     O_R   0.172720 0.788800 0.178260 -0.514526
O8    O     O_R   0.827280 0.211200 0.821740 -0.514559
C1    C     C_R   0.351449 0.459488 0.338555 0.715477
C2    C     C_R   0.648314 0.540560 0.661626 0.695384
C3    C     C_R   0.148448 0.959300 0.161488 0.720858
C4    C     C_R   0.851540 0.040771 0.838459 0.743643
O9    O     O_R   0.189900 0.289710 0.318190 -0.544831
O10   O     O_R   0.810100 0.710290 0.681810 -0.539126
O11   O     O_R   0.310100 0.789710 0.181810 -0.554009
O12   O     O_R   0.689900 0.210290 0.818190 -0.559004
O13   O     O_R   0.173230 0.120350 0.186370 -0.543326
O14   O     O_R   0.826770 0.879650 0.813630 -0.539553
O15   O     O_R   0.326770 0.620350 0.313630 -0.548146
O16   O     O_R   0.673230 0.379650 0.686370 -0.543478
C5    C     C_R   0.170217 0.459233 0.334803 0.719494
C6    C     C_R   0.830848 0.541680 0.667039 0.732212
C7    C     C_R   0.330753 0.958732 0.166535 0.732132
C8    C     C_R   0.670173 0.040974 0.834500 0.717675
O17   O     O_3   0.244690 0.453290 0.206760 -0.382352
O18   O     O_3   0.755310 0.546710 0.793240 -0.383949
O19   O     O_3   0.255310 0.953290 0.293240 -0.365958
O20   O     O_3   0.744690 0.046710 0.706760 -0.367411
V1    V     V_3+5 0.250980 0.178070 0.258020 1.478617
V2    V     V_3+5 0.749020 0.821930 0.741980 1.475350
V3    V     V_3+5 0.249020 0.678070 0.241980 1.460371
V4    V     V_3+5 0.750980 0.321930 0.758020 1.450853
C9    C     C_R   0.477261 0.108196 0.074408 0.373052
C10   C     C_R   0.556561 0.835946 0.953112 0.422896
C11   C     C_R   0.046958 0.659739 0.446438 0.398657
C12   C     C_R   0.989030 0.415926 0.590568 0.408625
C13   C     C_R   0.429918 0.108300 0.120929 0.352549
C14   C     C_R   0.614152 0.861489 0.919686 0.348739
C15   C     C_R   0.099992 0.648445 0.406836 0.366688
C16   C     C_R   0.941252 0.423202 0.636264 0.390997
C17   C     C_R   0.379148 0.969930 0.116450 -0.177645
C18   C     C_R   0.620136 0.026520 0.883053 -0.171877
C19   C     C_R   0.121646 0.473899 0.385320 -0.209046
C20   C     C_R   0.881999 0.531925 0.620439 -0.192632
C21   C     C_R   0.373577 0.843526 0.062409 -0.308405
C22   C     C_R   0.574600 0.170428 0.889069 -0.294413
C23   C     C_R   0.095546 0.314254 0.412214 -0.284082
C24   C     C_R   0.871112 0.629409 0.558931 -0.258059
C25   C     C_R   0.416915 0.853260 0.013504 -0.159989
C26   C     C_R   0.528372 0.157676 0.935273 -0.147760
C27   C     C_R   0.049316 0.326694 0.458485 -0.184165
C28   C     C_R   0.916129 0.613268 0.512002 -0.140937
C29   C     C_R   0.469901 0.983313 0.018886 -0.012653
C30   C     C_R   0.518384 0.990899 0.967990 -0.021261
C31   C     C_R   0.024113 0.498472 0.476007 -0.041726
C32   C     C_R   0.975964 0.509044 0.526890 -0.016008
C33   C     C_R   0.087016 0.979799 0.108897 -0.137035
C34   C     C_R   0.912835 0.020523 0.891103 -0.140332
C35   C     C_R   0.412452 0.481185 0.391473 -0.130352
C36   C     C_R   0.586750 0.519303 0.609175 -0.132617
C37   C     C_R   0.016196 0.845759 0.929884 -0.158348
C38   C     C_R   0.983534 0.154569 0.070144 -0.153300
C39   C     C_R   0.485404 0.336625 0.568704 -0.151373
C40   C     C_R   0.513122 0.665357 0.432398 -0.151348
C41   C     C_R   0.961821 0.889613 0.879579 -0.233621
C42   C     C_R   0.038175 0.111439 0.120332 -0.243973
C43   C     C_R   0.539655 0.380777 0.619195 -0.247832
C44   C     C_R   0.459484 0.619832 0.381580 -0.231253
C45   C     C_R   0.919192 0.108792 0.955320 0.413228
C46   C     C_R   0.080352 0.890936 0.044774 0.425560
C47   C     C_R   0.578314 0.615140 0.546363 0.428178
C48   C     C_R   0.420160 0.386772 0.454601 0.426608
C49   C     C_R   0.975453 0.066904 0.006360 0.005712
C50   C     C_R   0.024115 0.933021 0.993746 0.004296
C51   C     C_R   0.522503 0.571776 0.495046 -0.003554
C52   C     C_R   0.475886 0.430247 0.506052 0.001140
O21   O     O_3   0.529998 0.234374 0.082615 -0.544484
C53   C     C_3   0.585651 0.154194 0.124673 -0.191525
H1    H     H_    0.603419 0.027009 0.101218 0.125127
H2    H     H_    0.573308 0.122887 0.176313 0.149575
H3    H     H_    0.628152 0.254759 0.130911 0.157303
O22   O     O_3   0.529435 0.661697 0.957586 -0.546740
C54   C     C_3   0.487854 0.625049 0.894177 -0.337662
H4    H     H_    0.518197 0.567193 0.857002 0.131283
H5    H     H_    0.460030 0.748625 0.870599 0.123022
H6    H     H_    0.447922 0.524395 0.901944 0.153583
O23   O     O_3   0.020696 0.830312 0.460178 -0.546605
C55   C     C_3   0.982549 0.900609 0.399611 -0.262929
H7    H     H_    0.947114 0.007071 0.413522 0.152559
H8    H     H_    0.951149 0.792816 0.369435 0.105367
H9    H     H_    0.015973 0.968056 0.367087 0.180395
O24   O     O_3   0.046801 0.310141 0.608282 -0.534505
C56   C     C_3   0.103127 0.427731 0.627302 -0.221017
H10   H     H_    0.091033 0.552280 0.656243 0.109592
H11   H     H_    0.125356 0.471436 0.581877 0.139915
H12   H     H_    0.142639 0.348886 0.660782 0.154968
O25   O     O_3   0.437788 0.231142 0.175057 -0.555288
C57   C     C_3   0.414601 0.407252 0.151179 -0.130654
H13   H     H_    0.413572 0.499020 0.195782 0.137652
H14   H     H_    0.362132 0.401490 0.122550 0.113899
H15   H     H_    0.449306 0.471283 0.119059 0.174135
O26   O     O_3   0.672016 0.754474 0.936427 -0.568117
C58   C     C_3   0.661066 0.571334 0.914152 -0.116127
H16   H     H_    0.711077 0.503194 0.916384 0.163935
H17   H     H_    0.635877 0.565024 0.860235 0.108930
H18   H     H_    0.633311 0.492948 0.949189 0.180123
O27   O     O_3   0.129885 0.810407 0.389235 -0.548824
C59   C     C_3   0.183692 0.853818 0.441592 -0.193417
H19   H     H_    0.210905 0.976534 0.425841 0.166156
H20   H     H_    0.221179 0.739118 0.450647 0.103529
H21   H     H_    0.164378 0.889567 0.489661 0.139732
O28   O     O_3   0.950983 0.313042 0.694030 -0.533170
C60   C     C_3   0.978766 0.421100 0.750600 -0.183142
H22   H     H_    0.985328 0.331828 0.796621 0.158597
H23   H     H_    0.944659 0.536423 0.760023 0.097388
H24   H     H_    0.029494 0.475833 0.744540 0.122651
H25   H     H_    0.334208 0.739056 0.056888 0.148181
H26   H     H_    0.575612 0.293442 0.858675 0.138086
H27   H     H_    0.111478 0.179076 0.398084 0.204922
H28   H     H_    0.826160 0.713169 0.545949 0.142880
H29   H     H_    0.407493 0.759544 0.971123 0.164404
H30   H     H_    0.497916 0.274982 0.943947 0.184523
H31   H     H_    0.032545 0.201282 0.480420 0.220053
H32   H     H_    0.903071 0.680578 0.463278 0.154434
O29   O     O_3   0.128132 0.762114 0.032152 -0.551727
C61   C     C_3   0.180218 0.854711 0.004886 -0.269145
H33   H     H_    0.208844 0.949596 0.042964 0.119670
H34   H     H_    0.160307 0.932331 0.957631 0.131122
H35   H     H_    0.216332 0.750080 0.991059 0.157634
O30   O     O_3   0.871224 0.237244 0.967867 -0.555901
C62   C     C_3   0.818547 0.143827 0.993902 -0.245230
H36   H     H_    0.792350 0.043014 0.956496 0.141244
H37   H     H_    0.780344 0.247058 0.004281 0.160161
H38   H     H_    0.837540 0.072612 0.042789 0.134872
O31   O     O_3   0.374096 0.250998 0.465717 -0.550651
C63   C     C_3   0.320296 0.334696 0.492990 -0.273383
H39   H     H_    0.284253 0.225232 0.503414 0.156859
H40   H     H_    0.291899 0.433412 0.456277 0.110473
H41   H     H_    0.338530 0.405902 0.542070 0.127484
O32   O     O_3   0.624019 0.751690 0.535242 -0.549267
C64   C     C_3   0.676561 0.669987 0.505448 -0.257161
H42   H     H_    0.656914 0.596667 0.457160 0.129456
H43   H     H_    0.706953 0.573358 0.541512 0.118657
H44   H     H_    0.710796 0.781266 0.492690 0.158529
H45   H     H_    0.042851 0.183896 0.168603 0.143181
H46   H     H_    0.957443 0.818376 0.831136 0.138410
H47   H     H_    0.454040 0.696390 0.334100 0.145999
H48   H     H_    0.545458 0.303489 0.666522 0.139466
H49   H     H_    0.051979 0.742313 0.918410 0.163639
H50   H     H_    0.947768 0.258135 0.081555 0.167655
H51   H     H_    0.451136 0.227473 0.578951 0.165750
H52   H     H_    0.547227 0.774994 0.422238 0.169814

loop_
_geom_bond_atom_site_label_1
_geom_bond_atom_site_label_2
_ccdc_geom_bond_type
O17   V3    S    
C31   C32   S    
O1    C5    A    
C56   H10   S    
O19   V1    S    
O13   V1    S    
C49   C50   A    
O3    C7    A    
C26   H30   S    
C33   C42   A    
O23   C55   S    
C62   H38   S    
O15   V3    S    
C13   O25   S    
O25   C57   S    
O31   C63   S    
C24   H28   S    
O21   C53   S    
O7    C3    A    
C61   H33   S    
C40   H52   S    
C40   C44   A    
O9    V1    S    
C14   C18   A    
C64   H43   S    
O4    C8    A    
C53   H2    S    
C39   C52   A    
C57   H13   S    
O1    V3    S    
C27   H31   S    
C59   H19   S    
C22   H26   S    
O2    V4    S    
C18   C22   A    
O3    V1    S    
C46   C50   A    
C42   H45   S    
C5    C19   S    
C28   C32   A    
C11   O23   S    
C1    O15   A    
C6    C20   S    
C36   C43   A    
C2    O16   A    
C45   O30   S    
O2    C6    A    
O27   C59   S    
C38   C49   A    
C45   C49   A    
O14   V2    S    
C33   C46   A    
C16   C20   A    
C48   C52   A    
C35   C48   A    
C60   H24   S    
C4    C34   S    
C12   O24   S    
O11   C7    A    
O12   C8    A    
O10   V2    S    
C63   H41   S    
O28   C60   S    
O5    V1    S    
C9    C29   A    
C39   C43   A    
O7    V3    S    
C38   C42   A    
C11   C31   A    
O8    V4    S    
C12   C16   A    
O32   C64   S    
C16   O28   S    
C64   H44   S    
C53   H1    S    
C48   O31   S    
C15   C19   A    
C36   C47   A    
C29   C30   S    
C9    C13   A    
C1    C35   S    
C11   C15   A    
C51   C52   A    
O5    C1    A    
C12   C32   A    
C35   C44   A    
C34   C41   A    
C54   H4    S    
C55   H9    S    
C21   C25   A    
O8    C4    A    
C25   H29   S    
O9    C5    A    
C58   H17   S    
C26   C30   A    
C8    C18   S    
C39   H51   S    
C44   H47   S    
C46   O29   S    
C63   H40   S    
O6    V2    S    
C55   H8    S    
C10   C30   A    
C56   H12   S    
C57   H14   S    
O29   C61   S    
C62   H36   S    
C43   H48   S    
C60   H22   S    
O16   V4    S    
C21   H25   S    
C2    C36   S    
C3    O13   A    
C61   H34   S    
C38   H50   S    
C54   H5    S    
C10   C14   A    
C63   H39   S    
C62   H37   S    
C7    C17   S    
C15   O27   S    
C23   C27   A    
C34   C45   A    
O11   V3    S    
C47   O32   S    
O18   V4    S    
C37   C50   A    
O12   V4    S    
C57   H15   S    
C22   C26   A    
C61   H35   S    
C59   H21   S    
O10   C6    A    
O20   V2    S    
O30   C62   S    
C14   O26   S    
C64   H42   S    
C47   C51   A    
C28   H32   S    
C53   H3    S    
C9    O21   S    
C37   H49   S    
C25   C29   A    
C23   H27   S    
O24   C56   S    
C40   C51   A    
C59   H20   S    
C58   H18   S    
C27   C31   A    
C13   C17   A    
O26   C58   S    
O6    C2    A    
C37   C41   A    
C24   C28   A    
C54   H6    S    
C55   H7    S    
C56   H11   S    
O22   C54   S    
C4    O14   A    
C58   H16   S    
C17   C21   A    
C10   O22   S    
C41   H46   S    
C3    C33   S    
C19   C23   A    
O4    V2    S    
C20   C24   A    
C60   H23   S    
