data_mof_unit_28784.cif
_audit_creation_date              2012-12-11T15:19:53-0500
_audit_creation_method            fapswitch 2.2
_symmetry_space_group_name_H-M    P1
_symmetry_Int_Tables_number       1
_space_group_crystal_system       triclinic
_cell_length_a                    16.684404
_cell_length_b                    16.684613
_cell_length_c                    43.082603
_cell_angle_alpha                 89.998512
_cell_angle_beta                  90.002538
_cell_angle_gamma                 119.998245
_cell_volume                      10386.4487216

loop_
_atom_site_label
_atom_site_type_symbol
_atom_type_description
_atom_site_fract_x
_atom_site_fract_y
_atom_site_fract_z
_atom_type_partial_charge
C1    C     C_R   0.585000 0.426257 0.794940 0.535743
C2    C     C_R   0.426255 0.585000 0.205059 0.535763
C3    C     C_R   0.021872 0.621766 0.434615 0.426332
C4    C     C_R   0.599553 0.977606 0.065297 0.426299
C5    C     C_R   0.378111 0.400290 0.434661 0.426313
C6    C     C_R   0.621820 0.022117 0.565332 0.426276
C7    C     C_R   0.977605 0.599519 0.934716 0.426278
C8    C     C_R   0.400187 0.378231 0.565355 0.426284
C9    C     C_R   0.621653 0.021652 0.934600 0.426310
C10   C     C_R   0.977766 0.599628 0.565309 0.426279
C11   C     C_R   0.400256 0.378168 0.934653 0.426297
C12   C     C_R   0.994529 0.466204 0.065101 0.419077
C13   C     C_R   0.415005 0.841263 0.294940 0.535744
C14   C     C_R   0.471265 0.004792 0.434976 0.419077
C15   C     C_R   0.533393 0.528942 0.064987 0.419045
C16   C     C_R   0.994919 0.466362 0.434946 0.419061
C17   C     C_R   0.470638 0.003835 0.064900 0.419065
C18   C     C_R   0.533396 0.528948 0.435022 0.419057
C19   C     C_R   0.466676 0.995885 0.564941 0.419059
C20   C     C_R   0.003548 0.470426 0.935136 0.419046
C21   C     C_R   0.528979 0.533436 0.564985 0.419054
C22   C     C_R   0.466312 0.994876 0.934936 0.419065
C23   C     C_R   0.003869 0.470635 0.564911 0.419046
C24   C     C_R   0.158732 0.573740 0.205061 0.535718
C25   C     C_R   0.529025 0.533389 0.935023 0.419038
C26   C     C_R   0.995579 0.465561 0.032691 0.035298
C27   C     C_R   0.469586 0.003694 0.467386 0.035331
C28   C     C_R   0.533945 0.530605 0.032578 0.035351
C29   C     C_R   0.996004 0.465758 0.467355 0.035325
C30   C     C_R   0.468966 0.002615 0.032491 0.035361
C31   C     C_R   0.533934 0.530623 0.467431 0.035348
C32   C     C_R   0.466197 0.997062 0.532532 0.035344
C33   C     C_R   0.002272 0.468754 0.967545 0.035363
C34   C     C_R   0.530637 0.533960 0.532576 0.035332
C35   C     C_R   0.109647 0.519210 0.119802 -0.060312
C36   C     C_R   0.465718 0.995956 0.967345 0.035309
C37   C     C_R   0.002659 0.468977 0.532501 0.035355
C38   C     C_R   0.530674 0.533917 0.967432 0.035348
C39   C     C_R   0.000637 0.541041 0.016481 -0.032849
C40   C     C_R   0.540120 0.998808 0.483583 -0.032841
C41   C     C_R   0.458567 0.460000 0.016389 -0.032840
C42   C     C_R   0.000978 0.541209 0.483557 -0.032840
C43   C     C_R   0.539685 0.998004 0.016320 -0.032840
C44   C     C_R   0.458542 0.460033 0.483618 -0.032838
C45   C     C_R   0.541522 0.001667 0.516359 -0.032846
C46   C     C_R   0.409380 0.889939 0.380217 -0.060316
C47   C     C_R   0.997805 0.539566 0.983705 -0.032848
C48   C     C_R   0.459980 0.458609 0.516393 -0.032847
C49   C     C_R   0.541140 0.000850 0.983545 -0.032846
C50   C     C_R   0.998124 0.539742 0.516332 -0.032846
C51   C     C_R   0.460019 0.458564 0.983614 -0.032842
C52   C     C_R   0.005316 0.688649 0.016214 -0.125832
C53   C     C_R   0.683231 0.994476 0.483826 -0.125840
C54   C     C_R   0.311233 0.316782 0.016163 -0.125744
C55   C     C_R   0.005479 0.688731 0.483806 -0.125800
C56   C     C_R   0.683113 0.994283 0.016130 -0.125851
C57   C     C_R   0.480424 0.590716 0.119771 -0.060298
C58   C     C_R   0.311194 0.316829 0.483841 -0.125812
C59   C     C_R   0.688679 0.005403 0.516165 -0.125817
C60   C     C_R   0.994412 0.683164 0.983874 -0.125822
C61   C     C_R   0.316665 0.311363 0.516180 -0.125780
C62   C     C_R   0.688589 0.005195 0.983791 -0.125840
C63   C     C_R   0.994549 0.683244 0.516145 -0.125775
C64   C     C_R   0.316720 0.311304 0.983825 -0.125733
C65   C     C_R   0.995001 0.392584 0.016233 -0.125729
C66   C     C_R   0.397114 0.004092 0.483855 -0.125729
C67   C     C_R   0.606748 0.603117 0.016101 -0.125714
C68   C     C_R   0.109853 0.519292 0.380207 -0.060285
C69   C     C_R   0.995521 0.392839 0.483821 -0.125724
C70   C     C_R   0.396355 0.002669 0.015997 -0.125726
C71   C     C_R   0.606737 0.603135 0.483909 -0.125721
C72   C     C_R   0.393519 0.996984 0.516039 -0.125731
C73   C     C_R   0.002141 0.396065 0.984049 -0.125724
C74   C     C_R   0.603194 0.606701 0.516094 -0.125731
C75   C     C_R   0.392842 0.995548 0.983813 -0.125741
C76   C     C_R   0.002643 0.396337 0.516006 -0.125721
C77   C     C_R   0.603218 0.606672 0.983916 -0.125718
C78   C     C_3   0.163863 0.440439 0.157827 -0.249863
C79   C     C_R   0.409115 0.889383 0.119752 -0.060401
C80   C     C_3   0.155092 0.374275 0.131323 -0.308044
C81   C     C_3   0.159024 0.290261 0.143450 -0.426803
C82   C     C_3   0.276494 0.835985 0.342166 -0.249901
C83   C     C_3   0.219036 0.844614 0.368677 -0.308022
C84   C     C_3   0.131187 0.840889 0.356544 -0.426987
C85   C     C_3   0.559418 0.723557 0.157831 -0.249928
C86   C     C_3   0.625455 0.781041 0.131314 -0.307984
C87   C     C_3   0.709600 0.868872 0.143443 -0.427021
C88   C     C_3   0.163903 0.440429 0.342164 -0.249904
C89   C     C_3   0.155159 0.374270 0.368667 -0.308053
C90   C     C_R   0.480466 0.590728 0.380228 -0.060294
C91   C     C_3   0.159022 0.290226 0.356534 -0.426874
C92   C     C_3   0.276345 0.835701 0.157831 -0.249936
C93   C     C_3   0.218828 0.844202 0.131311 -0.307935
C94   C     C_3   0.131083 0.840695 0.143446 -0.427049
C95   C     C_3   0.559462 0.723557 0.342163 -0.249922
C96   C     C_3   0.625505 0.781050 0.368679 -0.307994
C97   C     C_3   0.709663 0.868861 0.356544 -0.427056
C98   C     C_3   0.440682 0.164306 0.657821 -0.249918
C99   C     C_3   0.374670 0.155802 0.631298 -0.307948
C100  C     C_3   0.290474 0.159400 0.643427 -0.427024
C101  C     C_R   0.519689 0.110477 0.619761 -0.060434
C102  C     C_3   0.835583 0.276302 0.842174 -0.249937
C103  C     C_3   0.844058 0.218779 0.868697 -0.307918
C104  C     C_3   0.840593 0.131055 0.856563 -0.427040
C105  C     C_3   0.723564 0.559342 0.657821 -0.249902
C106  C     C_3   0.781057 0.625351 0.631298 -0.307978
C107  C     C_3   0.868886 0.709509 0.643424 -0.427034
C108  C     C_3   0.440532 0.164008 0.842179 -0.249883
C109  C     C_3   0.374398 0.155286 0.868687 -0.308038
C110  C     C_3   0.290349 0.159161 0.856562 -0.426868
C111  C     C_3   0.835632 0.276345 0.657824 -0.249934
C112  C     C_R   0.841256 0.414998 0.705059 0.535717
C113  C     C_R   0.889218 0.409055 0.880257 -0.060462
C114  C     C_3   0.844101 0.218823 0.631301 -0.307932
C115  C     C_3   0.840549 0.131053 0.643433 -0.427051
C116  C     C_3   0.723583 0.559358 0.842175 -0.249919
C117  C     C_3   0.781087 0.625363 0.868698 -0.307976
C118  C     C_3   0.868917 0.709516 0.856571 -0.427037
C119  C     C_R   0.590685 0.480393 0.619770 -0.060397
C120  C     C_R   0.519346 0.109856 0.880207 -0.060372
C121  C     C_R   0.889379 0.409145 0.619752 -0.060435
C122  C     C_R   0.590733 0.480382 0.880232 -0.060337
C123  C     C_R   0.130040 0.508266 0.150465 -0.027179
C124  C     C_R   0.378114 0.869727 0.349545 -0.027175
C125  C     C_R   0.491533 0.621949 0.150447 -0.027202
C126  C     C_R   0.130145 0.508299 0.349538 -0.027189
C127  C     C_R   0.377942 0.869395 0.150437 -0.027180
C128  C     C_R   0.573739 0.158731 0.794939 0.535706
C129  C     C_R   0.491566 0.621954 0.349551 -0.027190
C130  C     C_R   0.508540 0.130544 0.650439 -0.027195
C131  C     C_R   0.869287 0.377900 0.849569 -0.027188
C132  C     C_R   0.621937 0.491500 0.650444 -0.027200
C133  C     C_R   0.508350 0.130175 0.849542 -0.027186
C134  C     C_R   0.869369 0.377955 0.650435 -0.027200
C135  C     C_R   0.621966 0.491499 0.849556 -0.027214
C136  C     C_R   0.060835 0.599946 0.166947 -0.181198
C137  C     C_R   0.539028 0.939059 0.333091 -0.181222
C138  C     C_R   0.400030 0.461020 0.166891 -0.181254
C139  C     C_R   0.584995 0.426260 0.705061 0.535701
C140  C     C_R   0.060938 0.599998 0.333077 -0.181222
C141  C     C_R   0.538902 0.938993 0.166858 -0.181254
C142  C     C_R   0.400027 0.461022 0.333113 -0.181258
C143  C     C_R   0.599849 0.060905 0.666884 -0.181247
C144  C     C_R   0.939021 0.538869 0.833153 -0.181269
C145  C     C_R   0.461010 0.400133 0.666902 -0.181236
C146  C     C_R   0.599888 0.060813 0.833063 -0.181226
C147  C     C_R   0.939048 0.538910 0.666866 -0.181254
C148  C     C_R   0.461031 0.400090 0.833107 -0.181259
C149  C     C_R   0.026289 0.594669 0.136845 -0.079979
C150  C     C_R   0.841257 0.414996 0.794942 0.535719
C151  C     C_R   0.568221 0.973483 0.363211 -0.079993
C152  C     C_R   0.405246 0.431866 0.136764 -0.080012
C153  C     C_R   0.026461 0.594743 0.363189 -0.079984
C154  C     C_R   0.567987 0.973266 0.136716 -0.080043
C155  C     C_R   0.405245 0.431871 0.363241 -0.080006
C156  C     C_R   0.594634 0.026571 0.636751 -0.080054
C157  C     C_R   0.973269 0.567925 0.863301 -0.080059
C158  C     C_R   0.431851 0.405366 0.636776 -0.080036
C159  C     C_R   0.594616 0.026308 0.863172 -0.080009
C160  C     C_R   0.973347 0.568001 0.636727 -0.080056
C161  C     C_R   0.573739 0.158738 0.705060 0.535706
C162  C     C_R   0.431887 0.405315 0.863234 -0.080020
C163  C     C_R   0.052333 0.555832 0.112713 0.203708
C164  C     C_R   0.503288 0.947280 0.387334 0.203703
C165  C     C_R   0.443904 0.496821 0.112644 0.203794
C166  C     C_R   0.052562 0.555926 0.387314 0.203757
C167  C     C_R   0.502984 0.946811 0.112601 0.203618
C168  C     C_R   0.443924 0.496832 0.387359 0.203768
C169  C     C_R   0.556092 0.053003 0.612628 0.203586
C170  C     C_R   0.946716 0.502908 0.887415 0.203569
C171  C     C_R   0.496796 0.443960 0.612650 0.203641
C172  C     C_R   0.426258 0.585000 0.294941 0.535761
C173  C     C_R   0.555880 0.052471 0.887304 0.203651
C174  C     C_R   0.946865 0.503010 0.612608 0.203603
C175  C     C_R   0.496845 0.443921 0.887357 0.203758
C176  C     C_R   0.885901 0.444143 0.825917 0.005921
C177  C     C_R   0.558222 0.114023 0.674099 0.005898
C178  C     C_R   0.555781 0.441769 0.825897 0.005959
C179  C     C_R   0.885933 0.444174 0.674091 0.005920
C180  C     C_R   0.558184 0.113883 0.825878 0.005872
C181  C     C_R   0.555763 0.441782 0.674106 0.005905
C182  C     C_R   0.444266 0.886051 0.325889 0.005920
C183  C     C_R   0.414996 0.841256 0.205058 0.535737
C184  C     C_R   0.113847 0.558176 0.174127 0.005880
C185  C     C_R   0.441772 0.555774 0.325897 0.005965
C186  C     C_R   0.444168 0.885927 0.174089 0.005931
C187  C     C_R   0.113912 0.558200 0.325882 0.005932
C188  C     C_R   0.441762 0.555772 0.174103 0.005976
C189  C     C_R   0.007988 0.617394 0.032907 0.041049
C190  C     C_R   0.609203 0.991629 0.467145 0.041044
C191  C     C_R   0.382358 0.390877 0.032835 0.041018
C192  C     C_R   0.008245 0.617515 0.467122 0.041033
C193  C     C_R   0.608918 0.991155 0.032786 0.041050
C194  C     C_R   0.158740 0.573742 0.294940 0.535756
C195  C     C_R   0.382336 0.390911 0.467170 0.041024
C196  C     C_R   0.617617 0.008537 0.532822 0.041055
C197  C     C_R   0.991130 0.608881 0.967229 0.041049
C198  C     C_R   0.390805 0.382457 0.532846 0.041048
C199  C     C_R   0.617406 0.008033 0.967108 0.041048
C200  C     C_R   0.991339 0.609006 0.532799 0.041044
C201  C     C_R   0.390860 0.382400 0.967160 0.041023
C202  C     C_R   0.021615 0.621655 0.065414 0.426316
C203  C     C_R   0.599831 0.978014 0.434637 0.426321
C204  C     C_R   0.378117 0.400268 0.065342 0.426307
Cr1   Cr    Cr6+3 0.530290 0.262330 0.750000 0.994345
Cr2   Cr    Cr6+3 0.732040 0.469710 0.750000 0.994356
Cr3   Cr    Cr6+3 0.737670 0.267960 0.750000 0.994313
Cr4   Cr    Cr6+3 0.262330 0.530290 0.250000 0.994360
Cr5   Cr    Cr6+3 0.469710 0.732040 0.250000 0.994337
Cr6   Cr    Cr6+3 0.267960 0.737670 0.250000 0.994311
H1    H     H_    0.003949 0.339896 0.972063 0.160898
H2    H     H_    0.340263 0.004598 0.027990 0.160914
H3    H     H_    0.652224 0.740351 0.380810 0.205757
H4    H     H_    0.604671 0.724781 0.323026 0.186917
H5    H     H_    0.520390 0.757489 0.334266 0.172960
H6    H     H_    0.245903 0.096612 0.657400 0.144653
H7    H     H_    0.311780 0.221119 0.658161 0.151183
H8    H     H_    0.249267 0.161857 0.623596 0.191865
H9    H     H_    0.412530 0.212897 0.614394 0.197264
H10   H     H_    0.347986 0.088416 0.619150 0.205908
H11   H     H_    0.395443 0.120327 0.676953 0.186957
H12   H     H_    0.479778 0.237299 0.665722 0.172916
H13   H     H_    0.993286 0.334704 0.471806 0.160936
H14   H     H_    0.778938 0.090635 0.841799 0.151123
H15   H     H_    0.903454 0.149352 0.842617 0.144665
H16   H     H_    0.838097 0.087363 0.876391 0.191903
H17   H     H_    0.911395 0.259501 0.880874 0.206063
H18   H     H_    0.786893 0.199464 0.885579 0.197280
H19   H     H_    0.762607 0.242393 0.834253 0.172939
H20   H     H_    0.879621 0.275089 0.823054 0.186954
H21   H     H_    0.850720 0.754103 0.657406 0.144660
H22   H     H_    0.909290 0.688162 0.658147 0.151205
H23   H     H_    0.912540 0.750708 0.623591 0.191825
H24   H     H_    0.664816 0.659116 0.028108 0.160947
H25   H     H_    0.800246 0.587477 0.614383 0.197238
H26   H     H_    0.740367 0.652075 0.619163 0.205823
H27   H     H_    0.724845 0.604581 0.676956 0.186953
H28   H     H_    0.757458 0.520234 0.665715 0.172921
H29   H     H_    0.311835 0.221187 0.841968 0.151360
H30   H     H_    0.245894 0.096660 0.842445 0.144553
H31   H     H_    0.248947 0.161241 0.876398 0.191563
H32   H     H_    0.347567 0.087744 0.880744 0.205616
H33   H     H_    0.412203 0.212166 0.885668 0.197260
H34   H     H_    0.479670 0.237067 0.834344 0.172829
H35   H     H_    0.955597 0.590266 0.815207 0.113977
H36   H     H_    0.395372 0.120187 0.823007 0.186962
H37   H     H_    0.903384 0.149293 0.657385 0.144672
H38   H     H_    0.778874 0.090657 0.658188 0.151146
H39   H     H_    0.838034 0.087361 0.623603 0.191897
H40   H     H_    0.786970 0.199565 0.614408 0.197285
H41   H     H_    0.911462 0.259523 0.619138 0.205979
H42   H     H_    0.879647 0.275104 0.676948 0.186956
H43   H     H_    0.762651 0.242449 0.665737 0.172946
H44   H     H_    0.909322 0.688166 0.841851 0.151196
H45   H     H_    0.850752 0.754109 0.842585 0.144664
H46   H     H_    0.634716 0.044406 0.684837 0.113988
H47   H     H_    0.912572 0.750718 0.876405 0.191806
H48   H     H_    0.740403 0.652090 0.880833 0.205822
H49   H     H_    0.800275 0.587485 0.885611 0.197266
H50   H     H_    0.757482 0.520260 0.834276 0.172951
H51   H     H_    0.724843 0.604597 0.823042 0.186941
H52   H     H_    0.409676 0.365171 0.815155 0.113992
H53   H     H_    0.955579 0.590290 0.684815 0.113981
H54   H     H_    0.634875 0.044494 0.815103 0.114020
H55   H     H_    0.409665 0.365230 0.684857 0.113995
H56   H     H_    0.590356 0.955399 0.315139 0.114020
H57   H     H_    0.335499 0.995054 0.528034 0.160921
H58   H     H_    0.044597 0.635000 0.184906 0.114033
H59   H     H_    0.365055 0.409668 0.315165 0.114009
H60   H     H_    0.590289 0.955500 0.184804 0.113991
H61   H     H_    0.044673 0.635048 0.315125 0.114030
H62   H     H_    0.365077 0.409669 0.184840 0.114002
H63   H     H_    0.990036 0.737937 0.971901 0.158709
H64   H     H_    0.747907 0.009930 0.528129 0.158722
H65   H     H_    0.262070 0.252023 0.971869 0.158725
H66   H     H_    0.990088 0.737976 0.528111 0.158729
H67   H     H_    0.747950 0.009966 0.971848 0.158705
H68   H     H_    0.659256 0.664717 0.971915 0.160944
H69   H     H_    0.262003 0.252092 0.528135 0.158728
H70   H     H_    0.737822 0.989708 0.471883 0.158686
H71   H     H_    0.010217 0.748082 0.028148 0.158688
H72   H     H_    0.251881 0.262207 0.471889 0.158691
H73   H     H_    0.737819 0.989771 0.028095 0.158695
H74   H     H_    0.010315 0.748124 0.471865 0.158692
H75   H     H_    0.251918 0.262158 0.028113 0.158709
H76   H     H_    0.019022 0.640812 0.867745 0.163827
H77   H     H_    0.621808 0.980842 0.632322 0.163745
H78   H     H_    0.358979 0.378105 0.867660 0.163625
H79   H     H_    0.004515 0.340210 0.527998 0.160920
H80   H     H_    0.019089 0.640895 0.632292 0.163755
H81   H     H_    0.621893 0.980654 0.867577 0.163641
H82   H     H_    0.358942 0.378169 0.632355 0.163680
H83   H     H_    0.641146 0.019109 0.367630 0.163653
H84   H     H_    0.980693 0.622018 0.132442 0.163588
H85   H     H_    0.377973 0.358955 0.367671 0.163654
H86   H     H_    0.640884 0.018966 0.132275 0.163777
H87   H     H_    0.980872 0.622091 0.367602 0.163605
H88   H     H_    0.377990 0.358951 0.132336 0.163603
H89   H     H_    0.134060 0.494342 0.100941 0.133457
H90   H     H_    0.334732 0.993373 0.971798 0.160933
H91   H     H_    0.360057 0.865385 0.399065 0.133531
H92   H     H_    0.505133 0.640059 0.100928 0.133550
H93   H     H_    0.134320 0.494446 0.399058 0.133535
H94   H     H_    0.359729 0.864605 0.100921 0.133622
H95   H     H_    0.505189 0.640078 0.399068 0.133563
H96   H     H_    0.495080 0.135226 0.600921 0.133574
H97   H     H_    0.864351 0.359656 0.899084 0.133639
H98   H     H_    0.640017 0.505046 0.600925 0.133527
H99   H     H_    0.494565 0.134367 0.899063 0.133497
H100  H     H_    0.864580 0.359771 0.600918 0.133604
H101  H     H_    0.659233 0.664746 0.528096 0.160934
H102  H     H_    0.640076 0.505047 0.899075 0.133546
H103  H     H_    0.221128 0.311788 0.158015 0.151354
H104  H     H_    0.096579 0.245831 0.157600 0.144525
H105  H     H_    0.161020 0.248809 0.123612 0.191444
H106  H     H_    0.087513 0.347408 0.119284 0.205479
H107  H     H_    0.211934 0.412064 0.114326 0.197296
H108  H     H_    0.236937 0.479573 0.165652 0.172831
H109  H     H_    0.120059 0.395304 0.177007 0.186935
H110  H     H_    0.149328 0.903532 0.342497 0.144615
H111  H     H_    0.090709 0.779017 0.341882 0.151225
H112  H     H_    0.341172 0.006257 0.471842 0.160933
H113  H     H_    0.087616 0.838631 0.376375 0.191630
H114  H     H_    0.199871 0.787626 0.385621 0.197330
H115  H     H_    0.259748 0.912080 0.380778 0.205671
H116  H     H_    0.275232 0.879907 0.323014 0.186926
H117  H     H_    0.242558 0.762959 0.334295 0.172906
H118  H     H_    0.688235 0.909314 0.158139 0.151197
H119  H     H_    0.754152 0.850710 0.157455 0.144646
H120  H     H_    0.750852 0.912489 0.123610 0.191710
H121  H     H_    0.652186 0.740342 0.119191 0.205778
H122  H     H_    0.587599 0.800227 0.114389 0.197341
H123  H     H_    0.992689 0.334418 0.028254 0.160931
H124  H     H_    0.520340 0.757483 0.165724 0.172957
H125  H     H_    0.604635 0.724797 0.176970 0.186925
H126  H     H_    0.096555 0.245827 0.342393 0.144552
H127  H     H_    0.221094 0.311719 0.341962 0.151336
H128  H     H_    0.161016 0.248765 0.376368 0.191425
H129  H     H_    0.212041 0.412051 0.385651 0.197362
H130  H     H_    0.087612 0.347444 0.380720 0.205566
H131  H     H_    0.120043 0.395295 0.322993 0.186922
H132  H     H_    0.236959 0.479528 0.334323 0.172887
H133  H     H_    0.090672 0.779021 0.158201 0.151110
H134  H     H_    0.664815 0.659123 0.471904 0.160937
H135  H     H_    0.149357 0.903532 0.157400 0.144662
H136  H     H_    0.087393 0.838206 0.123618 0.191848
H137  H     H_    0.259546 0.911559 0.119146 0.205945
H138  H     H_    0.199534 0.787066 0.114419 0.197335
H139  H     H_    0.242424 0.762718 0.165744 0.172939
H140  H     H_    0.275136 0.879725 0.176957 0.186938
H141  H     H_    0.754223 0.850675 0.342552 0.144657
H142  H     H_    0.688311 0.909276 0.341829 0.151167
H143  H     H_    0.750898 0.912510 0.376374 0.191726
H144  H     H_    0.587660 0.800263 0.385597 0.197345
N1    N     N_R   0.018384 0.547315 0.081085 -0.374377
N2    N     N_R   0.547363 0.018566 0.918938 -0.374370
N3    N     N_R   0.980571 0.528238 0.580946 -0.374369
N4    N     N_R   0.471550 0.452411 0.919006 -0.374397
N5    N     N_R   0.528635 0.981117 0.418976 -0.374370
N6    N     N_R   0.452386 0.471514 0.080995 -0.374395
N7    N     N_R   0.018689 0.547438 0.418951 -0.374377
N8    N     N_R   0.528207 0.980486 0.080935 -0.374355
N9    N     N_R   0.452392 0.471525 0.419009 -0.374383
N10   N     N_R   0.547607 0.019259 0.580971 -0.374368
N11   N     N_R   0.980355 0.528092 0.919087 -0.374350
N12   N     N_R   0.471492 0.452464 0.581002 -0.374380
O1    O     O_R   0.509640 0.171340 0.784000 -0.523800
O2    O     O_R   0.171340 0.509640 0.216000 -0.523809
O3    O     O_R   0.490360 0.661700 0.284000 -0.523846
O4    O     O_R   0.338300 0.828660 0.216000 -0.523834
O5    O     O_R   0.539230 0.345420 0.781810 -0.501466
O6    O     O_R   0.806190 0.460770 0.718190 -0.501498
O7    O     O_R   0.654580 0.193810 0.781810 -0.501563
O8    O     O_R   0.539230 0.345420 0.718190 -0.501532
O9    O     O_R   0.806190 0.460770 0.781810 -0.501493
O10   O     O_R   0.654580 0.193810 0.718190 -0.501532
O11   O     O_R   0.345420 0.539230 0.281810 -0.501471
O12   O     O_R   0.661700 0.490360 0.716000 -0.523812
O13   O     O_R   0.460770 0.806190 0.218190 -0.501496
O14   O     O_R   0.193810 0.654580 0.281810 -0.501509
O15   O     O_R   0.345420 0.539230 0.218190 -0.501457
O16   O     O_R   0.460770 0.806190 0.281810 -0.501519
O17   O     O_R   0.193810 0.654580 0.218190 -0.501563
O18   O     O_3   0.666667 0.333333 0.750000 -0.224118
O19   O     O_3   0.333333 0.666667 0.250000 -0.224118
O20   O     O_2   0.038450 0.691907 0.079463 -0.559537
O21   O     O_2   0.653326 0.961311 0.420579 -0.559518
O22   O     O_2   0.307946 0.346740 0.079406 -0.559389
O23   O     O_R   0.828660 0.338300 0.784000 -0.523825
O24   O     O_2   0.038659 0.691995 0.420560 -0.559466
O25   O     O_2   0.653202 0.961172 0.079379 -0.559554
O26   O     O_2   0.307944 0.346763 0.420594 -0.559405
O27   O     O_2   0.691910 0.038562 0.579411 -0.559577
O28   O     O_2   0.961308 0.653251 0.920625 -0.559558
O29   O     O_2   0.346597 0.308104 0.579425 -0.559537
O30   O     O_2   0.691846 0.038345 0.920542 -0.559534
O31   O     O_2   0.961377 0.653306 0.579391 -0.559537
O32   O     O_2   0.346690 0.308028 0.920583 -0.559412
O33   O     O_2   0.974741 0.395138 0.079278 -0.530789
O34   O     O_R   0.509640 0.171340 0.716000 -0.523815
O35   O     O_2   0.419893 0.024486 0.420814 -0.530918
O36   O     O_2   0.604454 0.580368 0.079141 -0.530974
O37   O     O_2   0.975155 0.395288 0.420779 -0.530863
O38   O     O_2   0.419112 0.023381 0.079031 -0.531087
O39   O     O_2   0.604467 0.580359 0.420872 -0.530963
O40   O     O_2   0.395618 0.976363 0.579078 -0.531053
O41   O     O_2   0.023016 0.418822 0.921017 -0.531146
O42   O     O_2   0.580464 0.604489 0.579133 -0.530987
O43   O     O_2   0.395254 0.975195 0.920770 -0.530885
O44   O     O_2   0.023361 0.419065 0.579042 -0.531092
O45   O     O_R   0.661700 0.490360 0.784000 -0.523834
O46   O     O_2   0.580502 0.604444 0.920875 -0.530996
O47   O     O_R   0.828660 0.338300 0.716000 -0.523822
O48   O     O_R   0.171340 0.509640 0.284000 -0.523836
O49   O     O_R   0.490360 0.661700 0.216000 -0.523845
O50   O     O_R   0.338300 0.828660 0.284000 -0.523829

loop_
_geom_bond_atom_site_label_1
_geom_bond_atom_site_label_2
_ccdc_geom_bond_type
C165  N6    S    
C107  H21   S    
C153  C166  A    
C24   C184  S    
C120  H99   S    
C158  H82   S    
C93   H137  S    
C6    C196  A    
C114  C115  S    
C138  H62   S    
C154  H86   S    
C125  C188  A    
C126  C187  A    
C85   H124  S    
C115  H38   S    
C129  C185  A    
C117  H49   S    
Cr6   O17   S    
C106  C107  S    
C150  O23   A    
C103  H17   S    
C98   H11   S    
C108  H36   S    
C58   C195  A    
C112  O6    A    
C108  C109  S    
C120  C133  A    
C32   C45   A    
C75   H90   S    
Cr1   O5    S    
C10   N3    Am   
C66   C72   A    
C121  H100  S    
C15   O36   D    
C128  C180  S    
C134  C179  A    
C53   C190  A    
C139  C181  S    
C12   O33   D    
C101  C130  A    
C58   C61   A    
C107  H23   S    
Cr6   O19   S    
C17   C30   A    
C46   C124  A    
C14   N5    Am   
Cr5   O13   S    
C19   C32   A    
C82   C124  S    
C92   H139  S    
C170  N11   S    
C152  C165  A    
C11   N4    Am   
C29   C69   A    
C86   H122  S    
C31   C44   A    
C58   H72   S    
C23   C37   A    
C35   C163  A    
C149  H84   S    
C22   O43   D    
C7    C197  A    
C124  C182  A    
C130  C177  A    
C132  C181  A    
C87   H120  S    
C146  C180  A    
C141  H60   S    
C203  N5    Am   
C14   O35   D    
C113  C170  A    
C8    O29   D    
C20   C33   A    
Cr6   O14   S    
C68   H93   S    
C33   C47   A    
C174  N3    S    
C56   C62   A    
C30   C43   A    
C183  C186  S    
C34   C48   A    
C88   H131  S    
C161  C177  S    
C57   H92   S    
C39   C47   A    
Cr1   O8    S    
C153  H87   S    
C1    O45   A    
C79   C127  A    
C18   N9    Am   
C100  H6    S    
C151  H83   S    
C140  C187  A    
C160  H80   S    
C157  H76   S    
C162  C175  A    
C18   O39   D    
C22   C36   A    
C148  C162  A    
C80   H106  S    
C108  C133  S    
C27   C66   A    
C37   C50   A    
C109  H32   S    
C168  N9    S    
Cr3   O23   S    
C114  H41   S    
C52   C189  A    
C141  C154  A    
C139  O12   A    
C112  O47   A    
C147  C179  A    
C81   H104  S    
C99   H10   S    
C98   C99   S    
C12   C26   A    
C83   H114  S    
C102  H20   S    
C105  H27   S    
C18   C31   A    
C148  H52   S    
C79   H94   S    
C41   C51   A    
Cr2   O6    S    
C44   C48   A    
C119  C171  A    
C68   C166  A    
C111  H43   S    
C53   H70   S    
C183  O4    A    
C70   H2    S    
C8    C198  A    
C67   C77   A    
C166  N7    S    
C15   C28   A    
C116  C135  S    
C85   C86   S    
C54   H75   S    
C106  H26   S    
C56   H73   S    
C13   O16   A    
C203  O21   D    
C62   C199  A    
C57   C125  A    
C39   C189  A    
C110  H30   S    
C101  H96   S    
C145  C181  A    
C131  C176  A    
C69   C76   A    
C137  H56   S    
C74   H101  S    
C52   C60   A    
C139  O8    A    
C55   C63   A    
C7    O28   D    
C97   H143  S    
C89   C91   S    
C80   H107  S    
C27   C40   A    
Cr5   O19   S    
Cr2   O18   S    
C45   C196  A    
C31   C71   A    
C100  H8    S    
C89   H129  S    
C144  H35   S    
C164  N5    S    
C147  C160  A    
C2    C188  S    
C64   H65   S    
C11   O32   D    
C41   C191  A    
C22   N2    Am   
C118  H45   S    
C23   O44   D    
Cr1   O1    S    
C38   C51   A    
C111  H42   S    
C78   H109  S    
C48   C198  A    
C69   H13   S    
C77   H68   S    
C138  C188  A    
C36   C75   A    
C25   C38   A    
C1    C178  S    
C83   C84   S    
C172  C185  S    
C144  C176  A    
Cr1   O34   S    
C175  N4    S    
C3    N7    Am   
C146  H54   S    
C78   C123  S    
C42   C50   A    
C16   O37   D    
C121  C134  A    
C92   C127  S    
C19   O40   D    
C49   C199  A    
C142  C185  A    
C148  C178  A    
C90   C168  A    
C73   H1    S    
C2    O49   A    
C24   O17   A    
C133  C180  A    
C115  H39   S    
C189  C202  A    
C140  H61   S    
C84   H111  S    
C136  H58   S    
C79   C167  A    
C19   N10   Am   
C35   C123  A    
C91   H126  S    
C46   H91   S    
C3    C192  A    
C128  O1    A    
C117  H48   S    
C54   C64   A    
C6    O27   D    
C128  O7    A    
C98   H12   S    
C172  O3    A    
C82   H116  S    
C143  C177  A    
C102  C103  S    
Cr2   O45   S    
C151  C164  A    
C70   C75   A    
C95   H4    S    
C47   C197  A    
C145  H55   S    
C141  C186  A    
C144  C157  A    
C104  H14   S    
C156  H77   S    
C7    N11   Am   
C173  N2    S    
C64   C201  A    
C67   H24   S    
C83   H115  S    
C97   H142  S    
C92   H140  S    
Cr2   O9    S    
C90   H95   S    
C104  H15   S    
C32   C72   A    
C202  N1    Am   
C91   H128  S    
Cr3   O7    S    
C66   H112  S    
C84   H110  S    
C161  O34   A    
C26   C39   A    
C57   C165  A    
C59   H64   S    
C28   C41   A    
C63   C200  A    
C161  O10   A    
Cr5   O3    S    
C116  H51   S    
C52   H71   S    
C87   H119  S    
C94   H135  S    
C204  N6    Am   
C167  N8    S    
Cr3   O18   S    
C101  C169  A    
C62   H67   S    
C14   C27   A    
C152  H88   S    
Cr4   O48   S    
C140  C153  A    
C107  H22   S    
C61   H69   S    
C29   C42   A    
C4    C193  A    
C88   H132  S    
C93   H138  S    
C30   C70   A    
C105  C132  S    
C115  H37   S    
C202  O20   D    
C40   C45   A    
Cr4   O15   S    
C84   H113  S    
C20   N11   Am   
Cr4   O11   S    
C194  O48   A    
C102  C131  S    
C85   H125  S    
C6    N10   Am   
C86   C87   S    
C21   C34   A    
C1    O5    A    
C138  C152  A    
C103  H18   S    
C96   H3    S    
C155  H85   S    
C5    O26   D    
C123  C184  A    
C157  C170  A    
C121  C174  A    
C24   O2    A    
C155  C168  A    
C136  C184  A    
C122  H102  S    
C21   N12   Am   
C111  C134  S    
C60   C197  A    
C34   C74   A    
C163  N1    S    
C81   H103  S    
C37   C76   A    
C99   H9    S    
C187  C194  S    
C150  O9    A    
C15   N6    Am   
C9    O30   D    
C25   N4    Am   
C191  C204  A    
C21   O42   D    
C44   C195  A    
C160  C174  A    
C86   H121  S    
C135  C178  A    
C10   C200  A    
C61   C198  A    
C71   C74   A    
Cr4   O19   S    
C38   C77   A    
C59   C196  A    
C35   H89   S    
C105  C106  S    
C13   O50   A    
C43   C193  A    
C55   C192  A    
C142  H59   S    
C109  C110  S    
C25   O46   D    
C145  C158  A    
C110  H31   S    
C94   H133  S    
Cr1   O18   S    
C92   C93   S    
C111  C114  S    
C78   C80   S    
C158  C171  A    
C159  H81   S    
C122  C135  A    
C65   H123  S    
C146  C159  A    
C63   H66   S    
C17   O38   D    
C82   C83   S    
C103  C104  S    
C95   C129  S    
C117  C118  S    
C36   C49   A    
C51   C201  A    
C150  C176  S    
C93   C94   S    
C8    N12   Am   
C95   H5    S    
C85   C125  S    
C95   C96   S    
C60   H63   S    
C53   C59   A    
C118  H47   S    
C16   N7    Am   
C4    O25   D    
C171  N12   S    
C9    N2    Am   
C5    N9    Am   
Cr2   O12   S    
C190  C203  A    
C109  H33   S    
C122  C175  A    
C114  H40   S    
C156  C169  A    
C127  C186  A    
C65   C73   A    
C116  C117  S    
C11   C201  A    
C88   C126  S    
C118  H44   S    
C81   H105  S    
C102  H19   S    
C105  H28   S    
C149  C163  A    
C169  N10   S    
C142  C155  A    
Cr6   O50   S    
C116  H50   S    
C20   O41   D    
C5    C195  A    
C3    O24   D    
C88   C89   S    
C46   C164  A    
C17   N8    Am   
C90   C129  A    
C98   C130  S    
C23   N3    Am   
C106  H25   S    
C71   H134  S    
C2    O15   A    
C172  O11   A    
C28   C67   A    
C50   C200  A    
C110  H29   S    
C43   C49   A    
C137  C182  A    
C16   C29   A    
C72   H57   S    
Cr3   O47   S    
C42   C192  A    
C99   C100  S    
C96   C97   S    
C108  H34   S    
C119  C132  A    
C82   H117  S    
C204  O22   D    
C76   H79   S    
C87   H118  S    
C112  C179  S    
C100  H7    S    
C89   H130  S    
C143  H46   S    
Cr5   O16   S    
C183  O13   A    
C68   C126  A    
C119  H98   S    
Cr6   O4    S    
C33   C73   A    
C136  C149  A    
C12   N1    Am   
C113  C131  A    
C26   C65   A    
C97   H141  S    
C80   C81   S    
C96   H144  S    
C104  H16   S    
Cr5   O49   S    
C78   H108  S    
C91   H127  S    
Cr3   O10   S    
Cr4   O2    S    
C143  C156  A    
C55   H74   S    
C4    N8    Am   
C113  H97   S    
C154  C167  A    
C194  O14   A    
C56   C193  A    
C9    C199  A    
C120  C173  A    
C94   H136  S    
C40   C190  A    
C54   C191  A    
C13   C182  S    
C159  C173  A    
C137  C151  A    
C147  H53   S    
C10   O31   D    
C162  H78   S    
