data_mof_unit_30585.cif
_audit_creation_date              2012-12-10T19:11:33-0500
_audit_creation_method            fapswitch 2.2
_symmetry_space_group_name_H-M    P1
_symmetry_Int_Tables_number       1
_space_group_crystal_system       triclinic
_cell_length_a                    10.724745
_cell_length_b                    9.818984
_cell_length_c                    10.477418
_cell_angle_alpha                 89.618801
_cell_angle_beta                  89.449548
_cell_angle_gamma                 90.161348
_cell_volume                      1103.25611119

loop_
_atom_site_label
_atom_site_type_symbol
_atom_type_description
_atom_site_fract_x
_atom_site_fract_y
_atom_site_fract_z
_atom_type_partial_charge
C1    C     C_R   0.258571 0.499454 0.500602 0.897269
C2    C     C_3   0.500776 0.501724 0.122416 0.021273
C3    C     C_3   0.072916 0.575090 0.617567 -0.495181
C4    C     C_3   0.073507 0.349932 0.504258 -0.524969
C5    C     C_3   0.929898 0.559989 0.625752 0.150050
C6    C     C_3   0.931793 0.351828 0.489227 0.180980
C7    C     C_3   0.078569 0.566360 0.374061 -0.477185
C8    C     C_3   0.123365 0.498054 0.499242 -0.009215
C9    C     C_3   0.880946 0.501420 0.496606 -0.073206
C10   C     C_3   0.935170 0.586341 0.379461 0.857334
C11   C     C_3   0.404859 0.080927 0.409118 -0.362895
C12   C     C_3   0.406534 0.919783 0.407288 -0.368478
C13   C     C_3   0.624029 0.082251 0.458931 0.730180
C14   C     C_3   0.624541 0.917866 0.461302 0.703080
C15   C     C_3   0.467929 0.079698 0.625198 -0.314247
C16   C     C_3   0.465768 0.918534 0.624697 -0.298065
C17   C     C_R   0.500380 0.500548 0.257520 0.873085
C18   C     C_R   0.742906 0.500283 0.498553 0.922330
C19   C     C_R   0.500454 0.499473 0.742388 0.856025
C20   C     C_3   0.499876 0.630227 0.039198 -0.113320
C21   C     C_3   0.398641 0.434687 0.043946 -0.187230
C22   C     C_3   0.397718 0.563003 0.958021 -0.205374
C23   C     C_3   0.500844 0.498387 0.877542 0.007747
C24   C     C_3   0.603035 0.565450 0.955996 -0.164139
C25   C     C_3   0.501803 0.369895 0.960788 -0.122279
C26   C     C_3   0.603959 0.437139 0.041987 -0.136420
H1    H     H_    0.313922 0.613898 0.918796 0.136962
H2    H     H_    0.418516 0.121362 0.310785 0.211215
H3    H     H_    0.424341 0.883915 0.308543 0.206426
H4    H     H_    0.310282 0.115855 0.438365 0.178801
H5    H     H_    0.311899 0.880807 0.432510 0.182179
H6    H     H_    0.535266 0.115636 0.697682 0.210358
H7    H     H_    0.529783 0.879477 0.699170 0.219965
H8    H     H_    0.375438 0.118330 0.657334 0.160093
H9    H     H_    0.371378 0.881701 0.653779 0.156556
H10   H     H_    0.499019 0.736324 0.075206 0.177033
H11   H     H_    0.315606 0.381823 0.084837 0.135396
H12   H     H_    0.686099 0.618314 0.915159 0.162299
H13   H     H_    0.502596 0.263785 0.924802 0.150068
H14   H     H_    0.687815 0.386364 0.081185 0.197470
H15   H     H_    0.099954 0.684491 0.611267 0.206636
H16   H     H_    0.117547 0.286314 0.428734 0.204733
H17   H     H_    0.114769 0.533404 0.706465 0.151385
H18   H     H_    0.097840 0.301945 0.597442 0.174665
H19   H     H_    0.906154 0.485750 0.703615 0.094311
H20   H     H_    0.893262 0.293617 0.571823 0.170713
H21   H     H_    0.126946 0.665403 0.356922 0.167498
H22   H     H_    0.105198 0.501030 0.291700 0.175361
N1    N     N_3   0.499750 0.138610 0.497240 -0.077648
N2    N     N_3   0.499750 0.861390 0.497240 -0.080312
O1    O     O_R   0.314910 0.616040 0.499970 -0.646559
O2    O     O_R   0.314910 0.383960 0.499970 -0.642797
O3    O     O_R   0.500080 0.616020 0.313900 -0.606023
O4    O     O_R   0.500080 0.383980 0.313900 -0.585309
O5    O     O_R   0.685320 0.616040 0.499930 -0.487023
O6    O     O_R   0.685320 0.383960 0.499930 -0.534569
O7    O     O_R   0.500150 0.616060 0.686000 -0.617697
O8    O     O_R   0.500150 0.383940 0.686000 -0.635357
Zn1   Zn    Zn3+2 0.500150 0.654960 0.499940 0.999359
Zn2   Zn    Zn3+2 0.500150 0.345040 0.499940 0.989373
O9    O     O_3   0.907533 0.725993 0.390538 -0.695675
H23   H     H_    0.966760 0.769532 0.449896 0.334869
O10   O     O_3   0.884930 0.540089 0.263703 -0.768680
H24   H     H_    0.797396 0.572062 0.258810 0.364843
Cl1   Cl    Cl    0.666100 0.150512 0.303126 -0.540448
Cl2   Cl    Cl    0.671630 0.847483 0.308853 -0.559697
O11   O     O_3   0.712667 0.129771 0.545997 -0.757859
H25   H     H_    0.795911 0.106881 0.510891 0.356822
O12   O     O_3   0.709903 0.871878 0.553085 -0.696879
H26   H     H_    0.794897 0.889713 0.519826 0.378993
O13   O     O_3   0.875007 0.685328 0.656372 -0.714120
H27   H     H_    0.894105 0.703294 0.747282 0.342962
O14   O     O_3   0.895090 0.285561 0.376688 -0.675484
H28   H     H_    0.953050 0.309897 0.305852 0.377644

loop_
_geom_bond_atom_site_label_1
_geom_bond_atom_site_label_2
_ccdc_geom_bond_type
C7    C10   S    
O5    Zn1   S    
C12   H3    S    
C1    C8    S    
O14   H28   S    
C10   O10   S    
C4    C8    S    
C6    C9    S    
O3    Zn1   S    
C7    C8    S    
C13   Cl1   S    
C19   O7    A    
C3    H17   S    
N1    Zn2   S    
N2    Zn1   S    
C16   N2    S    
C16   H9    S    
O7    Zn1   S    
O8    Zn2   S    
C15   C16   S    
O2    Zn2   S    
C20   C24   S    
C11   H4    S    
C24   H12   S    
C23   C24   S    
C9    C10   S    
C15   H8    S    
C18   O6    A    
C23   C25   S    
C21   C22   S    
C2    C17   S    
O12   H26   S    
C19   O8    A    
C2    C20   S    
O11   H25   S    
C15   H6    S    
C4    C6    S    
C3    C8    S    
O4    Zn2   S    
C4    H18   S    
C25   C26   S    
C5    H19   S    
O6    Zn2   S    
C7    H21   S    
C19   C23   S    
C5    C9    S    
C11   N1    S    
C16   H7    S    
C2    C21   S    
C14   Cl2   S    
C2    C26   S    
C1    O1    A    
C18   O5    A    
C13   N1    S    
C20   C22   S    
C22   H1    S    
C12   H5    S    
C14   O12   S    
C10   O9    S    
O1    Zn1   S    
C17   O3    A    
C6    O14   S    
C13   O11   S    
C21   C25   S    
C3    H15   S    
C6    H20   S    
C24   C26   S    
C3    C5    S    
C12   N2    S    
C11   C12   S    
C7    H22   S    
O13   H27   S    
C5    O13   S    
C25   H13   S    
C26   H14   S    
C14   N2    S    
C4    H16   S    
C11   H2    S    
C15   N1    S    
O9    H23   S    
C1    O2    A    
O10   H24   S    
C20   H10   S    
C9    C18   S    
C21   H11   S    
C22   C23   S    
C13   C14   S    
C17   O4    A    
