data_mof_unit_50771.cif
_audit_creation_date              2012-10-26T19:36:25-0400
_audit_creation_method            fapswitch 2.2
_symmetry_space_group_name_H-M    P1
_symmetry_Int_Tables_number       1
_space_group_crystal_system       triclinic
_cell_length_a                    10.854572
_cell_length_b                    15.972383
_cell_length_c                    14.738613
_cell_angle_alpha                 90.236769
_cell_angle_beta                  90.836712
_cell_angle_gamma                 90.158322
_cell_volume                      2554.97870504

loop_
_atom_site_label
_atom_site_type_symbol
_atom_type_description
_atom_site_fract_x
_atom_site_fract_y
_atom_site_fract_z
_atom_type_partial_charge
C1    C     C_R   0.499233 0.340841 0.499811 0.566964
C2    C     C_R   0.489947 0.087233 0.498500 0.009804
C3    C     C_R   0.588657 0.956392 0.457393 0.268303
C4    C     C_R   0.392886 0.043816 0.539423 0.275170
C5    C     C_1   0.491992 0.823165 0.498390 -0.010374
C6    C     C_1   0.492579 0.176787 0.498975 0.001710
C7    C     C_1   0.495785 0.251809 0.499388 0.010465
C8    C     C_1   0.494890 0.748164 0.499785 0.004697
C9    C     C_R   0.507300 0.575475 0.952558 -0.100536
C10   C     C_R   0.466052 0.427156 0.047397 -0.085369
C11   C     C_R   0.488247 0.501076 0.902753 0.026205
C12   C     C_R   0.498695 0.659153 0.500088 0.578006
C13   C     C_R   0.491111 0.500835 0.097108 0.034477
C14   C     C_R   0.465377 0.427146 0.951473 -0.050920
C15   C     C_R   0.510756 0.575136 0.048393 -0.055556
C16   C     C_R   0.261899 0.501363 0.499117 0.570462
C17   C     C_R   0.738550 0.498921 0.500778 0.572190
C18   C     C_1   0.494706 0.500395 0.802686 0.118334
C19   C     C_1   0.496335 0.500292 0.197217 0.103223
C20   C     C_R   0.233837 0.678887 0.267733 0.253392
C21   C     C_R   0.778804 0.342855 0.755031 0.280042
C22   C     C_R   0.178417 0.645086 0.345029 0.228817
C23   C     C_R   0.872512 0.498577 0.501912 0.004398
C24   C     C_R   0.828845 0.367963 0.672161 0.220346
C25   C     C_R   0.117439 0.566796 0.339608 -0.041249
C26   C     C_R   0.887673 0.446300 0.665603 -0.033474
C27   C     C_R   0.113824 0.522307 0.256928 0.204419
C28   C     C_R   0.901643 0.497731 0.742823 0.210073
C29   C     C_R   0.163544 0.558329 0.178335 0.256671
C30   C     C_R   0.842054 0.475880 0.824432 0.226396
C31   C     C_R   0.221489 0.636907 0.183314 0.209385
C32   C     C_R   0.785970 0.395786 0.831797 0.224607
C33   C     C_R   0.932478 0.525700 0.423715 -0.149663
C34   C     C_R   0.128711 0.502111 0.497363 0.003177
C35   C     C_R   0.069207 0.473547 0.574379 -0.145130
C36   C     C_3   0.195533 0.728294 0.065943 0.022697
C37   C     C_3   0.225544 0.734189 0.965143 -0.254167
C38   C     C_3   0.135278 0.790866 0.914389 -0.499994
C39   C     C_3   0.802455 0.375014 0.987539 0.029444
C40   C     C_3   0.764389 0.307846 0.055357 -0.284276
C41   C     C_3   0.837273 0.316092 0.144334 -0.471799
C42   C     C_3   0.418666 0.748392 0.251418 -0.067251
C43   C     C_3   0.792849 0.206706 0.797677 -0.103349
C44   C     C_3   0.101749 0.727493 0.458997 0.009578
C45   C     C_R   0.942068 0.473365 0.578850 0.048415
C46   C     C_3   0.112054 0.735090 0.562354 -0.248529
C47   C     C_3   0.003562 0.782312 0.602280 -0.479565
C48   C     C_3   0.925709 0.272650 0.580639 0.006172
C49   C     C_3   0.946811 0.266474 0.478414 -0.262278
C50   C     C_3   0.075160 0.232958 0.458191 -0.473313
C51   C     C_3   0.150931 0.382729 0.264777 -0.097064
C52   C     C_3   0.077390 0.566832 0.787245 -0.123521
C53   C     C_3   0.052370 0.514207 0.055028 -0.090363
C54   C     C_3   0.789739 0.607912 0.876073 -0.098967
C55   C     C_3   0.258124 0.061206 0.660186 0.010298
C56   C     C_R   0.060180 0.529701 0.421191 0.027968
C57   C     C_3   0.127146 0.025687 0.654020 -0.270861
C58   C     C_3   0.085228 0.991977 0.745219 -0.495411
C59   C     C_3   0.798146 0.931119 0.447487 0.000887
C60   C     C_3   0.876923 0.970110 0.373357 -0.267244
C61   C     C_3   0.004174 0.994764 0.409928 -0.476682
C62   C     C_R   0.392932 0.955666 0.536126 -0.152569
C63   C     C_R   0.586264 0.044171 0.457350 -0.150661
C64   C     C_R   0.490786 0.912696 0.496594 0.007167
Cu1   Cu    Cu3+1 0.500040 0.500000 0.589220 1.005328
Cu2   Cu    Cu3+1 0.499960 0.500000 0.410780 0.972211
H1    H     H_    0.521753 0.633926 0.917270 0.075275
H2    H     H_    0.096152 0.711583 0.072375 0.104989
H3    H     H_    0.320678 0.758879 0.957553 0.154824
H4    H     H_    0.221623 0.670585 0.934362 0.176539
H5    H     H_    0.039972 0.765902 0.919212 0.140581
H6    H     H_    0.160231 0.793379 0.841649 0.139486
H7    H     H_    0.138806 0.855289 0.942995 0.144487
H8    H     H_    0.789676 0.436873 0.020702 0.190934
H9    H     H_    0.901658 0.365397 0.971591 0.105133
H10   H     H_    0.664700 0.313634 0.069695 0.174404
H11   H     H_    0.780552 0.244734 0.026151 0.150519
H12   H     H_    0.448631 0.369148 0.082821 0.087970
H13   H     H_    0.937464 0.309869 0.131739 0.162924
H14   H     H_    0.808889 0.265970 0.191709 0.144883
H15   H     H_    0.819328 0.377756 0.176638 0.180617
H16   H     H_    0.458291 0.685016 0.263179 0.138873
H17   H     H_    0.473718 0.793338 0.292930 0.155181
H18   H     H_    0.429753 0.766337 0.179355 0.135700
H19   H     H_    0.807725 0.218500 0.871174 0.127879
H20   H     H_    0.883415 0.203032 0.763550 0.072365
H21   H     H_    0.747522 0.144688 0.790187 0.132013
H22   H     H_    0.011746 0.697420 0.441139 0.113907
H23   H     H_    0.879785 0.547121 0.365223 0.138416
H24   H     H_    0.103926 0.790935 0.428407 0.154027
H25   H     H_    0.115340 0.671371 0.592323 0.200867
H26   H     H_    0.199010 0.768241 0.581146 0.158997
H27   H     H_    0.001842 0.847522 0.576820 0.121170
H28   H     H_    0.013273 0.784212 0.677379 0.156960
H29   H     H_    0.915433 0.750462 0.584113 0.162634
H30   H     H_    0.916209 0.208193 0.607636 0.136317
H31   H     H_    0.008979 0.301486 0.613657 0.104284
H32   H     H_    0.876216 0.224256 0.447319 0.157860
H33   H     H_    0.937031 0.329242 0.446995 0.194091
H34   H     H_    0.122195 0.450372 0.631817 0.120341
H35   H     H_    0.146521 0.279087 0.480130 0.153506
H36   H     H_    0.083711 0.221806 0.384195 0.136487
H37   H     H_    0.091526 0.173093 0.494173 0.183722
H38   H     H_    0.188464 0.384297 0.335296 0.135405
H39   H     H_    0.226765 0.389335 0.215213 0.151173
H40   H     H_    0.108603 0.320228 0.253639 0.114241
H41   H     H_    0.124593 0.505371 0.780131 0.099470
H42   H     H_    0.059672 0.579614 0.859848 0.148982
H43   H     H_    0.141830 0.615780 0.763392 0.130386
H44   H     H_    0.024173 0.578889 0.037050 0.119698
H45   H     H_    0.317095 0.920370 0.563871 0.106538
H46   H     H_    0.980622 0.484246 0.096980 0.148471
H47   H     H_    0.058452 0.477914 0.990989 0.139362
H48   H     H_    0.750376 0.635407 0.938390 0.107682
H49   H     H_    0.714579 0.603249 0.823997 0.130778
H50   H     H_    0.861561 0.652347 0.853539 0.157380
H51   H     H_    0.257518 0.116401 0.706306 0.150326
H52   H     H_    0.322153 0.015093 0.692327 0.115190
H53   H     H_    0.062750 0.075678 0.631484 0.148203
H54   H     H_    0.123255 0.974345 0.603166 0.159646
H55   H     H_    0.146980 0.940719 0.768224 0.145753
H56   H     H_    0.659023 0.078961 0.424878 0.111104
H57   H     H_    0.990100 0.966783 0.738153 0.141120
H58   H     H_    0.085732 0.042769 0.796937 0.138460
H59   H     H_    0.841118 0.871108 0.468233 0.141970
H60   H     H_    0.798819 0.972170 0.509103 0.113977
H61   H     H_    0.887379 0.924479 0.316857 0.167685
H62   H     H_    0.830765 0.026773 0.345954 0.159304
H63   H     H_    0.995128 0.040615 0.466136 0.144447
H64   H     H_    0.058471 0.023928 0.355107 0.158280
H65   H     H_    0.054318 0.938889 0.435180 0.144279
H66   H     H_    0.528838 0.633168 0.084500 0.105829
H67   H     H_    0.448809 0.368934 0.915323 0.130239
H68   H     H_    0.211277 0.790393 0.098572 0.155163
N1    N     N_1   0.500040 0.499980 0.276710 -0.219181
N2    N     N_1   0.499960 0.500020 0.723290 -0.206279
O1    O     O_R   0.500060 0.380310 0.575320 -0.459811
O2    O     O_3   0.725247 0.370214 0.909465 -0.542837
O3    O     O_3   0.293819 0.755407 0.276242 -0.554422
O4    O     O_3   0.715137 0.267894 0.758781 -0.500702
O5    O     O_3   0.204014 0.681398 0.428600 -0.538420
O6    O     O_3   0.814952 0.316905 0.596401 -0.533485
O7    O     O_3   0.059090 0.444055 0.252415 -0.579096
O8    O     O_3   0.967312 0.571886 0.735192 -0.571534
O9    O     O_3   0.168877 0.513056 0.098300 -0.539107
O10   O     O_3   0.841989 0.529653 0.898683 -0.608207
O11   O     O_3   0.294546 0.089294 0.573504 -0.578764
O12   O     O_R   0.499940 0.619690 0.424680 -0.488098
O13   O     O_3   0.679192 0.912341 0.412047 -0.574288
O14   O     O_R   0.500000 0.380310 0.424640 -0.509284
O15   O     O_R   0.500000 0.619690 0.575360 -0.505158
O16   O     O_R   0.319670 0.500010 0.575340 -0.512815
O17   O     O_R   0.680330 0.499990 0.424660 -0.507641
O18   O     O_R   0.319610 0.500010 0.424650 -0.499737
O19   O     O_R   0.680390 0.499990 0.575350 -0.484123
O20   O     O_3   0.274736 0.668549 0.106116 -0.558473

loop_
_geom_bond_atom_site_label_1
_geom_bond_atom_site_label_2
_ccdc_geom_bond_type
C53   H44   S    
C11   C18   S    
C34   C56   A    
C23   C45   A    
C37   H3    S    
C27   C29   A    
C42   H16   S    
C25   C56   S    
C17   O17   A    
C41   H14   S    
C31   O20   S    
C10   H12   S    
C1    O1    A    
C3    C64   A    
C59   H60   S    
C48   H31   S    
C58   H57   S    
C52   O8    S    
C20   O3    S    
C36   C37   S    
C24   C26   A    
Cu2   O14   S    
C29   O9    S    
C11   C14   A    
C46   H26   S    
C19   N1    T    
C4    C62   A    
C34   C35   A    
C39   H8    S    
C62   C64   A    
C26   C45   S    
C16   C34   S    
C49   H32   S    
C38   H5    S    
C62   H45   S    
C52   H41   S    
C24   O6    S    
C44   O5    S    
C23   C33   A    
C22   C25   A    
C54   H50   S    
C27   O7    S    
C18   N2    T    
C28   O8    S    
C39   H9    S    
Cu2   O12   S    
C61   H63   S    
C57   H53   S    
Cu1   O1    S    
C33   C56   A    
C39   O2    S    
C59   C60   S    
C37   H4    S    
C12   O15   A    
C2    C6    S    
C53   H47   S    
C30   O10   S    
C1    O14   A    
C59   O13   S    
C21   C32   A    
C38   H6    S    
C3    O13   S    
C13   C19   S    
C43   H19   S    
C60   H62   S    
C42   H18   S    
C10   C14   A    
C39   C40   S    
Cu2   O18   S    
C46   H25   S    
C44   C46   S    
C51   H38   S    
C4    O11   S    
C40   H10   S    
C5    C64   S    
C60   C61   S    
Cu1   O15   S    
C2    C4    A    
C9    H1    S    
C32   O2    S    
C37   C38   S    
C33   H23   S    
C49   H33   S    
C55   O11   S    
C8    C12   S    
C41   H15   S    
C54   H49   S    
C53   O9    S    
C47   H27   S    
C48   O6    S    
C43   O4    S    
C16   O16   A    
C17   C23   S    
C9    C11   A    
C61   H64   S    
C57   H54   S    
C53   H46   S    
C48   C49   S    
C20   C22   A    
C50   H36   S    
C51   O7    S    
C55   C57   S    
C16   O18   A    
C5    C8    T    
C25   C27   A    
C35   H34   S    
C17   O19   A    
C63   H56   S    
C44   H24   S    
C2    C63   A    
C36   O20   S    
C55   H51   S    
C46   C47   S    
C40   C41   S    
C58   H55   S    
C48   H30   S    
C42   O3    S    
C1    C7    S    
C43   H20   S    
C26   C28   A    
C60   H61   S    
C42   H17   S    
C55   H52   S    
C10   C13   A    
C36   H68   S    
C41   H13   S    
Cu2   O17   S    
C36   H2    S    
C6    C7    T    
C14   H67   S    
C3    C63   A    
C59   H59   S    
C58   H58   S    
C54   O10   S    
C43   H21   S    
C12   O12   A    
Cu1   O16   S    
C13   C15   A    
C9    C15   A    
C29   C31   A    
C30   C32   A    
C57   C58   S    
C52   H43   S    
C51   H40   S    
C54   H48   S    
C22   O5    S    
C28   C30   A    
C47   H28   S    
C15   H66   S    
Cu1   Cu2   S    
C51   H39   S    
Cu1   N2    S    
C61   H65   S    
Cu2   N1    S    
C50   H37   S    
C52   H42   S    
C50   H35   S    
Cu1   O19   S    
C49   C50   S    
C21   C24   A    
C47   H29   S    
C40   H11   S    
C21   O4    S    
C44   H22   S    
C20   C31   A    
C38   H7    S    
C35   C45   A    
