data_mof_unit_6672.cif
_audit_creation_date              2012-12-11T14:47:52-0500
_audit_creation_method            fapswitch 2.2
_symmetry_space_group_name_H-M    P1
_symmetry_Int_Tables_number       1
_space_group_crystal_system       triclinic
_cell_length_a                    11.555237
_cell_length_b                    11.541923
_cell_length_c                    19.584269
_cell_angle_alpha                 90.222811
_cell_angle_beta                  89.961991
_cell_angle_gamma                 60.138283
_cell_volume                      2265.13070347

loop_
_atom_site_label
_atom_site_type_symbol
_atom_type_description
_atom_site_fract_x
_atom_site_fract_y
_atom_site_fract_z
_atom_type_partial_charge
C1    C     C_R   0.640226 0.116844 0.599401 0.547316
C2    C     C_1   0.652985 0.148964 0.668753 0.003595
C3    C     C_R   0.521047 0.756612 0.286055 0.239187
C4    C     C_R   0.612195 0.746229 0.598694 0.548143
C5    C     C_R   0.534763 0.749948 0.216045 0.256776
C6    C     C_R   0.663656 0.685367 0.188531 -0.099196
C7    C     C_R   0.775888 0.657700 0.229825 -0.054023
C8    C     C_R   0.762820 0.664236 0.300810 0.180121
C9    C     C_R   0.634846 0.712619 0.328626 -0.018613
C10   C     C_R   0.211707 0.264854 0.290406 -0.014586
C11   C     C_R   0.190669 0.270860 0.221454 -0.189526
C12   C     C_1   0.640748 0.704197 0.668068 0.006039
C13   C     C_R   0.146583 0.191596 0.190872 -0.004071
C14   C     C_R   0.136927 0.092101 0.228544 0.279233
C15   C     C_R   0.163085 0.082568 0.298740 -0.092914
C16   C     C_R   0.241291 0.144937 0.598274 0.545851
C17   C     C_R   0.200331 0.167185 0.330008 -0.017170
C18   C     C_R   0.714320 0.030943 0.283161 -0.128541
C19   C     C_R   0.713499 0.053261 0.213598 0.226712
C20   C     C_R   0.657574 0.185597 0.190321 -0.000347
C21   C     C_R   0.577819 0.292261 0.235247 -0.073311
C22   C     C_R   0.581090 0.268294 0.304972 -0.153093
C23   C     C_1   0.126276 0.199721 0.859213 0.003588
C24   C     C_R   0.653990 0.137906 0.329471 -0.033845
C25   C     C_R   0.081293 0.231799 0.928468 0.535045
C26   C     C_R   0.683989 0.604595 0.929453 0.530405
C27   C     C_R   0.708590 0.207179 0.930004 0.531703
C28   C     C_R   0.642530 0.109479 0.400710 0.545695
C29   C     C_R   0.084645 0.234277 0.124455 0.538775
C30   C     C_R   0.683253 0.614595 0.124387 0.537135
C31   C     C_R   0.705526 0.211093 0.125967 0.537594
C32   C     C_R   0.613482 0.744305 0.400677 0.597228
C33   C     C_R   0.247982 0.140558 0.400159 0.553473
C34   C     C_1   0.171761 0.169991 0.727768 -0.030191
C35   C     C_1   0.670597 0.646643 0.860075 0.004159
C36   C     C_1   0.654423 0.683967 0.728460 -0.030819
C37   C     C_1   0.663447 0.666891 0.799670 -0.030410
C38   C     C_3   0.354912 0.717584 0.321055 -0.043546
C39   C     C_3   0.688212 0.942486 0.123119 -0.104242
C40   C     C_1   0.486696 0.424346 0.210443 0.217164
C41   C     C_3   0.402707 0.888574 0.130949 -0.049255
C42   C     C_1   0.904630 0.621397 0.200448 0.295034
C43   C     C_3   0.942396 0.664427 0.353778 -0.084209
C44   C     C_1   0.241852 0.364144 0.317099 0.271807
C45   C     C_1   0.149987 0.182809 0.798946 -0.030190
C46   C     C_3   0.032703 0.964128 0.230073 -0.056523
C47   C     C_1   0.195725 0.160183 0.667482 0.004789
C48   C     C_1   0.678720 0.191807 0.860673 0.003731
C49   C     C_1   0.658668 0.166753 0.729057 -0.030322
C50   C     C_1   0.665841 0.181028 0.800308 -0.029747
Cr1   Cr    Cr6+3 0.404720 0.198220 0.499960 1.049695
Cr2   Cr    Cr6+3 0.698290 0.897110 0.500380 1.021685
Cr3   Cr    Cr6+3 0.396970 0.904720 0.499610 1.040579
Cr4   Cr    Cr6+3 0.926180 0.152240 0.028110 1.066903
Cr5   Cr    Cr6+3 0.921340 0.452070 0.027460 1.048988
Cr6   Cr    Cr6+3 0.626260 0.447120 0.028700 1.065438
H1    H     H_    0.525232 0.350573 0.340040 0.149253
H2    H     H_    0.735566 0.843664 0.097365 0.149322
H3    H     H_    0.483881 0.854209 0.092465 0.074432
H4    H     H_    0.391470 0.977400 0.159008 0.095176
H5    H     H_    0.309308 0.919639 0.102142 0.184262
H6    H     H_    0.015657 0.613699 0.395216 0.156733
H7    H     H_    0.876246 0.767591 0.371583 0.143986
H8    H     H_    0.999306 0.664779 0.308431 0.128868
H9    H     H_    0.000915 0.911220 0.194277 0.220833
H10   H     H_    0.942931 0.054374 0.250222 0.111833
H11   H     H_    0.086416 0.892602 0.271628 0.082105
H12   H     H_    0.202130 0.343729 0.191763 0.169623
H13   H     H_    0.158104 0.007483 0.329252 0.146342
H14   H     H_    0.759230 0.929235 0.300340 0.128222
H15   H     H_    0.439089 0.616670 0.334381 0.108415
H16   H     H_    0.303999 0.712130 0.274431 0.188338
H17   H     H_    0.281356 0.749520 0.363395 0.115977
H18   H     H_    0.662333 0.018631 0.082767 0.125832
H19   H     H_    0.596440 0.957460 0.148945 0.083698
N1    N     N_1   0.412693 0.528662 0.189021 -0.236830
N2    N     N_1   0.006753 0.594853 0.176783 -0.279096
N3    N     N_1   0.264930 0.444287 0.338128 -0.353911
O1    O     O_R   0.267740 0.231990 0.575440 -0.503289
O2    O     O_R   0.596140 0.579600 0.952720 -0.506559
O3    O     O_R   0.639070 0.321380 0.958660 -0.496942
O4    O     O_R   0.527280 0.186680 0.570530 -0.494278
O5    O     O_R   0.821240 0.124490 0.104360 -0.466463
O6    O     O_R   0.036900 0.167320 0.097830 -0.457545
O7    O     O_R   0.056190 0.349890 0.102870 -0.507818
O8    O     O_R   0.797670 0.565150 0.097930 -0.509121
O9    O     O_R   0.595880 0.584540 0.104260 -0.446168
O10   O     O_R   0.638830 0.325960 0.099140 -0.500444
O11   O     O_3   0.824590 0.350480 0.028090 -0.270384
O12   O     O_R   0.685970 0.784630 0.430010 -0.497163
O13   O     O_R   0.728090 0.003480 0.576380 -0.504568
O14   O     O_R   0.682970 0.789220 0.570490 -0.492712
O15   O     O_R   0.499290 0.771920 0.575530 -0.508551
O16   O     O_R   0.285330 0.030900 0.569730 -0.497973
O17   O     O_R   0.270980 0.227040 0.423900 -0.502561
O18   O     O_R   0.530280 0.182090 0.430050 -0.489460
O19   O     O_R   0.731330 0.998530 0.424830 -0.544029
O20   O     O_3   0.393343 0.815282 0.312732 -0.533791
O21   O     O_3   0.779292 0.943772 0.170515 -0.576490
O22   O     O_3   0.421977 0.786290 0.176599 -0.485080
O23   O     O_R   0.502530 0.766960 0.423990 -0.487158
O24   O     O_3   0.873971 0.593274 0.342308 -0.556106
O25   O     O_3   0.116937 0.998000 0.193945 -0.529751
O26   O     O_R   0.288330 0.026310 0.429250 -0.485316
O27   O     O_3   0.499990 0.000020 0.499980 -0.267849
O28   O     O_R   0.821500 0.119550 0.952820 -0.507739
O29   O     O_R   0.037130 0.162750 0.957360 -0.500487
O30   O     O_R   0.056440 0.344950 0.951330 -0.504070
O31   O     O_R   0.797900 0.560570 0.957460 -0.498447

loop_
_geom_bond_atom_site_label_1
_geom_bond_atom_site_label_2
_ccdc_geom_bond_type
C27   C48   S    
C18   H14   S    
C23   C45   T    
C33   O26   A    
Cr2   O12   S    
C19   C20   A    
C41   H5    S    
C38   O20   S    
C22   H1    S    
Cr4   O6    S    
C43   H7    S    
Cr6   O3    S    
Cr4   O29   S    
C18   C24   A    
C13   C29   S    
C36   C37   S    
C35   C37   T    
C46   H10   S    
C5    C6    A    
Cr6   O10   S    
Cr3   O26   S    
Cr2   O19   S    
C31   O5    A    
C1    C2    S    
C7    C42   S    
C9    C32   S    
C32   O12   A    
Cr3   O23   S    
C8    C9    A    
C39   H19   S    
C30   O8    A    
C4    C12   S    
C29   O7    A    
Cr1   O18   S    
C48   C50   T    
C1    O13   A    
C13   C14   A    
Cr5   O31   S    
C17   C33   S    
C33   O17   A    
C16   C47   S    
Cr4   O5    S    
C43   H8    S    
C15   H13   S    
C38   H16   S    
Cr4   O28   S    
C10   C44   S    
C27   O3    A    
C41   H3    S    
C29   O6    A    
C19   O21   S    
C18   C19   A    
Cr6   O9    S    
C27   O28   A    
C1    O4    A    
C39   H2    S    
Cr3   O15   S    
C26   O2    A    
C40   N1    T    
Cr5   O7    S    
C3    C9    A    
C2    C49   T    
C39   O21   S    
C26   O31   A    
C5    O22   S    
Cr1   O27   S    
C41   O22   S    
C34   C45   S    
Cr1   O4    S    
C46   H9    S    
Cr6   O11   S    
C6    C30   S    
Cr2   O27   S    
C22   C24   A    
Cr2   O14   S    
C12   C36   T    
C11   H12   S    
C25   O29   A    
C15   C17   A    
C38   H15   S    
C31   O10   A    
Cr3   O16   S    
C14   C15   A    
C24   C28   S    
C41   H4    S    
C3    C5    A    
C6    C7    A    
C46   O25   S    
C16   O16   A    
Cr6   O2    S    
C28   O19   A    
Cr5   O30   S    
C28   O18   A    
C16   O1    A    
Cr5   O8    S    
C44   N3    T    
C43   O24   S    
C46   H11   S    
Cr5   O11   S    
C11   C13   A    
C3    O20   S    
C14   O25   S    
C21   C40   S    
Cr4   O11   S    
C39   H18   S    
Cr1   O1    S    
C7    C8    A    
C10   C11   A    
C4    O15   A    
Cr3   O27   S    
C26   C35   S    
C23   C25   S    
C20   C21   A    
C25   O30   A    
C42   N2    T    
C49   C50   S    
C32   O23   A    
Cr2   O13   S    
C34   C47   T    
C10   C17   A    
C30   O9    A    
C21   C22   A    
C8    O24   S    
C20   C31   S    
C43   H6    S    
Cr1   O17   S    
C4    O14   A    
C38   H17   S    
