data_mof_unit_48699.cif
_audit_creation_date              2012-12-10T17:53:43-0500
_audit_creation_method            fapswitch 2.2
_symmetry_space_group_name_H-M    P1
_symmetry_Int_Tables_number       1
_space_group_crystal_system       triclinic
_cell_length_a                    11.146203
_cell_length_b                    11.7081
_cell_length_c                    10.415188
_cell_angle_alpha                 90.383955
_cell_angle_beta                  89.453851
_cell_angle_gamma                 89.917902
_cell_volume                      1359.09719627

loop_
_atom_site_label
_atom_site_type_symbol
_atom_type_description
_atom_site_fract_x
_atom_site_fract_y
_atom_site_fract_z
_atom_type_partial_charge
C1    C     C_R   0.501289 0.283265 0.499674 0.857169
C2    C     C_3   0.122623 0.512980 0.505186 -0.445588
C3    C     C_3   0.877302 0.510181 0.497029 -0.450208
C4    C     C_1   0.501975 0.838265 0.499995 -0.022600
C5    C     C_1   0.502346 0.940444 0.499626 0.059660
C6    C     C_R   0.259234 0.504625 0.501347 1.002063
C7    C     C_R   0.740854 0.501311 0.499175 0.977212
C8    C     C_1   0.499953 0.499954 0.071906 0.236289
C9    C     C_1   0.499950 0.499949 0.928096 0.198070
C10   C     C_R   0.501055 0.716804 0.500015 0.996395
C11   C     C_1   0.501961 0.161995 0.499094 -0.097581
C12   C     C_3   0.070677 0.462012 0.637906 0.071751
C13   C     C_3   0.069336 0.424890 0.396588 0.030575
C14   C     C_3   0.931634 0.443683 0.622672 0.169939
C15   C     C_3   0.930123 0.437616 0.377843 0.032269
C16   C     C_1   0.502308 0.059791 0.499168 0.049202
C17   C     C_3   0.073730 0.644489 0.487628 0.365334
C18   C     C_3   0.924344 0.643216 0.490732 0.429760
Cu1   Cu    Cu3+1 0.500000 0.500000 0.625300 1.127924
Cu2   Cu    Cu3+1 0.500000 0.500000 0.374700 1.176188
H1    H     H_    0.109577 0.374264 0.639422 0.105662
H2    H     H_    0.072202 0.342967 0.448939 0.137260
H3    H     H_    0.930350 0.353679 0.589613 0.098363
H4    H     H_    0.894198 0.350525 0.396908 0.160140
N1    N     N_1   0.500000 0.499990 0.186410 -0.099522
N2    N     N_1   0.500000 0.499990 0.813590 -0.118517
O1    O     O_R   0.500000 0.337200 0.605810 -0.594855
O2    O     O_R   0.500000 0.337200 0.394190 -0.571423
O3    O     O_R   0.317690 0.499990 0.605810 -0.561439
O4    O     O_R   0.317690 0.499990 0.394190 -0.493176
O5    O     O_R   0.682310 0.499990 0.605810 -0.495612
O6    O     O_R   0.682310 0.499990 0.394190 -0.522853
O7    O     O_R   0.500000 0.662810 0.605810 -0.547652
O8    O     O_R   0.500000 0.662810 0.394190 -0.532561
S1    S     S_3+6 0.124369 0.499675 0.800458 0.185472
O9    O     O_2   0.229793 0.578854 0.806211 -0.213377
O10   O     O_2   0.027460 0.550589 0.883434 -0.049465
O11   O     O_3   0.167794 0.377580 0.870927 -0.427138
H5    H     H_    0.245468 0.357504 0.829542 0.332224
S2    S     S_3+6 0.156388 0.348637 0.273012 0.089999
O12   O     O_2   0.077337 0.262657 0.207365 -0.169113
O13   O     O_2   0.212769 0.424262 0.173573 -0.185977
O14   O     O_3   0.265197 0.274067 0.345337 -0.562905
H6    H     H_    0.300354 0.224873 0.276930 0.380545
S3    S     S_3+6 0.846435 0.392384 0.762804 0.099468
O15   O     O_2   0.927432 0.324995 0.848466 -0.178504
O16   O     O_2   0.786956 0.484845 0.841108 -0.183372
O17   O     O_3   0.740116 0.301350 0.711417 -0.556787
H7    H     H_    0.697541 0.276344 0.790261 0.363915
S4    S     S_3+6 0.869464 0.439179 0.212266 0.127118
O18   O     O_2   0.782181 0.532921 0.184052 -0.189411
O19   O     O_2   0.965005 0.442246 0.110124 -0.115354
O20   O     O_3   0.794791 0.315425 0.192741 -0.509211
H8    H     H_    0.764984 0.317135 0.103444 0.381217
S5    S     S_3+6 0.135562 0.746768 0.608110 0.140625
O21   O     O_2   0.118292 0.867033 0.561817 -0.170240
O22   O     O_2   0.084510 0.741522 0.741238 -0.151980
O23   O     O_3   0.282542 0.730061 0.624149 -0.533302
H9    H     H_    0.306630 0.789505 0.686992 0.374038
S6    S     S_3+6 0.144841 0.706928 0.340558 0.141254
O24   O     O_2   0.098132 0.824487 0.313124 -0.124753
O25   O     O_2   0.276151 0.722134 0.362241 -0.262923
O26   O     O_3   0.134283 0.631108 0.205289 -0.384990
H10   H     H_    0.069044 0.578375 0.223555 0.389456
S7    S     S_3+6 0.854707 0.720757 0.628687 0.122199
O27   O     O_2   0.722179 0.725751 0.613499 -0.321785
O28   O     O_2   0.877009 0.664694 0.754071 -0.171651
O29   O     O_3   0.897689 0.858070 0.640438 -0.396292
H11   H     H_    0.853554 0.889140 0.715967 0.385055
S8    S     S_3+6 0.858902 0.728310 0.358242 0.117994
O30   O     O_2   0.909211 0.705487 0.226823 -0.187874
O31   O     O_2   0.726233 0.712257 0.350986 -0.285131
O32   O     O_3   0.879640 0.868314 0.388539 -0.409209
H12   H     H_    0.831323 0.908747 0.323646 0.382527

loop_
_geom_bond_atom_site_label_1
_geom_bond_atom_site_label_2
_ccdc_geom_bond_type
C14   H3    S    
C18   S8    S    
C1    O2    A    
S4    O19   D    
O14   H6    S    
Cu2   O8    S    
S2    O12   D    
S8    O30   D    
C14   S3    S    
Cu1   O1    S    
O32   H12   S    
C17   S5    S    
S1    O9    D    
C1    C11   S    
C13   C15   S    
S5    O21   D    
S7    O29   S    
Cu1   O5    S    
S2    O14   S    
C6    O3    A    
S8    O32   S    
S2    O13   D    
C17   C18   S    
C8    C9    S    
C2    C12   S    
C10   O8    A    
S5    O22   D    
Cu2   O4    S    
O20   H8    S    
C2    C17   S    
C8    N1    T    
C2    C13   S    
C2    C6    S    
C3    C14   S    
C13   H2    S    
S6    O26   S    
C15   H4    S    
S1    O10   D    
C12   C14   S    
C9    N2    T    
S4    O18   D    
C10   O7    A    
C3    C7    S    
S3    O16   D    
Cu1   O7    S    
O11   H5    S    
C12   S1    S    
S3    O17   S    
S4    O20   S    
C7    O5    A    
Cu2   N1    S    
C13   S2    S    
C17   S6    S    
C4    C10   S    
O26   H10   S    
Cu1   O3    S    
C4    C5    T    
S1    O11   S    
C3    C15   S    
C3    C18   S    
S6    O25   D    
S7    O27   D    
Cu2   O6    S    
C15   S4    S    
C1    O1    A    
Cu1   N2    S    
S5    O23   S    
O17   H7    S    
C5    C16   S    
S8    O31   D    
C7    O6    A    
Cu2   O2    S    
C6    O4    A    
O23   H9    S    
S3    O15   D    
C18   S7    S    
C12   H1    S    
O29   H11   S    
C11   C16   T    
Cu1   Cu2   S    
S6    O24   D    
S7    O28   D    
