data_mof_unit_37125.cif
_audit_creation_date              2012-12-10T18:21:16-0500
_audit_creation_method            fapswitch 2.2
_symmetry_space_group_name_H-M    P1
_symmetry_Int_Tables_number       1
_space_group_crystal_system       triclinic
_cell_length_a                    9.412616
_cell_length_b                    10.621242
_cell_length_c                    17.228358
_cell_angle_alpha                 89.937866
_cell_angle_beta                  86.550795
_cell_angle_gamma                 89.583671
_cell_volume                      1719.21642239

loop_
_atom_site_label
_atom_site_type_symbol
_atom_type_description
_atom_site_fract_x
_atom_site_fract_y
_atom_site_fract_z
_atom_type_partial_charge
C1    C     C_R   0.499515 0.740622 0.499944 0.782878
C2    C     C_R   0.500488 0.259378 0.500031 0.782453
C3    C     C_3   0.364628 0.960638 0.499892 -0.138173
C4    C     C_3   0.635380 0.039361 0.500051 -0.138458
C5    C     C_3   0.440234 0.042771 0.436062 -0.169418
C6    C     C_3   0.559774 0.957230 0.563881 -0.169538
C7    C     C_3   0.501432 0.122406 0.500003 0.024918
C8    C     C_3   0.498576 0.877593 0.499943 0.024912
C9    C     C_3   0.425945 0.042551 0.563832 -0.168265
C10   C     C_3   0.574063 0.957446 0.436111 -0.168091
C11   C     C_3   0.950330 0.386293 0.502137 -0.038452
C12   C     C_3   0.049670 0.613707 0.497863 -0.038353
C13   C     C_3   0.044278 0.446081 0.561850 -0.036146
C14   C     C_3   0.955722 0.553919 0.438149 -0.035600
C15   C     C_3   0.057602 0.440258 0.440226 -0.036033
C16   C     C_3   0.942398 0.559742 0.559773 -0.036571
C17   C     C_R   0.482196 0.503671 0.650007 0.780084
C18   C     C_R   0.517817 0.496431 0.350008 0.781508
C19   C     C_R   0.475661 0.517959 0.734587 -0.023417
C20   C     C_R   0.524509 0.482760 0.265428 -0.019435
C21   C     C_R   0.598480 0.554467 0.771020 -0.203784
C22   C     C_R   0.402869 0.443367 0.228965 -0.202411
C23   C     C_R   0.594667 0.569250 0.851068 -0.180627
C24   C     C_R   0.406829 0.429707 0.148820 -0.208625
C25   C     C_R   0.468796 0.546136 0.895668 0.153917
C26   C     C_R   0.531458 0.457355 0.104200 0.226485
C27   C     C_R   0.344865 0.512644 0.859926 -0.199338
C28   C     C_R   0.654485 0.493121 0.140063 -0.181683
C29   C     C_R   0.348044 0.498952 0.779370 -0.197079
C30   C     C_R   0.651230 0.505586 0.220658 -0.213112
C31   C     C_2   0.470054 0.549787 0.980577 0.042417
C32   C     C_2   0.530608 0.453023 0.019133 0.063241
Cu1   Cu    Cu3+1 0.356850 0.500010 0.499980 0.929226
Cu2   Cu    Cu3+1 0.643150 0.499990 0.500020 0.929235
H1    H     H_    0.697728 0.571813 0.737744 0.143305
H2    H     H_    0.304520 0.422861 0.262314 0.144219
H3    H     H_    0.904394 0.290326 0.503980 0.109659
H4    H     H_    0.095606 0.709673 0.496019 0.109676
H5    H     H_    0.110957 0.389802 0.390015 0.103484
H6    H     H_    0.889044 0.610202 0.609983 0.103567
H7    H     H_    0.746510 0.534910 0.247705 0.141622
H8    H     H_    0.251925 0.471718 0.752382 0.140502
H9    H     H_    0.247191 0.494663 0.894526 0.123133
H10   H     H_    0.751483 0.513694 0.105483 0.124250
H11   H     H_    0.311940 0.400716 0.121218 0.123943
H12   H     H_    0.690521 0.595829 0.878603 0.125761
H13   H     H_    0.391502 0.081007 0.383787 0.124007
H14   H     H_    0.608511 0.918996 0.616155 0.124368
H15   H     H_    0.253678 0.925901 0.499828 0.124907
H16   H     H_    0.746331 0.074099 0.500114 0.124938
H17   H     H_    0.365503 0.080577 0.616069 0.123716
H18   H     H_    0.634500 0.919418 0.383872 0.123938
H19   H     H_    0.086326 0.400466 0.613839 0.107149
H20   H     H_    0.913672 0.599536 0.386161 0.107090
N1    N     N_3   0.141720 0.500030 0.499940 -0.152719
N2    N     N_3   0.858280 0.499970 0.500060 -0.152733
O1    O     O_R   0.379130 0.683150 0.499960 -0.588239
O2    O     O_R   0.620870 0.316850 0.500040 -0.588295
O3    O     O_R   0.620910 0.683140 0.500000 -0.582403
O4    O     O_R   0.379090 0.316860 0.500000 -0.582458
O5    O     O_R   0.365090 0.500030 0.613580 -0.586261
O6    O     O_R   0.634910 0.499970 0.386420 -0.586072
O7    O     O_R   0.606870 0.500020 0.613610 -0.586910
O8    O     O_R   0.393130 0.499980 0.386390 -0.587075
C33   C     C_3   0.593182 0.338160 0.975589 -0.410126
C34   C     C_3   0.638364 0.230173 0.027828 -0.846930
H21   H     H_    0.726098 0.260142 0.063773 0.252817
H22   H     H_    0.546609 0.198014 0.066163 0.255643
H23   H     H_    0.677125 0.149626 0.991153 0.238414
H24   H     H_    0.512512 0.300435 0.937366 0.212595
H25   H     H_    0.687623 0.367361 0.938335 0.204633
C35   C     C_3   0.406100 0.666400 0.020487 -0.398102
C36   C     C_3   0.520368 0.763449 0.034840 -0.829036
H26   H     H_    0.598439 0.725459 0.074642 0.252899
H27   H     H_    0.577124 0.790749 0.979019 0.247103
H28   H     H_    0.469894 0.848881 0.061800 0.237973
H29   H     H_    0.327685 0.710691 0.982923 0.199871
H30   H     H_    0.346158 0.642827 0.075893 0.203513

loop_
_geom_bond_atom_site_label_1
_geom_bond_atom_site_label_2
_ccdc_geom_bond_type
C25   C31   S    
C34   H22   S    
Cu2   N2    S    
C29   H8    S    
C27   C29   A    
C1    C8    S    
C36   H26   S    
C14   N2    S    
C2    C7    S    
C9    H17   S    
C10   H18   S    
C6    C9    S    
C3    H15   S    
C20   C30   A    
C26   C32   S    
C5    H13   S    
C6    H14   S    
C24   H11   S    
C19   C21   A    
C24   C26   A    
C1    O3    A    
C2    O4    A    
C34   H23   S    
C33   H24   S    
Cu2   O6    S    
C11   H3    S    
C35   H30   S    
C17   O5    A    
C11   C15   S    
C12   C16   S    
C30   H7    S    
C34   H21   S    
C23   H12   S    
C36   H27   S    
C4    C7    S    
C13   H19   S    
C4    C6    S    
C3    C8    S    
C5    C7    S    
C18   O6    A    
C6    C8    S    
C33   H25   S    
C28   H10   S    
C4    H16   S    
C15   N1    S    
C16   N2    S    
C35   H29   S    
C3    C9    S    
C1    O1    A    
C31   C32   D    
Cu1   Cu2   S    
Cu1   N1    S    
C15   H5    S    
C16   H6    S    
C8    C10   S    
C31   C35   S    
C14   H20   S    
C12   C14   S    
Cu1   O4    S    
C21   C23   A    
Cu2   O3    S    
C36   H28   S    
C22   C24   A    
C4    C10   S    
C19   C29   A    
C7    C9    S    
Cu1   O1    S    
C20   C22   A    
C35   C36   S    
C3    C5    S    
C2    O2    A    
C21   H1    S    
C25   C27   A    
C22   H2    S    
C26   C28   A    
C28   C30   A    
C5    C10   S    
C17   O7    A    
C11   C13   S    
C18   O8    A    
Cu1   O8    S    
Cu2   O7    S    
C17   C19   S    
C18   C20   S    
C23   C25   A    
C12   H4    S    
C12   N1    S    
C27   H9    S    
Cu1   O5    S    
C33   C34   S    
C13   C16   S    
Cu2   O2    S    
C14   C15   S    
C11   N2    S    
C32   C33   S    
C13   N1    S    
