data_mof_unit_50242.cif
_audit_creation_date              2012-12-10T19:00:48-0500
_audit_creation_method            fapswitch 2.2
_symmetry_space_group_name_H-M    P1
_symmetry_Int_Tables_number       1
_space_group_crystal_system       triclinic
_cell_length_a                    14.994645
_cell_length_b                    10.832364
_cell_length_c                    9.601516
_cell_angle_alpha                 90.237804
_cell_angle_beta                  89.479812
_cell_angle_gamma                 88.253088
_cell_volume                      1558.74542547

loop_
_atom_site_label
_atom_site_type_symbol
_atom_type_description
_atom_site_fract_x
_atom_site_fract_y
_atom_site_fract_z
_atom_type_partial_charge
C1    C     C_R   0.499012 0.262731 0.499547 0.789743
C2    C     C_R   0.904381 0.593233 0.543969 0.114557
C3    C     C_R   0.959820 0.272836 0.420767 -0.186216
C4    C     C_R   0.052475 0.272573 0.423398 -0.192283
C5    C     C_R   0.097833 0.377846 0.465619 0.093253
C6    C     C_R   0.047393 0.485843 0.503259 0.040418
C7    C     C_R   0.090774 0.594246 0.543453 0.109640
C8    C     C_R   0.041116 0.699927 0.584330 -0.197320
C9    C     C_R   0.948466 0.699071 0.585753 -0.200605
C10   C     C_R   0.192123 0.379508 0.468822 -0.040241
C11   C     C_R   0.233234 0.491114 0.501756 -0.124214
C12   C     C_R   0.329309 0.498835 0.500577 0.798181
C13   C     C_R   0.183289 0.596114 0.541153 -0.266589
C14   C     C_R   0.460171 0.065716 0.610333 0.107312
C15   C     C_R   0.493113 0.129999 0.496427 -0.100827
C16   C     C_R   0.516867 0.063492 0.374913 -0.221386
C17   C     C_R   0.518881 0.934756 0.376238 -0.243153
C18   C     C_R   0.497284 0.871106 0.498863 -0.050908
C19   C     C_R   0.463680 0.939022 0.612716 0.069039
C20   C     C_3   0.482937 0.936572 0.765697 0.185636
C21   C     C_3   0.473589 0.077929 0.763285 0.160440
C22   C     C_R   0.562905 0.434603 0.072017 0.120273
C23   C     C_R   0.500858 0.737481 0.500210 0.813966
C24   C     C_R   0.433233 0.560563 0.076970 0.406780
C25   C     C_R   0.432163 0.558539 0.928214 -0.056792
C26   C     C_R   0.562999 0.434409 0.925248 0.251870
C27   C     C_3   0.662028 0.448641 0.919090 -0.222375
C28   C     C_3   0.661508 0.447815 0.077414 -0.535372
C29   C     C_R   0.670783 0.498020 0.499547 0.792785
C30   C     C_R   0.811863 0.593436 0.545038 -0.267574
C31   C     C_R   0.767302 0.490296 0.499024 -0.131765
C32   C     C_R   0.814062 0.382613 0.452442 -0.044766
C33   C     C_R   0.908598 0.379506 0.456463 0.086755
C34   C     C_R   0.953379 0.486073 0.500841 0.037566
Cu1   Cu    Cu3+1 0.500000 0.499980 0.640670 1.017918
Cu2   Cu    Cu3+1 0.500000 0.500020 0.359330 0.961559
H1    H     H_    0.773878 0.675080 0.579453 0.148336
H2    H     H_    0.540769 0.885671 0.283194 0.154255
H3    H     H_    0.430652 0.890455 0.827638 0.145426
H4    H     H_    0.534312 0.129032 0.790756 0.163825
H5    H     H_    0.681824 0.538334 0.874743 0.149406
H6    H     H_    0.695057 0.365398 0.124411 0.236071
H7    H     H_    0.680943 0.537296 0.123049 0.215076
H8    H     H_    0.929654 0.187415 0.391761 0.202237
H9    H     H_    0.087665 0.189010 0.389771 0.191304
H10   H     H_    0.216948 0.679754 0.569548 0.166541
H11   H     H_    0.074013 0.783213 0.615605 0.158516
H12   H     H_    0.911188 0.781597 0.618593 0.151506
H13   H     H_    0.538145 0.110169 0.281282 0.164799
N1    N     N_R   0.500570 0.500930 0.147930 -0.211316
N2    N     N_R   0.500570 0.500890 0.852020 -0.223718
O1    O     O_R   0.500000 0.319640 0.618810 -0.548498
O2    O     O_R   0.500010 0.319680 0.381230 -0.601504
O3    O     O_R   0.370250 0.499950 0.618800 -0.554941
O4    O     O_R   0.370260 0.499990 0.381220 -0.535731
O5    O     O_R   0.499990 0.680320 0.618770 -0.509482
O6    O     O_R   0.500000 0.680360 0.381190 -0.601452
O7    O     O_R   0.629740 0.500010 0.618780 -0.570185
O8    O     O_R   0.629750 0.500050 0.381200 -0.585031
O9    O     O_3   0.571709 0.894402 0.789007 -0.594397
C35   C     C_3   0.585853 0.880135 0.933180 0.057455
H14   H     H_    0.542434 0.807383 0.975795 0.124615
H15   H     H_    0.572268 0.968863 0.989424 0.121527
C36   C     C_3   0.683294 0.841309 0.956668 -0.297667
H16   H     H_    0.698509 0.752934 0.901271 0.209721
H17   H     H_    0.727271 0.912666 0.913107 0.236580
C37   C     C_3   0.703012 0.825354 0.111324 -0.923084
H18   H     H_    0.693595 0.915045 0.166862 0.274107
H19   H     H_    0.773179 0.792039 0.124435 0.264676
H20   H     H_    0.658192 0.756866 0.158263 0.250324
O10   O     O_3   0.393147 0.122930 0.825209 -0.564923
C38   C     C_3   0.404080 0.138709 0.969848 0.082265
H21   H     H_    0.451840 0.212920 0.991603 0.135328
H22   H     H_    0.428543 0.051387 0.018978 0.067049
C39   C     C_3   0.313571 0.172308 0.036566 -0.328666
H23   H     H_    0.264901 0.101521 0.007614 0.225928
H24   H     H_    0.320408 0.172587 0.151591 0.170054
C40   C     C_3   0.277628 0.298754 0.990811 -0.733739
H25   H     H_    0.322140 0.371116 0.028106 0.229888
H26   H     H_    0.210329 0.316515 0.037186 0.225366
H27   H     H_    0.272509 0.303436 0.875585 0.285336
O11   O     O_3   0.359960 0.607629 0.150577 -0.594329
C41   C     C_3   0.358489 0.738125 0.153546 0.059092
H28   H     H_    0.330929 0.775797 0.055089 0.136470
H29   H     H_    0.425977 0.775586 0.168645 0.128593
C42   C     C_3   0.297095 0.781457 0.273460 -0.288912
H30   H     H_    0.232187 0.735035 0.265618 0.226811
H31   H     H_    0.327555 0.755234 0.374361 0.217773
C43   C     C_3   0.279523 0.920581 0.271849 -0.920831
H32   H     H_    0.343174 0.970040 0.273549 0.264411
H33   H     H_    0.239206 0.948240 0.364951 0.295530
H34   H     H_    0.241436 0.946867 0.177482 0.245602
C44   C     C_2   0.352040 0.612561 0.861468 0.425330
H35   H     H_    0.286634 0.582135 0.893136 0.068782
O12   O     O_2   0.357036 0.696797 0.778501 -0.578393
C45   C     C_2   0.713333 0.339870 0.856635 0.405062
H36   H     H_    0.784679 0.330724 0.873337 0.082754
O13   O     O_2   0.676578 0.263006 0.785763 -0.570179
C46   C     C_2   0.762199 0.275577 0.403961 0.338763
H37   H     H_    0.700684 0.252935 0.457106 0.094312
O14   O     O_2   0.784614 0.216348 0.300351 -0.578022
C47   C     C_2   0.249053 0.266359 0.444400 0.313665
H38   H     H_    0.309743 0.271098 0.382740 0.079610
O15   O     O_2   0.231580 0.168861 0.500156 -0.550381

loop_
_geom_bond_atom_site_label_1
_geom_bond_atom_site_label_2
_ccdc_geom_bond_type
C25   C44   S    
C44   H35   S    
C19   C20   S    
Cu2   O8    S    
C7    C8    A    
C26   C27   S    
C21   O10   S    
Cu1   O7    S    
C5    C6    A    
C14   C21   S    
C38   C39   S    
C13   H10   S    
C42   H31   S    
C3    C33   A    
C15   C16   A    
C18   C19   A    
C35   H15   S    
C24   O11   S    
C1    O2    A    
Cu2   O2    S    
C41   H28   S    
C16   C17   A    
C45   O13   D    
C1    C15   S    
C20   O9    S    
C22   N1    A    
C2    C34   A    
C44   O12   D    
C22   C28   S    
Cu1   O3    S    
C27   C45   S    
C35   H14   S    
C37   H18   S    
C1    O1    A    
C33   C34   A    
C4    H9    S    
C24   N1    A    
C3    H8    S    
C18   C23   S    
C36   C37   S    
C29   O8    A    
C10   C47   S    
C24   C25   A    
C38   H22   S    
Cu2   O6    S    
C20   H3    S    
C40   H25   S    
C8    C9    A    
C6    C34   A    
C30   H1    S    
O9    C35   S    
C37   H19   S    
Cu1   Cu2   S    
C36   H17   S    
C35   C36   S    
C39   H23   S    
C25   N2    A    
C27   H5    S    
C46   H37   S    
C7    C13   A    
C45   H36   S    
C20   C21   S    
C17   C18   A    
C16   H13   S    
C43   H34   S    
C47   O15   D    
C39   H24   S    
C23   O5    A    
C41   H29   S    
Cu1   N2    S    
C43   H33   S    
C3    C4    A    
Cu1   O1    S    
Cu2   N1    S    
C23   O6    A    
C46   O14   D    
Cu1   O5    S    
C42   H30   S    
C14   C19   A    
C31   C32   A    
C38   H21   S    
C42   C43   S    
C11   C12   S    
C6    C7    A    
C28   H7    S    
C32   C46   S    
C2    C30   A    
C37   H20   S    
C32   C33   A    
C8    H11   S    
C5    C10   A    
C29   C31   S    
Cu2   O4    S    
C26   N2    A    
C36   H16   S    
C11   C13   A    
C40   H27   S    
C30   C31   A    
C21   H4    S    
C28   H6    S    
C40   H26   S    
C17   H2    S    
C47   H38   S    
C39   C40   S    
C12   O4    A    
C10   C11   A    
C4    C5    A    
C41   C42   S    
O10   C38   S    
C29   O7    A    
C9    H12   S    
O11   C41   S    
C22   C26   A    
C27   C28   S    
C14   C15   A    
C43   H32   S    
C2    C9    A    
C12   O3    A    
