data_mof_unit_23966.cif
_audit_creation_date              2012-12-10T18:01:42-0500
_audit_creation_method            fapswitch 2.2
_symmetry_space_group_name_H-M    P1
_symmetry_Int_Tables_number       1
_space_group_crystal_system       triclinic
_cell_length_a                    10.76837
_cell_length_b                    9.621738
_cell_length_c                    19.361144
_cell_angle_alpha                 89.952605
_cell_angle_beta                  92.210273
_cell_angle_gamma                 89.928229
_cell_volume                      2004.52176534

loop_
_atom_site_label
_atom_site_type_symbol
_atom_type_description
_atom_site_fract_x
_atom_site_fract_y
_atom_site_fract_z
_atom_type_partial_charge
C1    C     C_R   0.262904 0.500215 0.499449 0.829907
C2    C     C_R   0.737096 0.499785 0.500551 0.829903
C3    C     C_R   0.495236 0.499989 0.929877 0.426518
C4    C     C_R   0.504765 0.500011 0.070123 0.426518
C5    C     C_R   0.502130 0.500033 0.367616 0.845553
C6    C     C_R   0.497870 0.499967 0.632383 0.845549
C7    C     C_R   0.060352 0.460543 0.439017 -0.040817
C8    C     C_R   0.939648 0.539457 0.560983 -0.040818
C9    C     C_R   0.930038 0.456823 0.440170 -0.092263
C10   C     C_R   0.069962 0.543176 0.559830 -0.092265
C11   C     C_R   0.871370 0.498699 0.500654 -0.139184
C12   C     C_R   0.128630 0.501301 0.499346 -0.139184
C13   C     C_R   0.419211 0.074335 0.457276 0.046775
C14   C     C_R   0.580789 0.925665 0.542723 0.046778
C15   C     C_R   0.580787 0.074069 0.542760 0.015614
C16   C     C_R   0.419213 0.925931 0.457240 0.015613
C17   C     C_R   0.508926 0.625829 0.254954 -0.123212
C18   C     C_R   0.491075 0.374171 0.745046 -0.123211
C19   C     C_R   0.489576 0.625729 0.744895 -0.107875
C20   C     C_R   0.510424 0.374271 0.255105 -0.107875
C21   C     C_R   0.509059 0.625893 0.183000 -0.135735
C22   C     C_R   0.490942 0.374106 0.817000 -0.135734
C23   C     C_R   0.489423 0.625822 0.816851 -0.132546
C24   C     C_R   0.510577 0.374178 0.183148 -0.132547
C25   C     C_R   0.508439 0.500023 0.146320 0.037498
C26   C     C_R   0.491561 0.499977 0.853680 0.037498
C27   C     C_R   0.506937 0.500053 0.291670 -0.040950
C28   C     C_R   0.493063 0.499947 0.708329 -0.040950
Cu1   Cu    Cu3+1 0.500000 0.640660 0.500000 0.991802
Cu2   Cu    Cu3+1 0.500000 0.359340 0.500000 0.991802
H1    H     H_    0.509104 0.724733 0.156223 0.169100
H2    H     H_    0.490897 0.275267 0.843777 0.169100
H3    H     H_    0.488181 0.724661 0.843515 0.168795
H4    H     H_    0.511818 0.275339 0.156485 0.168795
N1    N     N_R   0.500000 0.852070 0.500000 -0.231583
N2    N     N_R   0.500000 0.147930 0.500000 -0.231583
N3    N     N_R   0.503005 0.378646 0.034430 -0.222782
N4    N     N_R   0.496995 0.621354 0.965570 -0.222782
N5    N     N_R   0.498448 0.378637 0.965690 -0.223110
N6    N     N_R   0.501553 0.621363 0.034310 -0.223110
O1    O     O_R   0.319640 0.618740 0.500000 -0.592562
O2    O     O_R   0.680360 0.381260 0.500000 -0.592561
O3    O     O_R   0.680360 0.618740 0.500000 -0.612912
O4    O     O_R   0.319640 0.381260 0.500000 -0.612911
O5    O     O_R   0.499980 0.618820 0.400140 -0.567424
O6    O     O_R   0.500020 0.381180 0.599860 -0.567425
O7    O     O_R   0.500020 0.618820 0.599860 -0.563878
O8    O     O_R   0.499980 0.381180 0.400140 -0.563879
C29   C     C_2   0.124661 0.431821 0.373687 0.383102
H5    H     H_    0.096912 0.345470 0.340836 0.154657
O9    O     O_2   0.208710 0.506631 0.355302 -0.536772
C30   C     C_2   0.875338 0.568180 0.626313 0.383111
H6    H     H_    0.903083 0.654535 0.659162 0.154656
O10   O     O_2   0.791293 0.493367 0.644699 -0.536771
C31   C     C_2   0.852587 0.418425 0.377603 0.366534
H7    H     H_    0.770496 0.478985 0.363442 0.047916
O11   O     O_2   0.875872 0.315652 0.343548 -0.550070
C32   C     C_2   0.147413 0.581574 0.622397 0.366540
H8    H     H_    0.229506 0.521017 0.636557 0.047915
O12   O     O_2   0.124125 0.684344 0.656455 -0.550071
H9    H     H_    0.510512 0.724489 0.281642 0.203191
H10   H     H_    0.489489 0.275511 0.718358 0.203191
H11   H     H_    0.486813 0.724369 0.718084 0.206215
H12   H     H_    0.513187 0.275631 0.281916 0.206215
C33   C     C_2   0.326776 0.147980 0.412677 0.464230
H13   H     H_    0.241071 0.184281 0.433972 0.038529
O13   O     O_2   0.341805 0.159412 0.350826 -0.530196
C34   C     C_2   0.673224 0.852020 0.587322 0.464231
H14   H     H_    0.758930 0.815720 0.566028 0.038525
O14   O     O_2   0.658194 0.840585 0.649173 -0.530197
C35   C     C_2   0.672098 0.147462 0.588180 0.483505
H15   H     H_    0.756436 0.188526 0.567348 0.077670
O15   O     O_2   0.657788 0.153592 0.650279 -0.513240
C36   C     C_2   0.327901 0.852538 0.411820 0.483510
H16   H     H_    0.243563 0.811476 0.432653 0.077665
O16   O     O_2   0.342212 0.846406 0.349721 -0.513239

loop_
_geom_bond_atom_site_label_1
_geom_bond_atom_site_label_2
_ccdc_geom_bond_type
C31   H7    S    
C29   O9    D    
C4    C25   S    
C13   C33   S    
C21   H1    S    
C36   O16   D    
Cu1   O7    S    
C16   C36   S    
Cu2   O8    S    
C10   C32   S    
C16   N1    A    
C32   O12   D    
C23   C26   A    
C17   H9    S    
C5    C27   S    
C6    C28   S    
C4    N6    A    
C3    N4    A    
C19   H11   S    
C34   H14   S    
C33   O13   D    
C9    C31   S    
C8    C30   S    
C3    N5    A    
Cu1   O3    S    
Cu2   O4    S    
C1    C12   S    
C2    C11   S    
C30   O10   D    
C7    C12   A    
C5    O8    A    
C36   H16   S    
C17   C27   A    
C20   C24   A    
C18   C28   A    
C24   C25   A    
C7    C29   S    
C13   N2    A    
C6    O7    A    
C14   N1    A    
C35   O15   D    
C18   H10   S    
C23   H3    S    
C32   H8    S    
C5    O5    A    
C24   H4    S    
Cu1   O5    S    
C20   H12   S    
C19   C23   A    
Cu1   Cu2   S    
C1    O4    A    
C2    O3    A    
C19   C28   A    
C9    C11   A    
C10   C12   A    
C1    O1    A    
C33   H13   S    
C31   O11   D    
C15   N2    A    
C22   H2    S    
C30   H6    S    
C7    C9    A    
C21   C25   A    
C6    O6    A    
Cu1   O1    S    
C18   C22   A    
Cu2   O6    S    
C3    C26   S    
C20   C27   A    
C15   C35   S    
Cu1   N1    S    
Cu2   N2    S    
C35   H15   S    
N3    N5    A    
N4    N6    A    
C2    O2    A    
C8    C11   A    
C17   C21   A    
C4    N3    A    
C8    C10   A    
C29   H5    S    
C22   C26   A    
C13   C16   A    
C34   O14   D    
C14   C34   S    
C14   C15   A    
Cu2   O2    S    
