data_mof_unit_29429.cif
_audit_creation_date              2012-12-10T16:56:37-0500
_audit_creation_method            fapswitch 2.2
_symmetry_space_group_name_H-M    P1
_symmetry_Int_Tables_number       1
_space_group_crystal_system       triclinic
_cell_length_a                    10.741684
_cell_length_b                    10.914074
_cell_length_c                    9.707664
_cell_angle_alpha                 89.437299
_cell_angle_beta                  89.719799
_cell_angle_gamma                 90.519371
_cell_volume                      1137.96742308

loop_
_atom_site_label
_atom_site_type_symbol
_atom_type_description
_atom_site_fract_x
_atom_site_fract_y
_atom_site_fract_z
_atom_type_partial_charge
C1    C     C_R   0.501951 0.265388 0.500495 0.902042
C2    C     C_3   0.878253 0.496300 0.497509 0.078250
C3    C     C_3   0.932684 0.630326 0.486484 -0.090352
C4    C     C_3   0.926640 0.416775 0.374476 -0.158648
C5    C     C_2   0.506482 0.934078 0.386488 -0.166427
C6    C     C_2   0.492290 0.866526 0.501329 -0.312081
C7    C     C_2   0.500795 0.068070 0.387088 -0.122074
C8    C     C_2   0.508801 0.133353 0.503101 -0.266924
C9    C     C_2   0.428347 0.428190 0.926164 0.148424
C10   C     C_2   0.411371 0.453615 0.078278 -0.087237
C11   C     C_R   0.260319 0.494504 0.500260 0.829930
C12   C     C_R   0.498696 0.734585 0.499629 0.845117
C13   C     C_R   0.739997 0.498979 0.499651 0.757283
C14   C     C_3   0.069272 0.432322 0.633974 -0.375410
C15   C     C_3   0.926722 0.440588 0.635731 -0.379501
C16   C     C_3   0.077075 0.624832 0.488767 -0.442607
C17   C     C_3   0.072064 0.418544 0.371256 -0.148647
C18   C     C_3   0.122528 0.490587 0.499186 0.099204
Cu1   Cu    Cu3+1 0.500030 0.500020 0.638630 0.922045
Cu2   Cu    Cu3+1 0.499970 0.499980 0.361370 0.926812
H1    H     H_    0.106303 0.480798 0.725669 0.164229
H2    H     H_    0.895860 0.461329 0.277004 0.083188
H3    H     H_    0.118417 0.668396 0.394772 0.171034
H4    H     H_    0.520685 0.890391 0.287640 0.160392
H5    H     H_    0.473111 0.906617 0.600580 0.146736
H6    H     H_    0.491417 0.113750 0.287776 0.158602
H7    H     H_    0.523531 0.091570 0.603137 0.130204
H8    H     H_    0.534921 0.576177 0.891750 0.184121
H9    H     H_    0.326721 0.424086 0.130077 0.153267
H10   H     H_    0.097288 0.335018 0.644046 0.220479
H11   H     H_    0.582276 0.517396 0.104788 0.188007
H12   H     H_    0.885017 0.348888 0.657144 0.220076
H13   H     H_    0.898434 0.499300 0.723489 0.158537
H14   H     H_    0.112104 0.678138 0.578070 0.158722
H15   H     H_    0.901814 0.679537 0.580620 0.150465
H16   H     H_    0.100099 0.472626 0.277971 0.073962
N1    N     N_2   0.498630 0.498660 0.846910 -0.307293
N2    N     N_2   0.498590 0.498630 0.153040 -0.301549
O1    O     O_R   0.500020 0.321960 0.617040 -0.602409
O2    O     O_R   0.499980 0.321920 0.382900 -0.568963
O3    O     O_R   0.317710 0.500000 0.617070 -0.602182
O4    O     O_R   0.317670 0.499960 0.382930 -0.586907
O5    O     O_R   0.500020 0.678080 0.617100 -0.583245
O6    O     O_R   0.499980 0.678040 0.382960 -0.573526
O7    O     O_R   0.682330 0.500040 0.617070 -0.581517
O8    O     O_R   0.682290 0.500000 0.382930 -0.608154
C19   C     C_3   0.886006 0.706950 0.361253 -0.434143
C20   C     C_3   0.917933 0.844001 0.375184 -0.322357
C21   C     C_3   0.870252 0.917603 0.252088 -0.817316
H17   H     H_    0.913025 0.884302 0.155169 0.239041
H18   H     H_    0.767356 0.909338 0.245047 0.247213
H19   H     H_    0.895380 0.015760 0.264400 0.264136
H20   H     H_    0.874507 0.880095 0.470565 0.231971
H21   H     H_    0.020210 0.857986 0.382213 0.229653
H22   H     H_    0.926995 0.671906 0.264127 0.205202
H23   H     H_    0.783362 0.699927 0.353200 0.219440
C22   C     C_3   0.367296 0.313121 0.868270 -0.305065
C23   C     C_3   0.275186 0.245253 0.964737 -0.477652
C24   C     C_3   0.221242 0.131398 0.896020 -0.816810
H24   H     H_    0.170114 0.157238 0.801049 0.264577
H25   H     H_    0.296787 0.066889 0.869117 0.251771
H26   H     H_    0.155435 0.084304 0.967976 0.242783
H27   H     H_    0.323232 0.215845 0.060582 0.233563
H28   H     H_    0.196941 0.306766 0.991566 0.208856
H29   H     H_    0.315525 0.336141 0.773937 0.242836
H30   H     H_    0.442663 0.248011 0.842980 0.208806
C25   C     C_2   0.129345 0.293135 0.348277 0.415756
H31   H     H_    0.111738 0.246601 0.251917 0.045347
O9    O     O_2   0.194454 0.243242 0.434535 -0.568070
C26   C     C_2   0.867185 0.289542 0.371718 0.302219
H32   H     H_    0.801194 0.267462 0.291146 0.072805
O10   O     O_2   0.890592 0.211919 0.459009 -0.550035

loop_
_geom_bond_atom_site_label_1
_geom_bond_atom_site_label_2
_ccdc_geom_bond_type
Cu2   O4    S    
Cu1   O7    S    
C11   C18   S    
C26   H32   S    
C17   H16   S    
C12   O5    A    
C1    C8    S    
Cu2   N2    S    
C9    C10   S    
C14   C18   S    
C2    C4    S    
C19   C20   S    
H11   N2    S    
C3    H15   S    
C22   H30   S    
C10   N2    D    
C21   H19   S    
C4    C26   S    
C17   C18   S    
C24   H24   S    
C12   O6    A    
C16   C18   S    
C20   H21   S    
C2    C15   S    
C7    H6    S    
C10   H9    S    
C22   C23   S    
C5    C6    D    
C5    H4    S    
Cu1   O1    S    
H8    N1    S    
C14   H10   S    
C4    C17   S    
C14   H1    S    
C3    C19   S    
C20   C21   S    
Cu2   O6    S    
Cu1   O5    S    
C11   O3    A    
C16   H3    S    
C2    C3    S    
C23   H28   S    
C20   H20   S    
Cu2   O2    S    
C21   H17   S    
C17   C25   S    
C6    H5    S    
C24   H25   S    
C1    O1    A    
C25   H31   S    
C6    C12   S    
Cu1   O3    S    
C15   H12   S    
C4    H2    S    
C13   O7    A    
C9    C22   S    
C19   H22   S    
C7    C8    D    
C25   O9    D    
C23   H27   S    
C5    C7    S    
C2    C13   S    
C13   O8    A    
C8    H7    S    
C24   H26   S    
C26   O10   D    
C11   O4    A    
Cu1   N1    S    
C1    O2    A    
C16   H14   S    
C23   C24   S    
C14   C15   S    
C15   H13   S    
Cu2   O8    S    
C3    C16   S    
Cu1   Cu2   S    
C22   H29   S    
C19   H23   S    
C21   H18   S    
C9    N1    D    
