data_mof_unit_8253.cif
_audit_creation_date              2012-12-10T21:16:00-0500
_audit_creation_method            fapswitch 2.2
_symmetry_space_group_name_H-M    P1
_symmetry_Int_Tables_number       1
_space_group_crystal_system       triclinic
_cell_length_a                    13.578921
_cell_length_b                    16.812547
_cell_length_c                    17.207693
_cell_angle_alpha                 88.938739
_cell_angle_beta                  91.17556
_cell_angle_gamma                 81.601295
_cell_volume                      3884.58396989

loop_
_atom_site_label
_atom_site_type_symbol
_atom_type_description
_atom_site_fract_x
_atom_site_fract_y
_atom_site_fract_z
_atom_type_partial_charge
C1    C     C_R   0.493587 0.500439 0.647434 0.971220
C2    C     C_R   0.452134 0.840606 0.441898 -0.102429
C3    C     C_R   0.553026 0.245454 0.556903 0.530821
C4    C     C_R   0.436364 0.758579 0.452812 0.560999
C5    C     C_R   0.444905 0.258691 0.446593 -0.158955
C6    C     C_R   0.572436 0.735456 0.542629 -0.126414
C7    C     C_R   0.443827 0.174543 0.445933 0.002620
C8    C     C_R   0.585416 0.817458 0.539417 0.003350
C9    C     C_R   0.496477 0.124188 0.505195 0.038750
C10   C     C_R   0.518160 0.872733 0.493247 0.053173
C11   C     C_1   0.504190 0.035157 0.502950 -0.039885
C12   C     C_R   0.498831 0.500697 0.351911 0.961853
C13   C     C_1   0.512216 0.961425 0.499463 -0.066612
C14   C     C_R   0.686442 0.484874 0.500084 0.884900
C15   C     C_R   0.313591 0.514906 0.500842 0.895481
C16   C     C_1   0.209530 0.526247 0.506654 -0.211168
C17   C     C_1   0.790962 0.472184 0.501619 -0.210347
C18   C     C_2   0.017955 0.532450 0.515811 -0.156229
C19   C     C_2   0.983468 0.463458 0.505393 -0.159049
C20   C     C_1   0.879306 0.464827 0.503365 -0.001246
C21   C     C_1   0.121658 0.532216 0.511676 0.004033
C22   C     C_R   0.389653 0.459155 0.156998 0.430278
C23   C     C_R   0.462460 0.582371 0.146466 -0.380203
C24   C     C_R   0.362997 0.577234 0.829162 0.410204
C25   C     C_R   0.433244 0.444540 0.230983 0.314718
C26   C     C_R   0.399917 0.574994 0.753466 0.283686
C27   C     C_R   0.479754 0.504741 0.267267 -0.334332
C28   C     C_R   0.462712 0.505128 0.728863 -0.314377
C29   C     C_R   0.497651 0.573261 0.224170 0.463457
C30   C     C_R   0.488802 0.439385 0.780906 0.422930
C31   C     C_3   0.236217 0.423964 0.129850 0.078803
C32   C     C_3   0.200287 0.390922 0.206273 -0.313694
C33   C     C_3   0.086896 0.404111 0.209410 -0.985212
C34   C     C_R   0.463660 0.448740 0.859066 -0.364671
C35   C     C_3   0.198501 0.621011 0.851967 0.087771
C36   C     C_3   0.147967 0.635708 0.771320 -0.313673
C37   C     C_3   0.038557 0.624453 0.773065 -0.988337
C38   C     C_3   0.513162 0.316327 0.253653 0.127246
C39   C     C_3   0.489913 0.256240 0.192440 -0.320537
C40   C     C_3   0.569993 0.182393 0.192305 -1.011264
C41   C     C_3   0.406665 0.705511 0.715803 0.156605
C42   C     C_3   0.350626 0.775871 0.667815 -0.329453
C43   C     C_3   0.390816 0.854234 0.684079 -0.989990
C44   C     C_3   0.544258 0.703104 0.230194 0.138095
C45   C     C_R   0.407182 0.526996 0.114364 -0.113561
C46   C     C_3   0.626127 0.717713 0.173796 -0.373907
C47   C     C_3   0.607021 0.802183 0.137565 -0.972762
C48   C     C_3   0.505816 0.299969 0.780412 0.151959
C49   C     C_3   0.581971 0.246879 0.832907 -0.356310
C50   C     C_3   0.539987 0.173547 0.864216 -0.988128
C51   C     C_3   0.567996 0.121076 0.645127 -0.396960
C52   C     C_3   0.638612 0.041233 0.644876 -0.355762
C53   C     C_3   0.700244 0.025493 0.720344 -0.911921
C54   C     C_3   0.403602 0.891450 0.373257 -0.420144
C55   C     C_3   0.481003 0.922020 0.320360 -0.334795
C56   C     C_R   0.401287 0.516587 0.882597 -0.106487
C57   C     C_3   0.433560 0.957122 0.243625 -0.920750
C58   C     C_3   0.706871 0.280376 0.585516 0.166155
C59   C     C_3   0.778650 0.211964 0.624250 -0.432257
C60   C     C_3   0.886764 0.220622 0.608169 -0.955832
C61   C     C_3   0.264812 0.774417 0.433667 0.011210
C62   C     C_3   0.193774 0.719385 0.463920 -0.282187
C63   C     C_3   0.089193 0.764946 0.473672 -0.999123
C64   C     C_3   0.383298 0.141878 0.382377 -0.416309
C65   C     C_3   0.271425 0.169767 0.391242 -0.331711
C66   C     C_3   0.210630 0.135268 0.328016 -0.904188
C67   C     C_1   0.389897 0.529674 0.032684 0.042875
C68   C     C_3   0.672923 0.843283 0.583302 -0.431804
C69   C     C_3   0.772752 0.790941 0.566982 -0.334060
C70   C     C_3   0.859085 0.823967 0.607172 -0.895114
C71   C     C_1   0.388009 0.526308 0.963586 0.048378
C72   C     C_R   0.543827 0.162203 0.565654 -0.079910
H1    H     H_    0.032408 0.407491 0.495675 0.154678
H2    H     H_    0.230215 0.421714 0.256155 0.233029
H3    H     H_    0.057730 0.469321 0.204619 0.267540
H4    H     H_    0.063547 0.380194 0.265626 0.270849
H5    H     H_    0.054562 0.372208 0.161380 0.265046
H6    H     H_    0.154756 0.660274 0.894061 0.164029
H7    H     H_    0.196782 0.557844 0.872466 0.116876
H8    H     H_    0.153186 0.697934 0.750646 0.236468
H9    H     H_    0.186261 0.592843 0.729466 0.236961
H10   H     H_    0.031544 0.562268 0.792734 0.267019
H11   H     H_    0.004723 0.634876 0.713755 0.271696
H12   H     H_    0.968937 0.588569 0.524707 0.150437
H13   H     H_    0.997320 0.668027 0.812868 0.264808
H14   H     H_    0.536212 0.283036 0.308821 0.161500
H15   H     H_    0.578961 0.344667 0.235780 0.105855
H16   H     H_    0.416813 0.236687 0.204123 0.233441
H17   H     H_    0.485670 0.285646 0.133925 0.248523
H18   H     H_    0.643722 0.200500 0.180167 0.270128
H19   H     H_    0.551663 0.140924 0.146472 0.273888
H20   H     H_    0.573856 0.149941 0.249373 0.264867
H21   H     H_    0.486177 0.695991 0.699041 0.130524
H22   H     H_    0.402992 0.721832 0.778182 0.166829
H23   H     H_    0.480494 0.630500 0.109290 0.175963
H24   H     H_    0.357477 0.762599 0.605139 0.218553
H25   H     H_    0.270307 0.783428 0.681814 0.220877
H26   H     H_    0.376375 0.872073 0.745089 0.269322
H27   H     H_    0.353193 0.902687 0.644448 0.268998
H28   H     H_    0.472109 0.847267 0.674513 0.265242
H29   H     H_    0.550257 0.741120 0.281422 0.161665
H30   H     H_    0.468066 0.722721 0.205127 0.126048
H31   H     H_    0.699109 0.709421 0.205608 0.228174
H32   H     H_    0.631160 0.673293 0.126607 0.223733
H33   H     H_    0.532920 0.812949 0.107548 0.267826
H34   H     H_    0.492709 0.402698 0.901819 0.180744
H35   H     H_    0.664981 0.808942 0.094334 0.268183
H36   H     H_    0.610602 0.847753 0.182883 0.271083
H37   H     H_    0.489877 0.266465 0.727964 0.167227
H38   H     H_    0.432884 0.312136 0.809970 0.108156
H39   H     H_    0.650020 0.226705 0.799680 0.224794
H40   H     H_    0.603788 0.282056 0.882764 0.221256
H41   H     H_    0.475718 0.192720 0.901864 0.270748
H42   H     H_    0.598351 0.134744 0.899295 0.271816
H43   H     H_    0.515342 0.137976 0.815728 0.262409
H44   H     H_    0.749524 0.071985 0.728356 0.262947
H45   H     H_    0.402101 0.297304 0.403310 0.201843
H46   H     H_    0.650568 0.025442 0.770806 0.270439
H47   H     H_    0.747427 0.965836 0.718183 0.256720
H48   H     H_    0.592375 0.992380 0.640445 0.232450
H49   H     H_    0.689469 0.039369 0.595008 0.220952
H50   H     H_    0.600045 0.161757 0.684950 0.245190
H51   H     H_    0.496730 0.110391 0.671217 0.181759
H52   H     H_    0.403731 0.909748 0.210048 0.264438
H53   H     H_    0.372279 0.006705 0.254478 0.271407
H54   H     H_    0.490402 0.981459 0.208386 0.257731
H55   H     H_    0.516881 0.969151 0.348963 0.227227
H56   H     H_    0.621053 0.693142 0.579161 0.156586
H57   H     H_    0.540967 0.872187 0.307981 0.215633
H58   H     H_    0.360574 0.855374 0.335965 0.221421
H59   H     H_    0.351295 0.942819 0.394935 0.194493
H60   H     H_    0.730923 0.337558 0.604141 0.187996
H61   H     H_    0.713936 0.277519 0.520996 0.114437
H62   H     H_    0.767955 0.211952 0.688064 0.235264
H63   H     H_    0.763655 0.153984 0.600846 0.232590
H64   H     H_    0.899466 0.220442 0.544592 0.262536
H65   H     H_    0.936882 0.169454 0.636004 0.268582
H66   H     H_    0.905434 0.277514 0.632405 0.268444
H67   H     H_    0.199726 0.396812 0.080638 0.163460
H68   H     H_    0.230991 0.804183 0.379343 0.155425
H69   H     H_    0.269387 0.821952 0.477590 0.119664
H70   H     H_    0.189929 0.670331 0.422092 0.235031
H71   H     H_    0.221829 0.693489 0.521388 0.237601
H72   H     H_    0.090513 0.813295 0.516659 0.266280
H73   H     H_    0.039596 0.722667 0.494810 0.265981
H74   H     H_    0.058591 0.791808 0.417187 0.269018
H75   H     H_    0.232976 0.154271 0.269570 0.262105
H76   H     H_    0.221809 0.068553 0.332581 0.257769
H77   H     H_    0.130319 0.157717 0.334978 0.253282
H78   H     H_    0.211949 0.490262 0.124354 0.116469
H79   H     H_    0.247949 0.149762 0.449059 0.226298
H80   H     H_    0.254999 0.236446 0.387224 0.223490
H81   H     H_    0.407373 0.162447 0.325101 0.207738
H82   H     H_    0.396051 0.075543 0.382782 0.222042
H83   H     H_    0.865638 0.884869 0.583556 0.264307
H84   H     H_    0.847533 0.827265 0.670821 0.261919
H85   H     H_    0.929671 0.783527 0.597287 0.253131
H86   H     H_    0.773080 0.728430 0.588948 0.214531
H87   H     H_    0.785047 0.789445 0.503304 0.230345
H88   H     H_    0.681593 0.905039 0.564861 0.217009
H89   H     H_    0.227927 0.325449 0.212109 0.238720
H90   H     H_    0.658697 0.841833 0.646643 0.198715
N1    N     N_R   0.499970 0.292770 0.499970 -0.145056
N2    N     N_R   0.500030 0.707230 0.500030 -0.131979
O1    O     O_R   0.500000 0.433430 0.610870 -0.542726
O2    O     O_3   0.295711 0.642203 0.851838 -0.648674
O3    O     O_3   0.426802 0.371995 0.268338 -0.637442
O4    O     O_3   0.363193 0.635742 0.700458 -0.628369
O5    O     O_3   0.560694 0.622377 0.257594 -0.626368
O6    O     O_3   0.545897 0.369570 0.756045 -0.597993
O7    O     O_3   0.608210 0.280999 0.611155 -0.623526
O8    O     O_3   0.358103 0.728580 0.415770 -0.625908
O9    O     O_R   0.500000 0.566570 0.389130 -0.541508
O10   O     O_R   0.500010 0.566520 0.610900 -0.609379
O11   O     O_R   0.499990 0.433480 0.389100 -0.604086
O12   O     O_R   0.640340 0.423880 0.499970 -0.635299
O13   O     O_R   0.359660 0.576120 0.500030 -0.580035
O14   O     O_R   0.640350 0.556960 0.500000 -0.612734
O15   O     O_R   0.359650 0.443040 0.500000 -0.614982
O16   O     O_3   0.340265 0.401676 0.123157 -0.648159
Zn1   Zn    Zn3+2 0.500000 0.411140 0.499980 0.969003
Zn2   Zn    Zn3+2 0.500000 0.588860 0.500020 0.996481

loop_
_geom_bond_atom_site_label_1
_geom_bond_atom_site_label_2
_ccdc_geom_bond_type
C48   H38   S    
C34   C56   A    
C16   C21   T    
C23   C45   A    
C15   O15   A    
N1    Zn1   S    
C18   C21   S    
C51   H51   S    
C41   C42   S    
C2    C4    A    
C35   C36   S    
C43   H26   S    
C62   H71   S    
C33   H5    S    
O10   Zn2   S    
C25   O3    S    
C54   H59   S    
C26   O4    S    
C38   H14   S    
C42   H24   S    
C23   C29   A    
C37   H13   S    
C36   C37   S    
C43   H27   S    
C18   C19   D    
C57   H53   S    
C38   C39   S    
C27   C29   A    
O13   Zn2   S    
C41   O4    S    
C64   H82   S    
C17   C20   T    
C50   H43   S    
C59   H63   S    
C44   O5    S    
C30   O6    S    
C14   O12   A    
C46   C47   S    
C35   O2    S    
C33   H3    S    
C41   H21   S    
C41   H22   S    
C58   H60   S    
C68   C69   S    
C47   H33   S    
C22   C25   A    
C45   C67   S    
C1    C28   S    
C18   H12   S    
C63   H72   S    
C4    N2    A    
C63   H73   S    
C60   H64   S    
C63   H74   S    
C66   H76   S    
C61   C62   S    
C53   H44   S    
C3    N1    A    
C60   H65   S    
O11   Zn1   S    
C48   H37   S    
C59   C60   S    
C14   C17   S    
O12   Zn1   S    
C39   H16   S    
C62   H70   S    
C40   H18   S    
C44   C46   S    
C58   H61   S    
C38   O3    S    
C54   H58   S    
C1    O10   A    
C30   C34   A    
C12   C27   S    
C51   C52   S    
C34   H34   S    
C19   H1    S    
C43   H28   S    
C66   H77   S    
C22   O16   S    
C2    C54   S    
C42   H25   S    
C57   H54   S    
C5    C7    A    
C31   H78   S    
C44   H30   S    
C53   H46   S    
C9    C72   A    
C6    C8    A    
C55   H57   S    
C58   C59   S    
C46   H32   S    
C64   H81   S    
C70   H83   S    
C5    H45   S    
C50   H42   S    
C65   H79   S    
C24   O2    S    
C62   C63   S    
C52   H49   S    
C33   H4    S    
C31   C32   S    
C1    O1    A    
C36   H9    S    
C56   C71   S    
C32   H89   S    
C69   H86   S    
C61   O8    S    
O14   Zn2   S    
C40   H20   S    
C9    C11   S    
C66   H75   S    
C14   O14   A    
C12   O11   A    
C48   O6    S    
C52   H48   S    
C61   H69   S    
C48   C49   S    
C55   H55   S    
O9    Zn2   S    
C8    C68   S    
C49   H40   S    
C15   O13   A    
C36   H8    S    
C70   H84   S    
C37   H10   S    
C24   C56   A    
C42   C43   S    
C31   H67   S    
C2    C10   A    
C5    N1    A    
C39   C40   S    
C52   C53   S    
C7    C9    A    
C54   C55   S    
C4    O8    S    
C26   C28   A    
C24   C26   A    
C10   C13   S    
C44   H29   S    
C53   H47   S    
C61   H68   S    
C68   H90   S    
C25   C27   A    
C46   H31   S    
C38   H15   S    
C35   H6    S    
C47   H35   S    
C49   H39   S    
C31   O16   S    
C50   H41   S    
O1    Zn1   S    
C64   C65   S    
C70   H85   S    
C19   C20   S    
C55   C57   S    
C3    C72   A    
C6    H56   S    
C28   C30   A    
C32   C33   S    
C57   H52   S    
C32   H2    S    
C11   C13   T    
C3    O7    S    
C65   H80   S    
C35   H7    S    
C69   H87   S    
C23   H23   S    
C58   O7    S    
C67   C71   T    
C65   C66   S    
C40   H19   S    
C6    N2    A    
C69   C70   S    
C7    C64   S    
N2    Zn2   S    
C22   C45   A    
C47   H36   S    
C8    C10   A    
C49   C50   S    
C51   C72   S    
C51   H50   S    
C37   H11   S    
C29   O5    S    
C68   H88   S    
C39   H17   S    
C15   C16   S    
C60   H66   S    
C12   O9    A    
O15   Zn1   S    
C59   H62   S    
