data_mof_unit_25367.cif
_audit_creation_date              2012-12-11T15:07:33-0500
_audit_creation_method            fapswitch 2.2
_symmetry_space_group_name_H-M    P1
_symmetry_Int_Tables_number       1
_space_group_crystal_system       triclinic
_cell_length_a                    21.626023
_cell_length_b                    7.215774
_cell_length_c                    18.547937
_cell_angle_alpha                 89.999979
_cell_angle_beta                  96.088558
_cell_angle_gamma                 89.999946
_cell_volume                      2878.05088095

loop_
_atom_site_label
_atom_site_type_symbol
_atom_type_description
_atom_site_fract_x
_atom_site_fract_y
_atom_site_fract_z
_atom_type_partial_charge
O1    O     O_R   0.449650 0.506500 0.414480 -0.533359
O2    O     O_R   0.550350 0.006500 0.585520 -0.533359
O3    O     O_R   0.432010 0.173150 0.560250 -0.537613
O4    O     O_R   0.567990 0.673150 0.439750 -0.537613
C1    C     C_R   0.415614 0.344567 0.580322 0.684164
C2    C     C_R   0.584386 0.844567 0.419677 0.684164
O5    O     O_R   0.442320 0.176650 0.413480 -0.531005
O6    O     O_R   0.557680 0.676650 0.586520 -0.531005
O7    O     O_R   0.560730 0.008380 0.437700 -0.539367
O8    O     O_R   0.439270 0.508380 0.562300 -0.539367
C3    C     C_R   0.428383 0.344714 0.387476 0.676678
C4    C     C_R   0.571617 0.844714 0.612524 0.676678
O9    O     O_3   0.538840 0.339860 0.508120 -0.371609
O10   O     O_3   0.461160 0.839860 0.491880 -0.371609
V1    V     V_3+5 0.492800 0.064220 0.498490 1.426751
V2    V     V_3+5 0.507200 0.564220 0.501510 1.426751
C5    C     C_R   0.867495 0.064770 0.691527 0.333655
C6    C     C_R   0.132503 0.564759 0.308474 0.333656
H1    H     H_    0.784142 0.020812 0.571866 0.192347
H2    H     H_    0.215856 0.520793 0.428136 0.192344
C7    C     C_R   0.888841 0.950113 0.816293 -0.206312
C8    C     C_R   0.111159 0.450112 0.183707 -0.206314
C9    C     C_R   0.589439 0.794864 0.744461 -0.161590
C10   C     C_R   0.410562 0.294873 0.255538 -0.161591
C11   C     C_R   0.627215 0.784047 0.809819 -0.125877
C12   C     C_R   0.372786 0.284060 0.190180 -0.125877
C13   C     C_R   0.690520 0.824131 0.813181 -0.154750
C14   C     C_R   0.309481 0.324140 0.186819 -0.154751
C15   C     C_R   0.718152 0.876839 0.750451 0.126043
C16   C     C_R   0.281847 0.376841 0.249549 0.126043
C17   C     C_R   0.678671 0.889469 0.683511 0.068695
C18   C     C_R   0.321328 0.389466 0.316489 0.068694
C19   C     C_R   0.783258 0.920837 0.752276 0.045277
C20   C     C_R   0.216741 0.420836 0.247724 0.045277
C21   C     C_R   0.806066 0.992124 0.688716 -0.048587
C22   C     C_R   0.193933 0.492116 0.311285 -0.048587
C23   C     C_R   0.766918 0.988576 0.622987 -0.043440
C24   C     C_R   0.233081 0.488563 0.377014 -0.043440
C25   C     C_R   0.704764 0.939068 0.620422 -0.206290
C26   C     C_R   0.295235 0.439058 0.379578 -0.206289
C27   C     C_R   0.826063 0.899495 0.815256 -0.291582
C28   C     C_R   0.173937 0.399497 0.184744 -0.291584
C29   C     C_R   0.910372 0.030580 0.753873 0.345610
C30   C     C_R   0.089628 0.530573 0.246128 0.345608
C31   C     C_R   0.614039 0.848196 0.680913 -0.079811
C32   C     C_R   0.385961 0.348197 0.319087 -0.079810
H3    H     H_    0.812036 0.844115 0.864967 0.120652
H4    H     H_    0.187964 0.344121 0.135032 0.120652
H5    H     H_    0.540544 0.760706 0.743365 0.105161
H6    H     H_    0.459457 0.260719 0.256634 0.105160
H7    H     H_    0.716276 0.815246 0.866031 0.104543
H8    H     H_    0.283724 0.315259 0.133968 0.104543
H9    H     H_    0.607209 0.743774 0.858571 0.119667
H10   H     H_    0.392792 0.243793 0.141428 0.119667
H11   H     H_    0.677051 0.942334 0.568257 0.109685
H12   H     H_    0.322948 0.442320 0.431744 0.109683
C33   C     C_R   0.645704 0.708968 0.324152 -0.212361
C34   C     C_R   0.354296 0.208968 0.675848 -0.212361
C35   C     C_R   0.634927 0.855891 0.371266 -0.076472
C36   C     C_R   0.365073 0.355891 0.628734 -0.076472
C37   C     C_R   0.671612 0.017273 0.370504 -0.209743
C38   C     C_R   0.328388 0.517274 0.629496 -0.209744
C39   C     C_R   0.717886 0.033402 0.323161 0.083543
C40   C     C_R   0.282114 0.533403 0.676839 0.083545
C41   C     C_R   0.727430 0.887175 0.275086 0.062220
C42   C     C_R   0.272570 0.387175 0.724913 0.062220
C43   C     C_R   0.691244 0.724380 0.275618 0.097793
C44   C     C_R   0.308756 0.224380 0.724382 0.097793
C45   C     C_R   0.754575 0.193862 0.322709 -0.166253
C46   C     C_R   0.245424 0.693862 0.677290 -0.166257
C47   C     C_R   0.799768 0.210525 0.274353 -0.126418
C48   C     C_R   0.200232 0.710525 0.725647 -0.126420
C49   C     C_R   0.809013 0.067266 0.225437 0.073998
C50   C     C_R   0.190987 0.567266 0.774563 0.073999
C51   C     C_R   0.773050 0.904205 0.226153 0.064468
C52   C     C_R   0.226950 0.404205 0.773847 0.064468
C53   C     C_R   0.782598 0.758279 0.177959 0.109593
C54   C     C_R   0.217402 0.258278 0.822041 0.109592
C55   C     C_R   0.746182 0.597325 0.178726 -0.201871
C56   C     C_R   0.253818 0.097324 0.821274 -0.201871
C57   C     C_R   0.700849 0.580734 0.226975 -0.193308
C58   C     C_R   0.299150 0.080733 0.773024 -0.193307
C59   C     C_R   0.853893 0.083709 0.176277 -0.148751
C60   C     C_R   0.146106 0.583709 0.823723 -0.148750
C61   C     C_R   0.864702 0.937924 0.128895 -0.052499
C62   C     C_R   0.135298 0.437923 0.871105 -0.052499
C63   C     C_R   0.828455 0.775641 0.130031 -0.230199
C64   C     C_R   0.171545 0.275641 0.869969 -0.230200
H13   H     H_    0.617638 0.584437 0.323951 0.123921
H14   H     H_    0.382362 0.084437 0.676049 0.123921
H15   H     H_    0.664287 0.130675 0.407000 0.134137
H16   H     H_    0.335713 0.630675 0.593000 0.134137
H17   H     H_    0.748028 0.307264 0.359450 0.144256
H18   H     H_    0.251971 0.807264 0.640550 0.144254
H19   H     H_    0.827338 0.336054 0.275002 0.168825
H20   H     H_    0.172662 0.836054 0.724998 0.168824
H21   H     H_    0.881296 0.208409 0.176034 0.161082
H22   H     H_    0.118704 0.708409 0.823966 0.161081
H23   H     H_    0.835778 0.662630 0.093368 0.113267
H24   H     H_    0.164221 0.162630 0.906632 0.113267
H25   H     H_    0.752873 0.483782 0.142108 0.123450
H26   H     H_    0.247127 0.983782 0.857892 0.123450
H27   H     H_    0.673345 0.455113 0.226316 0.130191
H28   H     H_    0.326655 0.955112 0.773684 0.130191
O11   O     O_R   0.060820 0.290050 0.937800 -0.530956
O12   O     O_R   0.939180 0.790050 0.062200 -0.530957
O13   O     O_R   0.057690 0.616620 0.086540 -0.530342
O14   O     O_R   0.942310 0.116620 0.913460 -0.530342
C65   C     C_R   0.071252 0.449609 0.113167 0.802655
C66   C     C_R   0.928748 0.949609 0.886833 0.802655
O15   O     O_R   0.068010 0.619890 0.939770 -0.543227
O16   O     O_R   0.931990 0.119890 0.060230 -0.543227
O17   O     O_R   0.949640 0.787940 0.914460 -0.521464
O18   O     O_R   0.050360 0.287940 0.085540 -0.521464
C67   C     C_R   0.084822 0.450821 0.919684 0.733842
C68   C     C_R   0.915178 0.950821 0.080316 0.733840
O19   O     O_3   0.961210 0.453080 0.991940 -0.381549
O20   O     O_3   0.038790 0.953080 0.008060 -0.381549
V3    V     V_3+5 0.007200 0.728820 0.001500 1.526991
V4    V     V_3+5 0.992800 0.228820 0.998500 1.526992
S1    S     S_3+6 0.991278 0.081866 0.754288 0.099341
O21   O     O_2   0.012233 0.049993 0.680577 -0.230524
O22   O     O_2   0.002041 0.281100 0.775760 -0.310543
O23   O     O_3   0.034606 0.947221 0.813718 -0.526395
H29   H     H_    0.075060 0.011948 0.822444 0.333724
S2    S     S_3+6 0.008721 0.581858 0.245712 0.099341
O24   O     O_2   0.987766 0.549977 0.319422 -0.230524
O25   O     O_2   0.997958 0.781094 0.224243 -0.310542
O26   O     O_3   0.965394 0.447219 0.186280 -0.526396
H30   H     H_    0.924940 0.511947 0.177553 0.333724
S3    S     S_3+6 0.886675 0.216642 0.620463 0.113232
O27   O     O_2   0.935718 0.355401 0.646690 -0.220333
O28   O     O_2   0.909376 0.101915 0.560953 -0.262833
O29   O     O_3   0.823431 0.337175 0.586823 -0.526505
H31   H     H_    0.835513 0.397849 0.542502 0.374287
S4    S     S_3+6 0.113322 0.716621 0.379541 0.113237
O30   O     O_2   0.064279 0.855381 0.353316 -0.220326
O31   O     O_2   0.090622 0.601886 0.439048 -0.262837
O32   O     O_3   0.176565 0.837154 0.413183 -0.526500
H32   H     H_    0.164486 0.897803 0.457511 0.374283

loop_
_geom_bond_atom_site_label_1
_geom_bond_atom_site_label_2
_ccdc_geom_bond_type
C60   C62   A    
C42   C44   A    
C39   C41   A    
S2    O24   D    
C9    C31   A    
O12   V3    S    
C5    S3    S    
C49   C51   A    
O14   V4    S    
O1    C3    A    
S3    O29   S    
O2    C4    A    
C2    O7    A    
C7    C66   S    
O5    C3    A    
C30   S2    S    
C33   H13   S    
C52   C54   A    
O15   V3    S    
C21   C23   A    
C11   H9    S    
C45   H17   S    
C62   C64   A    
C9    H5    S    
C47   H19   S    
C34   C36   A    
C15   C19   A    
C13   C15   A    
C36   C38   A    
C45   C47   A    
O20   V3    S    
S1    O23   S    
C38   C40   A    
H1    C23   S    
O17   V3    S    
C25   H11   S    
C39   C45   A    
O14   C66   A    
C41   C43   A    
C20   C28   A    
O11   V4    S    
C6    S4    S    
C40   C46   A    
C29   S1    S    
C20   C22   A    
O5    V1    S    
O6    V2    S    
C24   C26   A    
C7    C29   A    
O13   C65   A    
C33   C43   A    
S4    O32   S    
C12   H10   S    
O13   V3    S    
C12   C14   A    
C13   H7    S    
C63   H23   S    
C53   C55   A    
C10   H6    S    
C8    C30   A    
C35   C37   A    
C16   C20   A    
C61   C63   A    
C19   C27   A    
C48   C50   A    
O19   V4    S    
C50   C60   A    
O16   V4    S    
S4    O30   D    
S2    O26   S    
C26   H12   S    
C56   H26   S    
C62   C67   S    
C40   C42   A    
O4    V2    S    
C5    C29   A    
C6    C30   A    
H2    C24   S    
O6    C4    A    
C8    C65   S    
C42   C52   A    
C37   C39   A    
C27   H3    S    
O1    V2    S    
C28   H4    S    
O2    V1    S    
C34   H14   S    
C66   O17   A    
S1    O21   D    
C64   H24   S    
C50   C52   A    
C65   O18   A    
C7    C27   A    
C56   C58   A    
C59   C61   A    
C43   C57   A    
C17   C31   A    
O9    V2    S    
O4    C2    A    
S3    O27   D    
O3    C1    A    
O16   C68   A    
O3    V1    S    
S4    O31   D    
C47   C49   A    
O26   H30   S    
C57   H27   S    
C54   C64   A    
S2    O25   D    
C1    C36   S    
C46   H18   S    
C18   C32   A    
C2    C35   S    
O11   C67   A    
C61   C68   S    
C10   C12   A    
C4    C31   S    
S3    O28   D    
C46   C48   A    
O32   H32   S    
O29   H31   S    
C11   C13   A    
C55   C57   A    
C41   C51   A    
C44   C58   A    
C22   C24   A    
O7    V1    S    
C60   H22   S    
C1    O8    A    
C23   C25   A    
O8    V2    S    
C16   C18   A    
C14   H8    S    
C34   C44   A    
C8    C28   A    
C14   C16   A    
C19   C21   A    
C17   C25   A    
C54   C56   A    
C18   C26   A    
S1    O22   D    
C33   C35   A    
C48   H20   S    
C9    C11   A    
O23   H29   S    
C53   C63   A    
C15   C17   A    
C59   H21   S    
C51   C53   A    
O12   C68   A    
C58   H28   S    
O10   V1    S    
C55   H25   S    
C3    C32   S    
O15   C67   A    
C5    C21   A    
C38   H16   S    
C6    C22   A    
C49   C59   A    
O18   V4    S    
C37   H15   S    
C10   C32   A    
