data_mof_unit_33077.cif
_audit_creation_date              2013-03-05T15:44:19-0500
_audit_creation_method            fapswitch 2.2
_symmetry_space_group_name_H-M    P1
_symmetry_Int_Tables_number       1
_space_group_crystal_system       triclinic
_cell_length_a                    23.473568
_cell_length_b                    10.901844
_cell_length_c                    9.750492
_cell_angle_alpha                 90.480595
_cell_angle_beta                  90.056323
_cell_angle_gamma                 90.367265
_cell_volume                      2495.06099725

loop_
_atom_site_label
_atom_site_type_symbol
_atom_site_description
_atom_site_fract_x
_atom_site_fract_y
_atom_site_fract_z
_atom_type_partial_charge
O1    O     O_R   0.500010 0.321960 0.617040 -0.602193
O2    O     O_R   0.499990 0.321920 0.382900 -0.553373
C1    C     C_R   0.498089 0.265635 0.499441 0.826461
O3    O     O_R   0.417890 0.499980 0.617100 -0.590418
O4    O     O_R   0.417870 0.499940 0.382950 -0.511760
C2    C     C_R   0.391381 0.499259 0.499993 0.794893
Cu1   Cu    Cu3+1 0.500010 0.500020 0.638630 0.967432
Cu2   Cu    Cu3+1 0.499990 0.499980 0.361370 0.994421
O5    O     O_R   0.500010 0.678080 0.617100 -0.567465
O6    O     O_R   0.499990 0.678040 0.382960 -0.630647
O7    O     O_R   0.582130 0.500060 0.617050 -0.548034
O8    O     O_R   0.582110 0.500020 0.382900 -0.575378
C3    C     C_R   0.502632 0.734633 0.500698 0.818617
C4    C     C_R   0.608607 0.500966 0.500014 0.828289
C5    C     C_R   0.880232 0.553179 0.607545 0.602827
N1    N     N_R   0.851541 0.508409 0.495828 -0.424709
C6    C     C_R   0.879083 0.459647 0.385039 0.576104
C7    C     C_R   0.939178 0.462978 0.377339 -0.081314
C8    C     C_R   0.969741 0.504964 0.494904 -0.037024
C9    C     C_R   0.940331 0.548661 0.612953 -0.073417
C10   C     C_R   0.969969 0.423448 0.258848 -0.017961
C11   C     C_R   0.029521 0.418561 0.263688 -0.133028
C12   C     C_R   0.059725 0.458139 0.379538 -0.052262
C13   C     C_R   0.030052 0.503103 0.494528 -0.011865
C14   C     C_R   0.060925 0.545969 0.609286 -0.080397
C15   C     C_R   0.031800 0.587752 0.725236 -0.150492
C16   C     C_R   0.972405 0.588263 0.729814 0.256343
C17   C     C_R   0.119548 0.456816 0.381485 0.533972
N2    N     N_R   0.148641 0.501905 0.492645 -0.442584
C18   C     C_R   0.120724 0.545075 0.605957 0.600936
O9    O     O_2   0.850061 0.602967 0.711219 -0.548466
O10   O     O_2   0.847832 0.406296 0.284757 -0.547300
H1    H     H_    0.052631 0.388071 0.173551 0.219308
O11   O     O_2   0.148526 0.412583 0.272462 -0.530018
O12   O     O_2   0.150805 0.586573 0.715087 -0.529997
H2    H     H_    0.055170 0.618320 0.815319 0.198995
C19   C     C_R   0.239910 0.613209 0.468249 0.282016
C20   C     C_R   0.300343 0.613142 0.472609 -0.130334
C21   C     C_R   0.329020 0.501734 0.499869 -0.184607
C22   C     C_R   0.298076 0.391851 0.521611 0.235183
C23   C     C_R   0.238667 0.394512 0.517010 -0.158817
H3    H     H_    0.214277 0.312034 0.537481 0.163749
C24   C     C_R   0.209760 0.503132 0.490603 0.248879
C25   C     C_R   0.761286 0.399716 0.518733 -0.096522
H4    H     H_    0.785934 0.317364 0.534869 0.194648
C26   C     C_R   0.701802 0.394367 0.520090 -0.096482
C27   C     C_R   0.670929 0.503290 0.499830 -0.116241
C28   C     C_R   0.699422 0.616048 0.479102 0.135074
C29   C     C_R   0.759735 0.620051 0.475104 -0.021259
C30   C     C_R   0.790281 0.510054 0.495798 0.270844
C31   C     C_2   0.497954 0.932668 0.392827 -0.251269
C32   C     C_2   0.513333 0.866216 0.502713 0.128527
H5    H     H_    0.478780 0.888444 0.303629 0.159944
C33   C     C_2   0.503229 0.066113 0.388303 -0.145243
C34   C     C_2   0.491931 0.133972 0.499528 -0.316142
H6    H     H_    0.513925 0.108382 0.291124 0.167662
H7    H     H_    0.477369 0.092031 0.593708 0.175338
C35   C     C_2   0.498128 0.401749 0.921368 -0.064284
N3    N     N_2   0.499380 0.498660 0.846910 -0.254062
H8    H     H_    0.502464 0.312617 0.872558 0.137469
H9    H     H_    0.486065 0.579238 0.891955 0.189678
C36   C     C_2   0.484376 0.407246 0.071846 0.075554
N4    N     N_2   0.499370 0.498630 0.153040 -0.241764
C37   C     C_2   0.942638 0.395235 0.124573 0.444052
H10   H     H_    0.904626 0.442895 0.092567 0.122709
O13   O     O_2   0.963613 0.320730 0.045480 -0.533222
C38   C     C_2   0.672503 0.274593 0.541749 0.411929
H11   H     H_    0.626392 0.268219 0.541732 0.044222
O14   O     O_2   0.699625 0.180841 0.559744 -0.539861
N5    N     N_2   0.666443 0.724718 0.465322 -0.445786
H12   H     H_    0.678489 0.796023 0.529304 0.262144
C39   C     C_3   0.655857 0.762032 0.325646 -0.628424
H13   H     H_    0.695879 0.793966 0.276563 0.224188
H14   H     H_    0.624733 0.838275 0.325420 0.225171
H15   H     H_    0.637843 0.684647 0.264799 0.264041
C40   C     C_2   0.789950 0.737947 0.446745 0.417866
H16   H     H_    0.768681 0.824939 0.461217 0.088204
O15   O     O_2   0.838708 0.739979 0.403391 -0.533549
N6    N     N_2   0.548319 0.916080 0.610279 -0.417259
H17   H     H_    0.575271 0.988107 0.587292 0.280400
C41   C     C_3   0.526396 0.913648 0.749192 -0.644823
H18   H     H_    0.527897 0.007407 0.794623 0.202073
H19   H     H_    0.553295 0.852605 0.812294 0.248635
H20   H     H_    0.481503 0.880662 0.752561 0.222149
C42   C     C_2   0.449004 0.304139 0.120817 0.417491
H21   H     H_    0.453851 0.213851 0.074678 0.006445
O16   O     O_2   0.411545 0.319800 0.205351 -0.516394
C43   C     C_2   0.542533 0.582254 0.108465 0.552997
H22   H     H_    0.538353 0.679250 0.131381 0.022204
O17   O     O_2   0.585978 0.545612 0.052956 -0.554353
N7    N     N_2   0.946998 0.623160 0.856583 -0.432016
H23   H     H_    0.913448 0.570140 0.890076 0.291859
C44   C     C_3   0.941097 0.753822 0.878299 -0.554720
H24   H     H_    0.923711 0.771415 0.982435 0.233960
H25   H     H_    0.911641 0.792993 0.801184 0.258737
H26   H     H_    0.983255 0.800143 0.870604 0.221427
N8    N     N_2   0.208540 0.723771 0.452466 -0.410955
H27   H     H_    0.225493 0.799722 0.501584 0.286641
C45   C     C_3   0.188814 0.747588 0.314622 -0.553685
H28   H     H_    0.163694 0.833531 0.314149 0.219033
H29   H     H_    0.160953 0.671974 0.277231 0.233939
H30   H     H_    0.225403 0.757887 0.243491 0.260833
C46   C     C_2   0.334363 0.727635 0.451380 0.377669
H31   H     H_    0.376338 0.737191 0.496931 0.047617
O18   O     O_2   0.317061 0.810890 0.379964 -0.559925
N9    N     N_2   0.325905 0.279203 0.553126 -0.435021
H32   H     H_    0.367429 0.285937 0.586693 0.252977
C47   C     C_3   0.317127 0.179875 0.455766 -0.576261
H33   H     H_    0.340781 0.097646 0.489973 0.230597
H34   H     H_    0.333013 0.206558 0.353030 0.266322
H35   H     H_    0.271326 0.154785 0.448601 0.231692

loop_
_geom_bond_atom_site_label_1
_geom_bond_atom_site_label_2
_geom_bond_distance
_ccdc_geom_bond_type
C35   C36   1.503420 S    
C44   H24   1.110350 S    
N4    C43   1.429078 S    
C7    C10   1.428362 A    
C23   H3    1.082941 S    
C8    C9    1.423024 A    
C19   N8    1.425829 S    
N8    H27   1.030569 S    
Cu1   Cu2   2.703416 S    
C42   H21   1.085490 S    
Cu1   O7    1.939303 S    
C38   O14   1.221429 D    
C15   C16   1.395011 A    
C20   C46   1.493465 S    
C18   O12   1.349765 S    
C40   O15   1.220627 D    
C17   N2    1.366763 A    
C19   C20   1.419178 A    
N1    C30   1.438201 S    
C39   H15   1.108630 S    
C20   C21   1.419323 A    
O7    C4    1.300052 A    
N9    H32   1.029883 S    
C35   H8    1.083817 S    
C5    N1    1.365215 A    
C47   H33   1.110955 S    
C7    C8    1.422540 A    
O5    C3    1.297484 A    
C10   C37   1.486405 S    
C25   C30   1.398036 A    
N8    C45   1.447231 S    
C26   C27   1.410300 A    
C1    C34   1.441714 S    
C27   C28   1.411800 A    
N1    C6    1.365157 A    
C12   C13   1.406859 A    
C16   N7    1.422928 S    
N5    H12   1.030602 S    
N2    C18   1.366842 A    
C17   O11   1.349921 S    
C44   H25   1.110828 S    
C10   C11   1.400007 A    
N2    C24   1.434822 S    
C23   C24   1.394296 A    
O3    Cu1   1.938836 S    
Cu1   N3    2.031079 S    
C41   H19   1.109771 S    
C25   C26   1.397228 A    
C41   H18   1.110927 S    
C42   O16   1.217657 D    
C5    C9    1.412866 A    
C36   C42   1.476055 S    
C33   H6    1.086066 S    
N3    H9    1.029360 S    
C38   H11   1.084166 S    
C13   C14   1.407456 A    
O3    C2    1.299797 A    
C28   N5    1.426568 S    
C21   C22   1.414569 A    
N6    C41   1.449797 S    
C14   C15   1.396407 A    
C31   C32   1.348606 D    
O1    C1    1.296772 A    
C37   O13   1.221588 D    
C19   C24   1.407935 A    
C36   N4    1.313347 D    
N7    C44   1.445902 S    
C3    C32   1.454708 S    
C45   H28   1.110288 S    
Cu2   O8    1.938841 S    
C2    C21   1.464256 S    
C6    C7    1.412977 A    
C29   C40   1.492005 S    
C46   O18   1.220000 D    
C12   C17   1.404551 A    
C40   H16   1.082847 S    
C39   H14   1.110169 S    
C28   C29   1.416744 A    
C45   H29   1.108025 S    
O8    C4    1.299718 A    
C44   H26   1.111013 S    
C34   H7    1.083906 S    
C32   N6    1.432830 S    
N7    H23   1.028982 S    
C41   H20   1.111891 S    
C25   H4    1.083686 S    
C22   N9    1.430225 S    
C15   H2    1.084108 S    
C14   C18   1.404202 A    
Cu1   O5    1.954249 S    
C11   H1    1.084227 S    
C33   C34   1.335427 D    
C22   C23   1.395697 A    
O1    Cu1   1.950808 S    
O2    Cu2   1.954249 S    
C43   O17   1.222776 D    
C39   H13   1.110098 S    
O6    C3    1.299957 A    
O4    Cu2   1.939303 S    
C5    O9    1.347286 S    
C4    C27   1.462984 S    
C9    C16   1.427403 A    
C47   H35   1.109652 S    
C31   C33   1.460303 S    
C37   H10   1.082420 S    
O2    C1    1.296611 A    
C35   N3    1.287114 D    
C26   C38   1.488624 S    
O4    C2    1.300214 A    
N9    C47   1.447657 S    
C47   H34   1.109676 S    
C8    C13   1.415977 A    
Cu2   N4    2.031288 S    
N6    H17   1.031473 S    
C45   H30   1.110186 S    
C43   H22   1.084036 S    
Cu2   O6    1.950807 S    
C29   C30   1.416916 A    
C46   H31   1.084429 S    
C6    O10   1.347615 S    
C11   C12   1.396829 A    
N5    C39   1.446358 S    
C31   H5    1.086680 S    
