data_mof_unit_33545.cif
_audit_creation_date              2012-12-11T19:58:09-0500
_audit_creation_method            fapswitch 2.2
_symmetry_space_group_name_H-M    P1
_symmetry_Int_Tables_number       1
_space_group_crystal_system       triclinic
_cell_length_a                    8.358635
_cell_length_b                    16.571749
_cell_length_c                    22.959196
_cell_angle_alpha                 108.168627
_cell_angle_beta                  90.07722
_cell_angle_gamma                 83.352987
_cell_volume                      2999.33977814

loop_
_atom_site_label
_atom_site_type_symbol
_atom_type_description
_atom_site_fract_x
_atom_site_fract_y
_atom_site_fract_z
_atom_type_partial_charge
Ba1   Ba    Ba6+2 0.335320 0.541410 0.478120 1.773380
Ba2   Ba    Ba6+2 0.854470 0.458670 0.521900 1.772840
C1    C     C_3   0.014986 0.848593 0.367731 -0.360964
C2    C     C_3   0.041702 0.761684 0.377972 0.393141
C3    C     C_3   0.119636 0.309769 0.311994 0.667849
C4    C     C_3   0.237943 0.286074 0.255876 0.225697
C5    C     C_3   0.605670 0.214573 0.639641 0.386496
C6    C     C_3   0.636514 0.170919 0.688986 0.729831
C7    C     C_3   0.125926 0.230107 0.625561 0.406897
C8    C     C_3   0.117660 0.148477 0.642021 0.252541
C9    C     C_R   0.851249 0.503351 0.329145 0.181191
C10   C     C_R   0.557007 0.560921 0.951593 -0.086497
C11   C     C_R   0.501166 0.558025 0.892607 0.711429
C12   C     C_3   0.551991 0.785079 0.358620 0.701598
C13   C     C_R   0.583428 0.406849 0.855459 0.695591
C14   C     C_R   0.624696 0.406560 0.915351 -0.060954
C15   C     C_R   0.613606 0.484323 0.963617 -0.058325
C16   C     C_R   0.559646 0.638921 0.998542 -0.106385
C17   C     C_R   0.616510 0.641590 0.056575 0.433386
C18   C     C_R   0.657869 0.564552 0.071154 -0.092250
C19   C     C_R   0.659668 0.485592 0.023888 -0.153844
C20   C     C_R   0.676020 0.330027 0.927990 -0.106279
C21   C     C_R   0.711255 0.329708 0.987871 0.433657
C22   C     C_R   0.708450 0.408033 0.036448 -0.080487
C23   C     C_3   0.510691 0.846924 0.321954 0.346240
C24   C     C_R   0.750434 0.410992 0.097264 0.621364
C25   C     C_R   0.697757 0.564388 0.131343 0.590372
C26   C     C_2   0.341152 0.432343 0.758039 0.347152
C27   C     C_3   0.312067 0.412304 0.689998 -0.088761
C28   C     C_1   0.502808 0.515377 0.687187 0.031128
C29   C     C_2   0.545215 0.522928 0.745158 0.317440
C30   C     C_2   0.462422 0.478692 0.783245 0.161914
C31   C     C_R   0.911693 0.527552 0.233485 -0.126104
C32   C     C_R   0.949349 0.534870 0.294097 -0.015970
C33   C     C_R   0.710542 0.467804 0.306100 0.041595
C34   C     C_3   0.656645 0.735380 0.662940 0.659521
C35   C     C_R   0.669520 0.461087 0.244360 0.355229
C36   C     C_R   0.774142 0.490614 0.207212 0.193722
C37   C     C_2   0.390861 0.467422 0.659596 -0.298571
C38   C     C_2   0.396430 0.244812 0.492385 -0.300479
C39   C     C_R   0.780125 0.759121 0.526181 -0.207986
C40   C     C_2   0.232808 0.131934 0.441154 -0.086921
C41   C     C_2   0.257086 0.214295 0.455791 0.029278
C42   C     C_2   0.518742 0.188970 0.500059 0.010124
C43   C     C_3   0.513808 0.093886 0.469014 0.050901
C44   C     C_3   0.339454 0.071853 0.465572 0.026126
C45   C     C_3   0.740164 0.783803 0.720497 0.386718
C46   C     C_2   0.632309 0.035116 0.491649 -0.073500
C47   C     C_2   0.602821 0.956045 0.488874 -0.131651
C48   C     C_R   0.868249 0.916510 0.530565 0.075053
C49   C     C_R   0.718663 0.894082 0.506618 -0.034225
C50   C     C_R   0.975877 0.858505 0.548855 -0.156080
C51   C     C_R   0.933365 0.777905 0.545202 0.016376
C52   C     C_R   0.678358 0.812112 0.501930 0.041222
C53   C     C_3   0.658192 0.269081 0.367110 0.271190
C54   C     C_3   0.605725 0.178556 0.345362 0.555991
C55   C     C_3   0.173257 0.694343 0.680546 0.589095
C56   C     C_3   0.217643 0.761339 0.740068 0.321826
H1    H     H_    0.132491 0.764728 0.413712 0.088412
H2    H     H_    0.829114 0.737590 0.732696 0.115618
H3    H     H_    0.808320 0.831871 0.709883 -0.053796
H4    H     H_    0.623841 0.299466 0.416503 -0.009596
H5    H     H_    0.788335 0.264581 0.359496 0.087963
H6    H     H_    0.478345 0.186123 0.361113 0.022319
H7    H     H_    0.280397 0.666295 0.649575 0.025747
H8    H     H_    0.129731 0.864810 0.352738 0.113101
H9    H     H_    0.298318 0.803483 0.728212 0.069351
H10   H     H_    0.103529 0.801280 0.761868 0.002299
H11   H     H_    0.926276 0.748053 0.394519 -0.074549
H12   H     H_    0.970043 0.898791 0.410782 0.062877
H13   H     H_    0.145107 0.373207 0.342588 0.041964
H14   H     H_    0.246057 0.215490 0.232694 0.042424
H15   H     H_    0.358896 0.300518 0.271262 0.118909
H16   H     H_    0.925239 0.847649 0.332055 0.165803
H17   H     H_    0.559298 0.283186 0.661794 -0.054385
H18   H     H_    0.512553 0.181152 0.610163 -0.052162
H19   H     H_    0.726679 0.206286 0.719529 0.021604
H20   H     H_    0.254820 0.237544 0.619793 -0.136263
H21   H     H_    0.065788 0.224786 0.581529 0.080318
H22   H     H_    0.990984 0.146066 0.654414 0.092018
H23   H     H_    0.188442 0.152159 0.683957 0.059414
H24   H     H_    0.685246 0.269266 0.891609 0.106106
H25   H     H_    0.987430 0.552805 0.206826 0.092294
H26   H     H_    0.523653 0.698973 0.989802 0.124912
H27   H     H_    0.669022 0.798856 0.380138 -0.115678
H28   H     H_    0.368930 0.457125 0.611380 0.089542
H29   H     H_    0.134298 0.108289 0.412845 0.060798
H30   H     H_    0.088638 0.877890 0.567895 0.121874
H31   H     H_    0.402163 0.313172 0.510272 0.057761
H32   H     H_    0.736804 0.703034 0.531297 0.022394
H33   H     H_    0.750276 0.054318 0.504946 0.130152
H34   H     H_    0.487231 0.936367 0.473276 0.089286
H35   H     H_    0.397352 0.831314 0.297098 0.051511
H36   H     H_    0.489584 0.913358 0.355172 -0.060066
H37   H     H_    0.747930 0.698068 0.627044 -0.093686
N1    N     N_R   0.517032 0.481603 0.844717 -0.399646
N2    N     N_R   0.739337 0.488278 0.144175 -0.447756
O1    O     O_2   0.414630 0.451750 0.353890 -0.446896
O2    O     O_3   0.051502 0.734336 0.653638 -0.706709
O3    O     O_3   0.425489 0.797252 0.401822 -0.656237
O4    O     O_2   0.775060 0.548280 0.646150 -0.406976
O5    O     O_3   0.534950 0.547420 0.574950 -0.514579
O6    O     O_3   0.073530 0.388570 0.588510 -0.485779
O7    O     O_3   0.552862 0.684680 0.678665 -0.604533
O8    O     O_3   0.168220 0.394330 0.455930 -0.474331
O9    O     O_3   0.678190 0.343400 0.553390 -0.490327
O10   O     O_2   0.849915 0.194405 0.495471 -0.465933
O11   O     O_3   0.748691 0.208786 0.605599 -0.628613
O12   O     O_3   0.654720 0.452660 0.425060 -0.493661
O13   O     O_3   0.021450 0.605740 0.544090 -0.484625
O14   O     O_2   0.953100 0.285520 0.441860 -0.458773
O15   O     O_3   0.145282 0.246084 0.341282 -0.707464
O16   O     O_2   0.967580 0.462227 0.704097 -0.323891
O17   O     O_3   0.045925 0.299061 0.672575 -0.589337
O18   O     O_2   0.437142 0.623509 0.884147 -0.563842
O19   O     O_2   0.605928 0.340283 0.812806 -0.591720
O20   O     O_2   0.795417 0.344896 0.108706 -0.536803
O21   O     O_2   0.692241 0.632143 0.172810 -0.481874
O22   O     O_3   0.116150 0.611500 0.411510 -0.492522
O23   O     O_2   0.281168 0.556925 0.306180 -0.434497
O24   O     O_3   0.583549 0.315461 0.331203 -0.648756
O25   O     O_3   0.096900 0.698988 0.322599 -0.572343
O26   O     O_2   0.236590 0.714510 0.558180 -0.429934
O27   O     O_3   0.511480 0.656670 0.446630 -0.476538
O28   O     O_2   0.353174 0.806077 0.511882 -0.455862
P1    P     P_3+3 0.594550 0.425840 0.359090 1.085997
P2    P     P_3+3 0.065650 0.701630 0.573510 0.990293
P3    P     P_3+3 0.495531 0.768461 0.465389 0.994652
P4    P     P_3+3 0.595130 0.574230 0.640920 1.078299
P5    P     P_3+3 0.698907 0.232679 0.538063 0.965726
P6    P     P_3+3 0.111442 0.597906 0.332756 1.055516
P7    P     P_3+3 0.133976 0.286249 0.422357 0.942936
P8    P     P_3+3 0.099935 0.394003 0.664992 1.132362
O29   O     O_3   0.628703 0.818222 0.770901 -0.617360
C57   C     C_3   0.610870 0.908316 0.790285 0.145894
H38   H     H_    0.560686 0.933176 0.753560 0.083075
H39   H     H_    0.726698 0.933311 0.805642 0.020592
H40   H     H_    0.523429 0.932302 0.829953 0.044148
O30   O     O_3   0.691433 0.122262 0.373210 -0.677988
C58   C     C_3   0.842941 0.085516 0.344247 0.204626
H41   H     H_    0.921256 0.134523 0.342869 0.045104
H42   H     H_    0.831260 0.040420 0.297639 0.081763
H43   H     H_    0.903850 0.046886 0.371302 0.055208
Cl1   Cl    Cl    0.596910 0.134809 0.263336 -0.808775
Cl2   Cl    Cl    0.090850 0.612140 0.699903 -0.654195
O31   O     O_3   0.293836 0.721654 0.781181 -0.596425
C59   C     C_3   0.317931 0.784272 0.837799 0.390179
H44   H     H_    0.261647 0.850604 0.842480 -0.109338
H45   H     H_    0.449541 0.785089 0.844168 0.135488
H46   H     H_    0.267335 0.765440 0.876126 0.087942
O32   O     O_3   0.956679 0.318661 0.294784 -0.691286
C60   C     C_3   0.916615 0.245989 0.247775 0.153989
H47   H     H_    0.954456 0.185419 0.257543 0.055342
H48   H     H_    0.965653 0.243113 0.202507 0.096528
H49   H     H_    0.784638 0.252683 0.242982 0.150286
O33   O     O_3   0.187510 0.333944 0.216319 -0.659211
C61   C     C_3   0.253072 0.290926 0.156550 0.175496
H50   H     H_    0.202665 0.229470 0.136232 0.042115
H51   H     H_    0.386913 0.279445 0.156265 0.089250
H52   H     H_    0.219417 0.331285 0.126866 0.065939
O34   O     O_3   0.639758 0.839807 0.280174 -0.623406
C62   C     C_3   0.603915 0.900570 0.249120 0.223424
H53   H     H_    0.580595 0.967018 0.281731 0.082686
H54   H     H_    0.499090 0.885138 0.219270 0.072916
H55   H     H_    0.710319 0.898631 0.219531 0.077728
O35   O     O_3   0.486955 0.180450 0.720944 -0.662348
C63   C     C_3   0.503526 0.152989 0.773248 0.250406
H56   H     H_    0.620114 0.164318 0.796065 0.004573
H57   H     H_    0.486479 0.084256 0.760639 0.003390
H58   H     H_    0.406219 0.189170 0.807307 0.105802
O36   O     O_3   0.690421 0.082987 0.658816 -0.665652
C64   C     C_3   0.802296 0.047341 0.693155 0.166674
H59   H     H_    0.739722 0.011634 0.717822 0.040337
H60   H     H_    0.892699 0.000408 0.660876 0.081365
H61   H     H_    0.870474 0.094172 0.726365 -0.028326
O37   O     O_3   0.165685 0.076293 0.590593 -0.679165
C65   C     C_3   0.293739 0.023424 0.605366 0.151349
H62   H     H_    0.262131 0.003904 0.645871 0.055336
H63   H     H_    0.404880 0.055747 0.612983 0.112527
H64   H     H_    0.319130 0.964690 0.565949 0.117551
Cl3   Cl    Cl    0.569855 0.677719 0.308593 -0.683264
O38   O     O_3   0.753021 0.252080 0.998224 -0.604968
C66   C     C_3   0.611806 0.212897 0.998240 0.240621
H65   H     H_    0.572456 0.184833 0.950505 -0.013713
H66   H     H_    0.511399 0.258118 0.026922 -0.001089
H67   H     H_    0.638654 0.160181 0.018330 0.079261
O39   O     O_3   0.632045 0.720646 0.098423 -0.606013
C67   C     C_3   0.788793 0.740280 0.090011 0.247446
H68   H     H_    0.882344 0.693787 0.100485 0.047210
H69   H     H_    0.801399 0.804574 0.121984 0.062983
H70   H     H_    0.810867 0.742870 0.042696 0.005294
Cl4   Cl    Cl    0.690993 0.590040 0.780738 -0.555247
Cl5   Cl    Cl    0.232999 0.383234 0.801012 -0.633169
O40   O     O_3   0.534712 0.421190 0.221536 -0.633453
C68   C     C_3   0.434468 0.467713 0.190237 0.271460
H71   H     H_    0.447189 0.537262 0.204398 0.094572
H72   H     H_    0.307051 0.462758 0.199882 0.095010
H73   H     H_    0.453471 0.438239 0.140011 -0.025473
O41   O     O_3   0.893826 0.508348 0.387883 -0.650922
C69   C     C_3   0.818033 0.586443 0.427395 0.385891
H74   H     H_    0.732911 0.577599 0.460062 0.088690
H75   H     H_    0.775849 0.635825 0.405236 -0.126256
H76   H     H_    0.900235 0.614800 0.460596 0.050554
Cl6   Cl    Cl    0.534326 0.812151 0.637146 -0.791464

loop_
_geom_bond_atom_site_label_1
_geom_bond_atom_site_label_2
_ccdc_geom_bond_type
C57   H40   S    
C27   P8    S    
O36   C64   S    
C53   O24   S    
Ba2   O12   S    
C23   H35   S    
C61   H50   S    
C55   Cl2   S    
O23   P6    D    
C17   C18   A    
O5    P4    S    
C53   C54   S    
O3    P3    S    
O34   C62   S    
C57   H38   S    
C63   H57   S    
C43   C44   S    
C42   C43   S    
C4    H14   S    
C10   C11   A    
C67   H70   S    
C7    O17   S    
C20   H24   S    
C26   C27   S    
C33   C35   A    
C64   H59   S    
C22   C24   A    
C16   C17   A    
C66   H66   S    
C7    H21   S    
C28   C29   D    
C25   O21   D    
Ba2   O5    S    
C42   P5    S    
C13   C14   A    
C55   O2    S    
C53   H4    S    
Ba2   P4    S    
C34   C45   S    
C67   H69   S    
Ba1   Ba2   S    
Ba1   O22   S    
C1    H16   S    
O38   C66   S    
C51   P2    S    
C17   O39   S    
C45   H2    S    
O26   P2    D    
C38   C41   S    
Ba2   O13   S    
C59   H44   S    
C23   O34   S    
C69   H74   S    
C65   H63   S    
C46   H33   S    
C53   H5    S    
C10   C15   A    
O28   P3    D    
C48   C50   A    
C21   C22   A    
C24   O20   D    
C38   H31   S    
C63   H58   S    
C7    C8    S    
C5    H18   S    
O11   P5    S    
C6    O36   S    
O13   P2    S    
O27   P3    S    
C68   H73   S    
Ba1   O12   S    
O40   C68   S    
O41   C69   S    
C61   H51   S    
O16   P8    D    
O35   C63   S    
C36   N2    S    
C2    H11   S    
C64   H60   S    
C31   C32   A    
O8    P7    S    
C62   H54   S    
C8    O37   S    
Ba2   O14   S    
O31   C59   S    
C11   N1    Am   
C26   C30   D    
C59   H46   S    
C58   H41   S    
C21   O38   S    
C25   N2    Am   
C66   H67   S    
C13   N1    Am   
C54   O30   S    
C8    H22   S    
C14   C15   A    
C5    H17   S    
Ba2   O4    S    
C47   C49   S    
C52   P3    S    
C29   Cl4   S    
Ba2   O9    S    
C15   C19   A    
C67   H68   S    
C33   P1    S    
C66   H65   S    
Ba1   O26   S    
C35   C36   A    
Ba1   O13   S    
C62   H55   S    
O14   P7    D    
O22   P6    S    
C29   C30   S    
C60   H49   S    
O1    P1    D    
O32   C60   S    
C65   H64   S    
C27   C37   S    
C54   H6    S    
C26   Cl5   S    
C2    O25   S    
C48   C49   A    
C1    H12   S    
O15   P7    S    
C58   H43   S    
C31   H25   S    
C39   C51   A    
C11   O18   D    
C6    O35   S    
O12   P1    S    
C5    O11   S    
C56   H10   S    
O37   C65   S    
C30   N1    S    
C60   H48   S    
C32   P6    S    
C61   H52   S    
O7    P4    S    
C45   O29   S    
C40   C44   S    
C6    H19   S    
C57   H39   S    
C1    H8    S    
C40   C41   D    
O10   P5    D    
C47   H34   S    
C1    C2    S    
C28   P4    S    
O25   P6    S    
C63   H56   S    
C12   Cl3   S    
C50   C51   A    
C60   H47   S    
C4    H15   S    
C62   H53   S    
C43   C46   S    
O9    P5    S    
O33   C61   S    
C14   C20   A    
C8    H23   S    
C59   H45   S    
C13   O19   D    
C9    C32   A    
Ba1   P1    S    
Ba1   P2    S    
C12   H27   S    
C55   H7    S    
Ba1   O1    S    
C45   H3    S    
O2    P2    S    
O30   C58   S    
C64   H61   S    
C12   O3    S    
O29   C57   S    
C58   H42   S    
C18   C25   A    
C3    O15   S    
Ba2   O8    S    
C31   C36   A    
C3    O32   S    
C16   H26   S    
C56   O31   S    
C34   O7    S    
C49   C52   A    
C35   O40   S    
C9    C33   A    
O6    P8    S    
Ba1   O27   S    
C23   H36   S    
O24   P1    S    
C3    H13   S    
C34   H37   S    
C55   C56   S    
C3    C4    S    
Ba2   O6    S    
C69   H76   S    
C46   C47   D    
C2    H1    S    
O17   P8    S    
C41   P7    S    
C28   C37   D    
C39   H32   S    
C7    H20   S    
C12   C23   S    
C50   H30   S    
C9    O41   S    
C39   C52   A    
C5    C6    S    
C24   N2    Am   
C68   H71   S    
C54   Cl1   S    
C56   H9    S    
C38   C42   D    
C18   C19   A    
C69   H75   S    
C65   H62   S    
C19   C22   A    
C10   C16   A    
C20   C21   A    
O39   C67   S    
C40   H29   S    
C34   Cl6   S    
C37   H28   S    
Ba1   O5    S    
C4    O33   S    
Ba1   O8    S    
C68   H72   S    
O4    P4    D    
