data_mof_unit_5497.cif
_audit_creation_date              2012-12-10T19:42:55-0500
_audit_creation_method            fapswitch 2.2
_symmetry_space_group_name_H-M    P1
_symmetry_Int_Tables_number       1
_space_group_crystal_system       triclinic
_cell_length_a                    10.899814
_cell_length_b                    13.045955
_cell_length_c                    11.666293
_cell_angle_alpha                 99.587386
_cell_angle_beta                  95.017557
_cell_angle_gamma                 89.326394
_cell_volume                      1629.48346475

loop_
_atom_site_label
_atom_site_type_symbol
_atom_type_description
_atom_site_fract_x
_atom_site_fract_y
_atom_site_fract_z
_atom_type_partial_charge
C1    C     C_R   0.500252 0.299154 0.479106 0.815847
C2    C     C_R   0.497810 0.700726 0.520963 0.828844
C3    C     C_R   0.872327 0.503776 0.503607 -0.096131
C4    C     C_R   0.128188 0.499932 0.496349 -0.096052
C5    C     C_R   0.950215 0.527996 0.608165 0.008217
C6    C     C_R   0.050638 0.473387 0.392039 0.032462
C7    C     C_R   0.495203 0.813831 0.533187 -0.134511
C8    C     C_R   0.499063 0.185926 0.467662 -0.149318
C9    C     C_R   0.440464 0.020030 0.350839 -0.215022
C10   C     C_R   0.547256 0.980062 0.651397 -0.200330
C11   C     C_R   0.453722 0.126750 0.361268 -0.282789
C12   C     C_R   0.539329 0.873088 0.639764 -0.304364
C13   C     C_R   0.538387 0.136286 0.563249 0.406885
C14   C     C_R   0.449629 0.863290 0.439646 0.414004
C15   C     C_R   0.517957 0.029411 0.554704 0.030402
C16   C     C_R   0.468814 0.970697 0.447743 0.002847
C17   C     C_R   0.436304 0.374675 0.019866 -0.325421
C18   C     C_R   0.562992 0.625818 0.979994 -0.349104
C19   C     C_R   0.436274 0.389738 0.142095 0.075462
C20   C     C_R   0.564409 0.610128 0.857844 0.095813
C21   C     C_R   0.518946 0.558809 0.157882 0.007127
C22   C     C_R   0.479589 0.441798 0.842054 0.053750
C23   C     C_R   0.262029 0.498621 0.498688 0.788152
C24   C     C_R   0.738161 0.501453 0.501329 0.789185
C25   C     C_R   0.519553 0.547295 0.034801 0.038747
C26   C     C_R   0.477643 0.453896 0.964978 0.078168
C27   C     C_R   0.136309 0.453325 0.080075 0.581284
C28   C     C_R   0.871113 0.458032 0.893585 0.576666
C29   C     C_R   0.105125 0.495615 0.193734 -0.279446
C30   C     C_R   0.900490 0.451388 0.778271 -0.172658
C31   C     C_R   0.095205 0.431168 0.277598 0.088716
C32   C     C_R   0.907420 0.539899 0.726086 0.089413
C33   C     C_R   0.113348 0.323904 0.247787 -0.157900
C34   C     C_R   0.889045 0.638159 0.791152 -0.146732
C35   C     C_R   0.138249 0.281079 0.134513 -0.261875
C36   C     C_R   0.863110 0.647092 0.907589 -0.230749
C37   C     C_R   0.147641 0.345194 0.051002 -0.105874
C38   C     C_R   0.854211 0.558210 0.959176 -0.166897
C39   C     C_R   0.924017 0.478446 0.397006 -0.248883
C40   C     C_R   0.076677 0.528263 0.602576 -0.232478
Cu1   Cu    Cu3+1 0.509250 0.507730 0.615930 0.946459
Cu2   Cu    Cu3+1 0.490750 0.492270 0.384070 0.942855
H1    H     H_    0.166118 0.310740 0.963203 0.141572
H2    H     H_    0.835738 0.569206 0.049939 0.116279
H3    H     H_    0.444252 0.370989 0.788180 0.152274
H4    H     H_    0.554447 0.629547 0.211777 0.153788
H5    H     H_    0.598403 0.671739 0.817689 0.130824
H6    H     H_    0.404160 0.327444 0.182247 0.137263
H7    H     H_    0.404583 0.301266 0.968822 0.138894
H8    H     H_    0.596503 0.698675 0.031066 0.141790
H9    H     H_    0.084847 0.577252 0.216620 0.133426
H10   H     H_    0.920746 0.376498 0.728684 0.122757
H11   H     H_    0.103999 0.273186 0.311209 0.134658
H12   H     H_    0.897456 0.707486 0.752630 0.128804
H13   H     H_    0.149533 0.197900 0.111080 0.150227
H14   H     H_    0.850363 0.723209 0.958358 0.138346
H15   H     H_    0.865376 0.457430 0.316875 0.155973
H16   H     H_    0.135268 0.547206 0.683348 0.184690
H17   H     H_    0.569982 0.836634 0.714122 0.170248
H18   H     H_    0.425616 0.163235 0.286315 0.169527
H19   H     H_    0.405752 0.976699 0.267132 0.173861
H20   H     H_    0.580315 0.023346 0.735558 0.184801
N1    N     N_R   0.523180 0.519350 0.790130 -0.190145
N2    N     N_R   0.476820 0.480650 0.209870 -0.183688
O1    O     O_R   0.506570 0.354460 0.582000 -0.559849
O2    O     O_R   0.493430 0.645540 0.418000 -0.550371
O3    O     O_R   0.490940 0.341410 0.386200 -0.604287
O4    O     O_R   0.509060 0.658590 0.613800 -0.609762
O5    O     O_R   0.327460 0.506540 0.597900 -0.584644
O6    O     O_R   0.672540 0.493460 0.402100 -0.590886
O7    O     O_R   0.311830 0.493480 0.402100 -0.581025
O8    O     O_R   0.688170 0.506520 0.597900 -0.582780
O9    O     O_3   0.148358 0.511456 0.991698 -0.588862
C41   C     C_3   0.188066 0.614329 0.034651 -0.330433
H21   H     H_    0.264094 0.618064 0.105452 0.178207
H22   H     H_    0.109363 0.663610 0.064297 0.157972
H23   H     H_    0.224164 0.646877 0.962232 0.196212
O10   O     O_3   0.869473 0.364657 0.936911 -0.609904
C42   C     C_3   0.809119 0.371329 0.039769 -0.332739
H24   H     H_    0.716492 0.406355 0.030190 0.171608
H25   H     H_    0.866278 0.414654 0.114963 0.165800
H26   H     H_    0.796483 0.291560 0.058039 0.197777
O11   O     O_3   0.390487 0.805725 0.339710 -0.618370
C43   C     C_3   0.261631 0.823596 0.337508 0.017226
H27   H     H_    0.223098 0.806257 0.245000 0.152737
H28   H     H_    0.237466 0.906035 0.369730 0.139845
C44   C     C_3   0.199622 0.751754 0.406537 -0.342499
H29   H     H_    0.220214 0.670139 0.370194 0.239731
H30   H     H_    0.236448 0.767364 0.499588 0.202070
C45   C     C_3   0.060324 0.767286 0.400047 -0.936683
H31   H     H_    0.037995 0.848117 0.439352 0.258383
H32   H     H_    0.018062 0.712926 0.449152 0.270564
H33   H     H_    0.020238 0.751804 0.307965 0.245481
O12   O     O_3   0.590203 0.191875 0.667717 -0.626953
C46   C     C_3   0.715270 0.214903 0.658103 0.086284
H34   H     H_    0.741709 0.279808 0.729611 0.203739
H35   H     H_    0.729846 0.242741 0.574983 0.107975
C47   C     C_3   0.799627 0.122033 0.673376 -0.378645
H36   H     H_    0.783095 0.094167 0.755645 0.227983
H37   H     H_    0.779053 0.057794 0.599005 0.213972
C48   C     C_3   0.935483 0.150720 0.677964 -0.907789
H38   H     H_    0.953723 0.186445 0.601046 0.248621
H39   H     H_    0.992489 0.079562 0.677620 0.253096
H40   H     H_    0.962933 0.205524 0.759392 0.280259

loop_
_geom_bond_atom_site_label_1
_geom_bond_atom_site_label_2
_ccdc_geom_bond_type
C44   H29   S    
C8    C13   A    
C27   C29   A    
C1    C8    S    
Cu1   Cu2   S    
C23   O5    A    
C46   H34   S    
C43   C44   S    
C46   C47   S    
C24   O6    A    
C24   O8    A    
C48   H38   S    
C41   H22   S    
C9    H19   S    
C17   C26   A    
C35   C37   A    
C9    C16   A    
C43   H28   S    
C2    O4    A    
C10   C15   A    
C15   C16   A    
C39   H15   S    
Cu2   O6    S    
O9    C41   S    
C21   N2    A    
C21   C25   A    
C33   C35   A    
C22   N1    A    
C12   H17   S    
C7    C14   A    
C2    C7    S    
C41   H23   S    
C1    O1    A    
C31   C33   A    
C28   O10   S    
C34   C36   A    
C5    C32   S    
C6    C31   S    
C3    C39   A    
C48   H39   S    
C3    C24   S    
C10   H20   S    
C18   C25   A    
C14   O11   S    
Cu1   O4    S    
C33   H11   S    
C7    C12   A    
C40   H16   S    
C41   H21   S    
C35   H13   S    
C23   O7    A    
C43   H27   S    
C4    C6    A    
C17   H7    S    
C42   H25   S    
C4    C23   S    
O10   C42   S    
Cu1   O1    S    
C2    O2    A    
C25   C26   A    
C32   C34   A    
C37   H1    S    
C38   H2    S    
C36   H14   S    
C45   H32   S    
O11   C43   S    
C28   C38   A    
C19   N2    A    
C9    C11   A    
C10   C12   A    
Cu1   O8    S    
C34   H12   S    
C48   H40   S    
C47   H37   S    
C13   C15   A    
Cu2   O3    S    
C14   C16   A    
C5    C40   A    
Cu1   N1    S    
C11   H18   S    
Cu2   N2    S    
C18   H8    S    
C45   H33   S    
Cu1   O5    S    
C21   H4    S    
C29   H9    S    
C30   H10   S    
C19   H6    S    
C3    C5    A    
C42   H26   S    
C46   H35   S    
C1    O3    A    
C47   C48   S    
C13   O12   S    
C4    C40   A    
C20   N1    A    
C36   C38   A    
C29   C31   A    
C30   C32   A    
C45   H31   S    
C27   C37   A    
C8    C11   A    
C28   C30   A    
Cu2   O7    S    
C17   C19   A    
C18   C20   A    
O12   C46   S    
C20   H5    S    
C42   H24   S    
C22   H3    S    
C47   H36   S    
C22   C26   A    
C44   C45   S    
Cu2   O2    S    
C44   H30   S    
C6    C39   A    
C27   O9    S    
