data_mof_unit_20388.cif
_audit_creation_date              2012-12-10T16:48:45-0500
_audit_creation_method            fapswitch 2.2
_symmetry_space_group_name_H-M    P1
_symmetry_Int_Tables_number       1
_space_group_crystal_system       triclinic
_cell_length_a                    7.826856
_cell_length_b                    8.634136
_cell_length_c                    10.580012
_cell_angle_alpha                 89.175292
_cell_angle_beta                  98.712755
_cell_angle_gamma                 92.731143
_cell_volume                      705.905420822

loop_
_atom_site_label
_atom_site_type_symbol
_atom_type_description
_atom_site_fract_x
_atom_site_fract_y
_atom_site_fract_z
_atom_type_partial_charge
C1    C     C_R   0.543681 0.793997 0.497049 0.875339
C2    C     C_2   0.432547 0.043961 0.504080 0.313873
C3    C     C_2   0.977849 0.401454 0.350699 0.782564
C4    C     C_2   0.021692 0.599347 0.648895 0.815641
C5    C     C_R   0.456350 0.206015 0.503038 0.885637
C6    C     C_R   0.572875 0.502341 0.736729 0.825364
C7    C     C_R   0.430038 0.515108 0.263323 0.827582
C8    C     C_2   0.616136 0.529121 0.872966 0.345022
C9    C     C_2   0.397072 0.549116 0.127507 0.345131
C10   C     C_2   0.508803 0.609660 0.932102 0.467721
C11   C     C_2   0.527675 0.607634 0.069481 0.467825
C12   C     C_2   0.567518 0.956030 0.496111 0.315547
F1    F     F_    0.685953 0.649918 0.135656 -0.619016
F2    F     F_    0.369444 0.680036 0.866817 -0.615223
F3    F     F_    0.237798 0.513716 0.060301 -0.591645
F4    F     F_    0.758960 0.465490 0.939357 -0.592328
F5    F     F_    0.730540 0.014449 0.487495 -0.562310
F6    F     F_    0.269542 0.985531 0.512747 -0.559278
H1    H     H_    0.992322 0.480521 0.272030 0.107099
H2    H     H_    0.008749 0.521012 0.728312 0.077607
N1    N     N_2   0.940600 0.458860 0.467170 -0.198272
N2    N     N_2   0.059400 0.541140 0.532830 -0.201690
O1    O     O_R   0.391630 0.738350 0.508060 -0.563652
O2    O     O_2   0.014391 0.738745 0.662792 -0.453802
O3    O     O_R   0.608370 0.261650 0.491940 -0.568172
O4    O     O_R   0.674540 0.711990 0.487010 -0.564097
O5    O     O_R   0.325460 0.288010 0.512990 -0.569695
O6    O     O_R   0.411370 0.508250 0.688780 -0.602730
O7    O     O_R   0.588630 0.491750 0.311220 -0.600825
O8    O     O_R   0.694270 0.481880 0.667740 -0.639554
O9    O     O_R   0.305730 0.518120 0.332260 -0.637030
O10   O     O_2   0.982788 0.262062 0.335537 -0.474921
Zn1   Zn    Zn3+2 0.311100 0.517600 0.514050 1.081741
Zn2   Zn    Zn3+2 0.688900 0.482400 0.485950 1.080546

loop_
_geom_bond_atom_site_label_1
_geom_bond_atom_site_label_2
_ccdc_geom_bond_type
C12   F5    S    
O9    Zn1   S    
C3    H1    S    
C7    O7    A    
C2    F6    S    
C11   F1    S    
O3    Zn2   S    
C2    C12   D    
C9    F3    S    
C8    F4    S    
N1    N2    D    
O5    Zn1   S    
C9    C11   D    
C1    O4    A    
C1    C12   S    
C5    O3    A    
C6    O8    A    
O6    Zn1   S    
C1    O1    A    
C3    O10   D    
C4    O2    D    
C3    N1    S    
C2    C5    S    
C7    O9    A    
C10   C11   S    
O8    Zn2   S    
C4    H2    S    
C4    N2    S    
C8    C10   D    
C10   F2    S    
C7    C9    S    
N2    Zn1   S    
C6    C8    S    
N1    Zn2   S    
C5    O5    A    
O7    Zn2   S    
O4    Zn2   S    
C6    O6    A    
O1    Zn1   S    
