data_mof_unit_14548.cif
_audit_creation_date              2012-10-26T21:02:41-0400
_audit_creation_method            fapswitch 2.2
_symmetry_space_group_name_H-M    P1
_symmetry_Int_Tables_number       1
_space_group_crystal_system       triclinic
_cell_length_a                    12.318444
_cell_length_b                    13.093727
_cell_length_c                    15.047054
_cell_angle_alpha                 77.824122
_cell_angle_beta                  100.705557
_cell_angle_gamma                 116.209142
_cell_volume                      2116.59517205

loop_
_atom_site_label
_atom_site_type_symbol
_atom_type_description
_atom_site_fract_x
_atom_site_fract_y
_atom_site_fract_z
_atom_type_partial_charge
C1    C     C_R   0.855062 0.286148 0.509930 0.514402
C2    C     C_R   0.970309 0.396043 0.826159 -0.023216
C3    C     C_R   0.996561 0.501249 0.766502 0.020396
C4    C     C_R   0.000856 0.503082 0.670245 0.540559
C5    C     C_R   0.020585 0.604382 0.798571 -0.027441
C6    C     C_R   0.278755 0.034056 0.395071 -0.110160
C7    C     C_R   0.227148 0.837770 0.469910 0.000567
C8    C     C_R   0.811523 0.089163 0.588380 -0.157358
C9    C     C_R   0.727413 0.985648 0.628328 -0.124451
C10   C     C_R   0.602333 0.953648 0.605330 0.008908
C11   C     C_R   0.560973 0.017486 0.527822 0.047011
C12   C     C_R   0.022517 0.595819 0.081591 0.011606
C13   C     C_R   0.648612 0.123787 0.487660 0.013513
C14   C     C_R   0.436937 0.983018 0.489391 0.019033
C15   C     C_R   0.401268 0.062328 0.426246 0.033616
C16   C     C_R   0.144886 0.714214 0.485236 0.540587
C17   C     C_R   0.488869 0.165338 0.388413 -0.137372
C18   C     C_R   0.610670 0.190799 0.413331 -0.119136
C19   C     C_R   0.349813 0.869389 0.503960 -0.159529
C20   C     C_R   0.190080 0.922876 0.417617 -0.016086
C21   C     C_R   0.772335 0.163048 0.524014 -0.013751
C22   C     C_R   0.346447 0.327889 0.645988 -0.149201
C23   C     C_R   0.956973 0.291345 0.075632 -0.139112
C24   C     C_R   0.757659 0.643027 0.374198 0.045406
C25   C     C_R   0.660971 0.674484 0.347291 -0.161092
C26   C     C_R   0.558550 0.621015 0.394979 -0.133900
C27   C     C_R   0.551370 0.534464 0.470468 -0.005209
C28   C     C_R   0.999371 0.497587 0.329769 0.543118
C29   C     C_R   0.653418 0.505726 0.495946 0.180184
C30   C     C_R   0.447114 0.475173 0.521277 -0.013393
C31   C     C_R   0.446864 0.388026 0.595472 0.036349
C32   C     C_R   0.546883 0.361429 0.619162 -0.170905
C33   C     C_R   0.647951 0.419391 0.571013 -0.092211
C34   C     C_R   0.955715 0.293446 0.983017 -0.136646
C35   C     C_R   0.342148 0.497960 0.502025 0.041978
C36   C     C_R   0.246475 0.354507 0.623564 0.043280
C37   C     C_R   0.020557 0.593611 0.173849 -0.148816
C38   C     C_R   0.998085 0.492098 0.234553 0.015086
C39   C     C_R   0.975481 0.388788 0.204164 -0.014296
C40   C     C_R   0.977635 0.390711 0.110052 0.032903
C41   C     C_R   0.000384 0.494576 0.048586 0.046274
C42   C     C_3   0.521830 0.864902 0.674876 -0.416783
C43   C     C_3   0.944983 0.276869 0.269978 -0.396275
C44   C     C_3   0.932457 0.283740 0.789457 -0.399132
C45   C     C_R   0.975325 0.395077 0.920649 0.026378
C46   C     C_3   0.043764 0.716435 0.732185 -0.255173
C47   C     C_3   0.180235 0.794133 0.731252 -0.308294
C48   C     C_3   0.201792 0.914209 0.679998 -0.454916
C49   C     C_3   0.060399 0.896915 0.378489 -0.387707
C50   C     C_R   0.999955 0.497313 0.953950 0.031307
C51   C     C_R   0.022876 0.602064 0.893376 0.021893
C52   C     C_R   0.047962 0.702229 0.929708 -0.136702
C53   C     C_R   0.046899 0.698676 0.022198 -0.138838
Cu1   Cu    Cu3+1 0.098270 0.475420 0.521130 0.914059
Cu2   Cu    Cu3+1 0.901730 0.524580 0.478870 0.896070
H1    H     H_    0.037746 0.671751 0.199163 0.099323
H2    H     H_    0.345412 0.260819 0.702570 0.087720
H3    H     H_    0.334419 0.562708 0.447003 0.121517
H4    H     H_    0.835709 0.683707 0.335912 0.120311
H5    H     H_    0.486293 0.648535 0.370921 0.101107
H6    H     H_    0.665203 0.740189 0.288967 0.099773
H7    H     H_    0.719722 0.392954 0.595288 0.186895
H8    H     H_    0.941188 0.210349 0.119548 0.108821
H9    H     H_    0.939420 0.213719 0.961481 0.109912
H10   H     H_    0.069326 0.785244 0.888123 0.111699
H11   H     H_    0.065501 0.777140 0.047392 0.103802
H12   H     H_    0.463359 0.223099 0.335035 0.109951
H13   H     H_    0.437888 0.876181 0.674649 0.129833
H14   H     H_    0.500456 0.776788 0.663078 0.134100
H15   H     H_    0.568813 0.875114 0.745173 0.125824
H16   H     H_    0.855107 0.211404 0.246145 0.115179
H17   H     H_    0.016001 0.245222 0.273626 0.126272
H18   H     H_    0.938276 0.284370 0.340376 0.155063
H19   H     H_    0.917701 0.290895 0.714037 0.148894
H20   H     H_    0.003042 0.250231 0.813544 0.118849
H21   H     H_    0.844154 0.219354 0.813573 0.117585
H22   H     H_    0.154469 0.908855 0.609637 0.167821
H23   H     H_    0.253060 0.097726 0.349467 0.105442
H24   H     H_    0.167362 0.957473 0.716561 0.141733
H25   H     H_    0.300659 0.967042 0.675753 0.148532
H26   H     H_    0.226046 0.802307 0.801970 0.165825
H27   H     H_    0.222017 0.754887 0.697144 0.167800
H28   H     H_    0.005458 0.701972 0.661191 0.179811
H29   H     H_    0.994014 0.761596 0.749111 0.129517
H30   H     H_    0.000716 0.864523 0.434408 0.153134
H31   H     H_    0.050334 0.974639 0.338893 0.106004
H32   H     H_    0.030217 0.832757 0.331134 0.132202
H33   H     H_    0.378379 0.802643 0.536768 0.140298
H34   H     H_    0.906423 0.116578 0.615276 0.120744
H35   H     H_    0.760053 0.935652 0.684377 0.112660
H36   H     H_    0.674748 0.264748 0.373910 0.148482
H37   H     H_    0.168623 0.308438 0.662254 0.116816
H38   H     H_    0.547382 0.295053 0.676022 0.109384
N1    N     N_R   0.246280 0.438190 0.553160 -0.232385
N2    N     N_R   0.754320 0.561190 0.447410 -0.235465
O1    O     O_R   0.972510 0.318130 0.526570 -0.509688
O2    O     O_R   0.806530 0.359650 0.490890 -0.520907
O3    O     O_R   0.082980 0.479210 0.647590 -0.495151
O4    O     O_R   0.917000 0.520730 0.611900 -0.532026
O5    O     O_R   0.193470 0.640350 0.509110 -0.511172
O6    O     O_R   0.027490 0.681870 0.473430 -0.510056
O7    O     O_R   0.083000 0.479270 0.388100 -0.499949
O8    O     O_R   0.917020 0.520790 0.352410 -0.509218

loop_
_geom_bond_atom_site_label_1
_geom_bond_atom_site_label_2
_ccdc_geom_bond_type
C43   H18   S    
C1    C21   S    
C43   H17   S    
C4    O3    A    
C10   C42   S    
C49   H32   S    
C22   H2    S    
C26   C27   A    
C20   C49   S    
C30   C35   A    
C35   H3    S    
C18   H36   S    
C48   H24   S    
C37   C38   A    
C33   H7    S    
C24   H4    S    
C30   C31   A    
C11   C14   A    
C6    H23   S    
C27   C29   A    
C23   C40   A    
Cu2   O8    S    
C42   H15   S    
C47   H27   S    
C12   C37   A    
C44   H21   S    
C6    C15   A    
C46   C47   S    
C37   H1    S    
C31   C32   A    
C29   C33   A    
C2    C44   S    
C8    C9    A    
C9    C10   A    
Cu1   O1    S    
C12   C53   A    
C36   H37   S    
C23   H8    S    
C32   H38   S    
C27   C30   A    
C42   H13   S    
Cu1   O5    S    
C49   H31   S    
C50   C51   A    
C2    C45   A    
C17   H12   S    
C22   C31   A    
C51   C52   A    
C49   H30   S    
C24   C25   A    
Cu2   N2    S    
C19   H33   S    
C24   N2    A    
C1    O2    A    
C39   C40   A    
C29   N2    A    
C16   O5    A    
C39   C43   S    
C25   C26   A    
C42   H14   S    
C48   H22   S    
C44   H20   S    
C12   C41   A    
C36   N1    A    
C47   C48   S    
C28   C38   S    
C23   C34   A    
Cu2   O2    S    
C34   H9    S    
C17   C18   A    
C13   C21   A    
C34   C45   A    
C25   H6    S    
C44   H19   S    
C53   H11   S    
C46   H29   S    
C13   C18   A    
C7    C16   S    
C7    C19   A    
C3    C4    S    
C41   C50   A    
C6    C20   A    
C52   C53   A    
C35   N1    A    
C15   C17   A    
Cu1   Cu2   S    
C40   C41   A    
C43   H16   S    
C14   C19   A    
Cu1   O7    S    
Cu1   O3    S    
C3    C5    A    
C8    C21   A    
C9    H35   S    
C22   C36   A    
C5    C46   S    
Cu2   O6    S    
C32   C33   A    
C48   H25   S    
C2    C3    A    
C11   C13   A    
C28   O8    A    
C38   C39   A    
C45   C50   A    
C1    O1    A    
C47   H26   S    
Cu1   N1    S    
C10   C11   A    
C46   H28   S    
C28   O7    A    
C16   O6    A    
C7    C20   A    
C4    O4    A    
Cu2   O4    S    
C14   C15   A    
C5    C51   A    
C8    H34   S    
C26   H5    S    
C52   H10   S    
