data_mof_unit_56428.cif
_audit_creation_date              2012-12-10T17:35:00-0500
_audit_creation_method            fapswitch 2.2
_symmetry_space_group_name_H-M    P1
_symmetry_Int_Tables_number       1
_space_group_crystal_system       triclinic
_cell_length_a                    12.347229
_cell_length_b                    13.112109
_cell_length_c                    13.852363
_cell_angle_alpha                 105.756002
_cell_angle_beta                  74.10616
_cell_angle_gamma                 116.672287
_cell_volume                      1898.38010419

loop_
_atom_site_label
_atom_site_type_symbol
_atom_type_description
_atom_site_fract_x
_atom_site_fract_y
_atom_site_fract_z
_atom_type_partial_charge
C1    C     C_R   0.144204 0.713811 0.503653 0.786620
C2    C     C_1   0.970195 0.499735 0.790959 -0.166203
C3    C     C_R   0.737341 0.971425 0.365003 -0.212454
C4    C     C_R   0.775649 0.162947 0.463938 -0.068895
C5    C     C_R   0.177825 0.925140 0.524640 -0.017154
C6    C     C_R   0.258119 0.041329 0.554418 0.487876
C7    C     C_R   0.384103 0.070313 0.540846 -0.259856
C8    C     C_R   0.435041 0.988208 0.491446 0.017267
C9    C     C_R   0.354195 0.872215 0.462080 0.062244
C10   C     C_R   0.564313 0.019208 0.465322 0.124208
C11   C     C_R   0.610351 0.938707 0.398666 0.163978
C12   C     C_R   0.983219 0.502635 0.686225 0.810792
C13   C     C_R   0.529145 0.827982 0.362855 -0.245354
C14   C     C_R   0.403249 0.795334 0.393526 -0.153819
C15   C     C_R   0.649620 0.129214 0.500725 -0.253286
C16   C     C_R   0.819862 0.083169 0.397301 -0.173346
C17   C     C_R   0.225562 0.837954 0.495979 -0.203333
C18   C     C_R   0.658819 0.696920 0.649394 -0.008901
C19   C     C_R   0.248166 0.345851 0.367695 0.011349
C20   C     C_R   0.341972 0.306778 0.343914 0.439690
C21   C     C_R   0.442443 0.366270 0.394715 -0.241648
C22   C     C_R   0.448878 0.463659 0.472075 -0.037487
C23   C     C_R   0.856296 0.285804 0.485151 0.807502
C24   C     C_R   0.347894 0.496230 0.496453 0.236152
C25   C     C_R   0.550632 0.528574 0.526476 -0.034597
C26   C     C_R   0.549358 0.624895 0.605926 0.094284
C27   C     C_R   0.438522 0.642862 0.639432 0.030762
C28   C     C_R   0.346245 0.584832 0.579564 -0.161017
C29   C     C_R   0.654620 0.501109 0.504622 0.027551
C30   C     C_R   0.751932 0.657270 0.628375 0.032395
C31   C     C_R   0.015738 0.495925 0.313623 0.803977
C32   C     C_1   0.025186 0.494225 0.208434 -0.157182
C33   C     C_2   0.041034 0.491493 0.014500 -0.151833
C34   C     C_2   0.949739 0.495460 0.984091 -0.154757
C35   C     C_1   0.959511 0.497344 0.879152 0.022562
C36   C     C_1   0.033065 0.492815 0.119847 0.024230
Cu1   Cu    Cu3+1 0.899780 0.525060 0.522890 0.940383
Cu2   Cu    Cu3+1 0.100220 0.474940 0.477110 0.931263
H1    H     H_    0.868302 0.498926 0.037912 0.166457
H2    H     H_    0.345286 0.711600 0.356852 0.175091
H3    H     H_    0.832215 0.705380 0.664475 0.128818
H4    H     H_    0.663380 0.430804 0.445994 0.136197
H5    H     H_    0.170186 0.300411 0.328688 0.178758
H6    H     H_    0.512509 0.332777 0.373194 0.169053
H7    H     H_    0.270690 0.608337 0.602232 0.207930
H8    H     H_    0.122660 0.488472 0.960700 0.174772
H9    H     H_    0.917270 0.108394 0.367059 0.187858
H10   H     H_    0.562982 0.766735 0.309502 0.148967
H11   H     H_    0.772274 0.911689 0.310537 0.147934
H12   H     H_    0.620821 0.191336 0.556861 0.157601
H13   H     H_    0.441239 0.160337 0.561944 0.182176
N1    N     N_R   0.748810 0.563010 0.557590 -0.195655
N2    N     N_R   0.250540 0.437620 0.443020 -0.242829
O1    O     O_R   0.025040 0.682470 0.528790 -0.581072
O2    O     O_R   0.194310 0.640150 0.490130 -0.607038
O3    O     O_R   0.903380 0.524130 0.659910 -0.562398
O4    O     O_R   0.072660 0.481800 0.621240 -0.592672
O5    O     O_R   0.805690 0.359850 0.509870 -0.576550
O6    O     O_R   0.974960 0.317530 0.471210 -0.582094
O7    O     O_R   0.927340 0.518200 0.378760 -0.575309
O8    O     O_R   0.096620 0.475870 0.340090 -0.579341
C37   C     C_3   0.411669 0.712857 0.744143 -0.404021
C38   C     C_3   0.275335 0.683521 0.791946 -0.378218
C39   C     C_3   0.261770 0.744972 0.902540 -0.806082
H14   H     H_    0.296519 0.713864 0.949754 0.253096
H15   H     H_    0.313747 0.840172 0.907110 0.266948
H16   H     H_    0.163216 0.726662 0.933855 0.251279
H17   H     H_    0.232755 0.712575 0.749641 0.212744
H18   H     H_    0.225637 0.588481 0.789829 0.244544
H19   H     H_    0.449691 0.694049 0.798009 0.218796
H20   H     H_    0.455647 0.806427 0.739794 0.213879
C40   C     C_3   0.691544 0.821588 0.705954 -0.432385
C41   C     C_3   0.700360 0.901908 0.638841 -0.346330
C42   C     C_3   0.723155 0.023652 0.699308 -0.782139
H21   H     H_    0.644708 0.021520 0.762731 0.251498
H22   H     H_    0.809367 0.060461 0.730753 0.279322
H23   H     H_    0.732709 0.080879 0.648788 0.244518
H24   H     H_    0.778174 0.907447 0.574423 0.229178
H25   H     H_    0.615347 0.867937 0.606408 0.226542
H26   H     H_    0.630743 0.828430 0.780087 0.201847
H27   H     H_    0.783502 0.857378 0.728186 0.202216
S1    S     S_3+6 0.331470 0.180268 0.253723 -0.004222
O9    O     O_2   0.415991 0.213898 0.155855 -0.284076
O10   O     O_2   0.370097 0.107632 0.292976 -0.295687
O11   O     O_3   0.186058 0.103590 0.232399 -0.560490
H28   H     H_    0.186553 0.031141 0.186552 0.370776
C43   C     C_3   0.048741 0.897164 0.509874 -0.315489
C44   C     C_3   0.034048 0.844795 0.397946 -0.305691
C45   C     C_3   0.902696 0.806463 0.383595 -0.859302
H29   H     H_    0.837737 0.738128 0.429282 0.267398
H30   H     H_    0.877683 0.881802 0.407787 0.250757
H31   H     H_    0.895581 0.771445 0.301988 0.245147
H32   H     H_    0.097245 0.910941 0.349328 0.257650
H33   H     H_    0.058354 0.768716 0.370653 0.220599
H34   H     H_    0.977722 0.840958 0.563089 0.201652
H35   H     H_    0.028029 0.974581 0.528613 0.253217
S2    S     S_3+6 0.204539 0.152986 0.612243 -0.024354
O12   O     O_2   0.098350 0.112074 0.697299 -0.321721
O13   O     O_2   0.304836 0.261344 0.654549 -0.292224
O14   O     O_3   0.156634 0.183346 0.525211 -0.551183
H36   H     H_    0.117226 0.236984 0.564408 0.379389

loop_
_geom_bond_atom_site_label_1
_geom_bond_atom_site_label_2
_ccdc_geom_bond_type
C2    C35   T    
C23   O5    A    
C43   C44   S    
C20   S1    S    
C29   H4    S    
C41   C42   S    
C31   O8    A    
C19   C20   A    
C18   C26   A    
C9    C14   A    
C2    C12   S    
S2    O12   D    
C3    H11   S    
C7    C8    A    
O11   H28   S    
C23   O6    A    
C26   C27   A    
Cu1   Cu2   S    
C42   H22   S    
C32   C36   T    
C10   C15   A    
C5    C6    A    
C5    C17   A    
C21   H6    S    
C33   C36   S    
C37   H19   S    
C34   C35   S    
C15   H12   S    
C38   H17   S    
Cu1   O3    S    
Cu2   O2    S    
C38   H18   S    
C8    C9    A    
C22   C25   A    
C43   H34   S    
C41   H24   S    
C30   H3    S    
C18   C30   A    
C45   H30   S    
Cu1   O5    S    
Cu2   O8    S    
C19   N2    A    
C21   C22   A    
C18   C40   S    
C33   H8    S    
C16   H9    S    
S2    O13   D    
C19   H5    S    
C25   C29   A    
C44   H33   S    
C28   H7    S    
C42   H21   S    
C34   H1    S    
C39   H16   S    
C24   C28   A    
C4    C23   S    
C25   C26   A    
C42   H23   S    
Cu2   O6    S    
C39   H15   S    
C31   O7    A    
C4    C16   A    
C1    O1    A    
C6    S2    S    
C37   C38   S    
C27   C37   S    
Cu2   O4    S    
C31   C32   S    
C43   H35   S    
C33   C34   D    
C41   H25   S    
C20   C21   A    
C45   H31   S    
C12   O3    A    
Cu1   O1    S    
C9    C17   A    
S1    O10   D    
C22   C24   A    
C12   O4    A    
S2    O14   S    
Cu1   N1    S    
C30   N1    A    
C44   H32   S    
C40   H27   S    
C40   C41   S    
C13   H10   S    
C6    C7    A    
S1    O11   S    
C1    C17   S    
C39   H14   S    
C4    C15   A    
C24   N2    A    
C7    H13   S    
C40   H26   S    
C11   C13   A    
Cu2   N2    S    
O14   H36   S    
C37   H20   S    
C1    O2    A    
Cu1   O7    S    
C3    C11   A    
C10   C11   A    
C14   H2    S    
C38   C39   S    
C5    C43   S    
C44   C45   S    
C8    C10   A    
S1    O9    D    
C27   C28   A    
C45   H29   S    
C13   C14   A    
C3    C16   A    
C29   N1    A    
