data_mof_unit_45220.cif
_audit_creation_date              2012-12-11T14:24:56-0500
_audit_creation_method            fapswitch 2.2
_symmetry_space_group_name_H-M    P1
_symmetry_Int_Tables_number       1
_space_group_crystal_system       triclinic
_cell_length_a                    19.013501
_cell_length_b                    11.253444
_cell_length_c                    18.669334
_cell_angle_alpha                 90.26812
_cell_angle_beta                  92.496556
_cell_angle_gamma                 91.106926
_cell_volume                      3990.03103264

loop_
_atom_site_label
_atom_site_type_symbol
_atom_type_description
_atom_site_fract_x
_atom_site_fract_y
_atom_site_fract_z
_atom_type_partial_charge
C1    C     C_R   0.731207 0.376182 0.147344 0.599852
C2    C     C_R   0.254905 0.917090 0.077339 0.016578
C3    C     C_R   0.708582 0.628336 0.385265 0.267535
C4    C     C_R   0.892076 0.136950 0.587384 -0.072253
C5    C     C_R   0.145187 0.178495 0.400258 -0.050077
C6    C     C_R   0.392076 0.636948 0.587384 -0.072251
C7    C     C_R   0.645186 0.678495 0.400257 -0.050060
C8    C     C_R   0.911472 0.100113 0.519828 -0.137242
C9    C     C_R   0.118306 0.160547 0.467249 -0.136640
C10   C     C_R   0.411472 0.600113 0.519828 -0.137240
C11   C     C_R   0.618307 0.660549 0.467249 -0.136637
C12   C     C_R   0.860664 0.061568 0.468365 -0.107588
C13   C     C_R   0.258211 0.400930 0.928663 0.014129
C14   C     C_R   0.158837 0.110580 0.523277 -0.083614
C15   C     C_R   0.360665 0.561567 0.468365 -0.107588
C16   C     C_R   0.658839 0.610584 0.523277 -0.083618
C17   C     C_R   0.735437 0.995177 0.441748 0.002061
C18   C     C_R   0.265163 0.992258 0.558912 0.012270
C19   C     C_R   0.235437 0.495176 0.441748 0.002058
C20   C     C_R   0.765165 0.492262 0.558912 0.012268
C21   C     C_R   0.733755 0.381892 0.351614 0.604279
C22   C     C_R   0.265951 0.385910 0.649761 0.591285
C23   C     C_R   0.233755 0.881892 0.351614 0.604306
C24   C     C_R   0.754845 0.417074 0.077311 0.016465
C25   C     C_R   0.765951 0.885911 0.649761 0.591281
C26   C     C_R   0.533094 0.157781 0.353620 0.606920
C27   C     C_R   0.469368 0.158039 0.648361 0.594319
C28   C     C_R   0.033094 0.657781 0.353620 0.606919
C29   C     C_R   0.969368 0.658039 0.648362 0.594325
C30   C     C_R   0.730406 0.019499 0.364544 0.563997
C31   C     C_R   0.270050 0.019236 0.635921 0.561165
C32   C     C_R   0.230406 0.519499 0.364544 0.564000
C33   C     C_R   0.770051 0.519239 0.635922 0.561159
C34   C     C_3   0.521957 0.270851 0.976084 -0.058725
C35   C     C_R   0.691822 0.875211 0.957310 -0.032692
C36   C     C_3   0.465819 0.245680 0.032601 -0.060078
C37   C     C_3   0.022066 0.770780 0.976073 -0.058893
C38   C     C_3   0.965919 0.745829 0.032616 -0.060049
C39   C     C_3   0.571500 0.182947 0.014318 -0.140619
C40   C     C_3   0.434227 0.142501 0.985934 -0.089585
C41   C     C_3   0.071514 0.682702 0.014297 -0.140610
C42   C     C_3   0.934172 0.642734 0.985970 -0.089486
C43   C     C_3   0.514669 0.157804 0.068698 0.033621
C44   C     C_3   0.490754 0.166878 0.930801 0.053704
C45   C     C_3   0.014668 0.657782 0.068702 0.033615
C46   C     C_R   0.301200 0.848524 0.036309 -0.026186
C47   C     C_3   0.990712 0.666887 0.930816 0.053788
C48   C     C_R   0.191805 0.375213 0.957304 -0.032729
C49   C     C_R   0.801189 0.348559 0.036301 -0.026204
C50   C     C_R   0.685069 0.882841 0.032499 0.034075
C51   C     C_R   0.295250 0.853949 0.960393 -0.008462
C52   C     C_R   0.185048 0.382881 0.032491 0.034168
C53   C     C_R   0.271620 0.373279 0.854432 0.581500
C54   C     C_R   0.795252 0.353939 0.960382 -0.008405
C55   C     C_R   0.809841 0.934953 0.047492 -0.115298
C56   C     C_R   0.215180 0.018026 0.970321 -0.130436
C57   C     C_R   0.309818 0.435014 0.047480 -0.115256
C58   C     C_R   0.715019 0.517785 0.970246 -0.130356
C59   C     C_R   0.817137 0.926986 0.975374 0.191899
C60   C     C_R   0.217336 0.007826 0.043840 0.205306
C61   C     C_R   0.317112 0.427039 0.975365 0.191921
C62   C     C_R   0.717155 0.507642 0.043758 0.205318
C63   C     C_R   0.632123 0.839454 0.913290 -0.110653
C64   C     C_R   0.231214 0.876175 0.147347 0.599956
C65   C     C_R   0.353746 0.775566 0.067831 -0.098456
C66   C     C_R   0.132118 0.339367 0.913293 -0.110713
C67   C     C_R   0.853744 0.275638 0.067844 -0.098461
C68   C     C_R   0.070883 0.298104 0.942839 -0.117134
C69   C     C_R   0.893980 0.204023 0.025829 -0.125583
C70   C     C_R   0.570877 0.798242 0.942824 -0.117026
C71   C     C_R   0.393991 0.704002 0.025792 -0.125601
C72   C     C_R   0.565128 0.803137 0.016106 -0.094827
C73   C     C_R   0.387053 0.710020 0.951687 -0.083677
C74   C     C_R   0.065118 0.303096 0.016116 -0.095025
C75   C     C_R   0.771626 0.873271 0.854436 0.581468
C76   C     C_R   0.887067 0.210018 0.951723 -0.083722
C77   C     C_R   0.619303 0.849361 0.060070 -0.018305
C78   C     C_R   0.334904 0.776702 0.919411 -0.073656
C79   C     C_R   0.119282 0.349387 0.060067 -0.018346
C80   C     C_R   0.834940 0.276713 0.919421 -0.073648
C81   C     C_R   0.533934 0.153754 0.144192 0.558340
C82   C     C_R   0.468109 0.156575 0.855226 0.556534
C83   C     C_R   0.033930 0.653750 0.144195 0.558292
C84   C     C_R   0.968096 0.656577 0.855233 0.556528
C85   C     C_R   0.744829 0.920206 0.076717 -0.002699
C86   C     C_3   0.483980 0.054169 0.023353 -0.113127
C87   C     C_R   0.252310 0.940041 0.927524 -0.048434
C88   C     C_R   0.244810 0.420255 0.076706 -0.002495
C89   C     C_R   0.752266 0.439934 0.927487 -0.048415
C90   C     C_R   0.504775 0.166362 0.578715 0.014996
C91   C     C_R   0.504183 0.168644 0.426680 0.003535
C92   C     C_R   0.004776 0.666362 0.578716 0.014996
C93   C     C_R   0.004184 0.668644 0.426681 0.003534
C94   C     C_R   0.509868 0.060677 0.538890 -0.046495
C95   C     C_R   0.491681 0.062796 0.464748 -0.056181
C96   C     C_R   0.009870 0.560677 0.538891 -0.046495
C97   C     C_3   0.540259 0.079998 0.967795 -0.130318
C98   C     C_R   0.991683 0.562795 0.464749 -0.056177
C99   C     C_R   0.512107 0.276635 0.466728 0.222566
C100  C     C_R   0.510445 0.275252 0.542305 0.234110
C101  C     C_R   0.012107 0.776635 0.466728 0.222568
C102  C     C_R   0.010445 0.775253 0.542305 0.234111
C103  C     C_R   0.525493 0.950705 0.571567 0.261911
C104  C     C_R   0.466035 0.956508 0.431345 0.263106
C105  C     C_R   0.025496 0.450706 0.571568 0.261908
C106  C     C_R   0.966037 0.456507 0.431347 0.263109
C107  C     C_R   0.005261 0.347007 0.536209 -0.175235
C108  C     C_3   0.983827 0.554227 0.023380 -0.113209
C109  C     C_R   0.973907 0.349809 0.467183 -0.167457
C110  C     C_R   0.505258 0.847006 0.536206 -0.175234
C111  C     C_R   0.473905 0.849809 0.467181 -0.167457
C112  C     C_R   0.736970 0.954055 0.588758 0.077254
C113  C     C_R   0.266327 0.942084 0.413602 0.087551
C114  C     C_R   0.236970 0.454054 0.588758 0.077256
C115  C     C_R   0.766327 0.442086 0.413602 0.087560
C116  C     C_R   0.778366 0.046961 0.561776 0.051323
C117  C     C_R   0.238667 0.048944 0.435606 0.044788
C118  C     C_R   0.278366 0.546961 0.561775 0.051324
C119  C     C_3   0.040119 0.579839 0.967802 -0.130303
C120  C     C_R   0.738668 0.548945 0.435605 0.044808
C121  C     C_R   0.790880 0.040290 0.488244 -0.033929
C122  C     C_R   0.222529 0.056224 0.508307 -0.022393
C123  C     C_R   0.290880 0.540289 0.488243 -0.033931
C124  C     C_R   0.722531 0.556228 0.508306 -0.022394
C125  C     C_R   0.678759 0.935631 0.472443 -0.157787
C126  C     C_R   0.310684 0.906660 0.533201 -0.137758
C127  C     C_R   0.178759 0.435631 0.472442 -0.157788
C128  C     C_R   0.810686 0.406663 0.533201 -0.137758
C129  C     C_R   0.739970 0.970007 0.148390 0.585863
C130  C     C_R   0.758230 0.900906 0.928672 0.014124
C131  C     C_R   0.259014 0.974113 0.852528 0.561036
C132  C     C_R   0.239965 0.470021 0.148386 0.585977
C133  C     C_R   0.759000 0.474068 0.852509 0.561068
C134  C     C_R   0.684966 0.902076 0.543644 -0.126703
C135  C     C_R   0.305848 0.874154 0.462076 -0.134367
C136  C     C_R   0.184966 0.402076 0.543644 -0.126704
C137  C     C_R   0.805849 0.374156 0.462075 -0.134361
C138  C     C_R   0.823313 0.117901 0.607007 0.254168
C139  C     C_R   0.208584 0.128336 0.385267 0.267529
C140  C     C_R   0.323313 0.617900 0.607007 0.254167
Cl1   Cl    Cl    0.521009 0.415672 0.424106 -0.581980
Cl2   Cl    Cl    0.243115 0.150542 0.300064 -0.492901
Cl3   Cl    Cl    0.298379 0.664666 0.692427 -0.570069
Cl4   Cl    Cl    0.743109 0.650536 0.300059 -0.493210
Cl5   Cl    Cl    0.904316 0.945324 0.949147 -0.699101
Cl6   Cl    Cl    0.174360 0.113704 0.093825 -0.588952
Cl7   Cl    Cl    0.404290 0.445364 0.949153 -0.699116
Cl8   Cl    Cl    0.673873 0.613304 0.093601 -0.589276
Cl9   Cl    Cl    0.523945 0.408679 0.591707 -0.561791
Cl10  Cl    Cl    0.021009 0.915671 0.424106 -0.581998
Cl11  Cl    Cl    0.023944 0.908679 0.591707 -0.561788
Cl12  Cl    Cl    0.573618 0.937834 0.655303 -0.605868
Cl13  Cl    Cl    0.417081 0.952972 0.348261 -0.572542
Cl14  Cl    Cl    0.073621 0.437837 0.655305 -0.605857
Cl15  Cl    Cl    0.917083 0.452968 0.348263 -0.572595
Cl16  Cl    Cl    0.798379 0.164666 0.692428 -0.570075
Cr1   Cr    Cr6+3 0.772820 0.169820 0.252640 1.055158
Cr2   Cr    Cr6+3 0.383280 0.011130 0.749340 1.078705
Cr3   Cr    Cr6+3 0.116720 0.511130 0.250660 1.059988
Cr4   Cr    Cr6+3 0.883280 0.511130 0.749340 1.078706
Cr5   Cr    Cr6+3 0.227180 0.169820 0.747360 1.064130
Cr6   Cr    Cr6+3 0.272820 0.669820 0.252640 1.055186
Cr7   Cr    Cr6+3 0.727180 0.669820 0.747360 1.064135
Cr8   Cr    Cr6+3 0.615040 0.323610 0.249150 1.131356
Cr9   Cr    Cr6+3 0.384960 0.323610 0.750850 1.138161
Cr10  Cr    Cr6+3 0.115040 0.823610 0.249150 1.131216
Cr11  Cr    Cr6+3 0.884960 0.823610 0.750850 1.138184
Cr12  Cr    Cr6+3 0.616720 0.011130 0.250660 1.059983
H1    H     H_    0.628367 0.198435 0.028185 0.116875
H2    H     H_    0.115276 0.226350 0.359421 0.156961
H3    H     H_    0.430576 0.674694 0.625741 0.163388
H4    H     H_    0.615274 0.726348 0.359420 0.156967
H5    H     H_    0.879185 0.037805 0.416672 0.212199
H6    H     H_    0.135848 0.106004 0.574864 0.202405
H7    H     H_    0.379185 0.537805 0.416672 0.212203
H8    H     H_    0.635851 0.606010 0.574864 0.202403
H9    H     H_    0.540163 0.357872 0.955278 0.182145
H10   H     H_    0.437025 0.309111 0.065336 0.158258
H11   H     H_    0.040313 0.857773 0.955246 0.181965
H12   H     H_    0.377253 0.126838 0.972754 0.130034
H13   H     H_    0.937244 0.809408 0.065373 0.158228
H14   H     H_    0.466307 0.967562 0.044886 0.133989
H15   H     H_    0.572634 0.026022 0.934149 0.144898
H16   H     H_    0.966104 0.467646 0.044911 0.134008
H17   H     H_    0.072358 0.525700 0.934106 0.144996
H18   H     H_    0.628994 0.849688 0.855901 0.173158
H19   H     H_    0.368626 0.777754 0.124175 0.166006
H20   H     H_    0.128980 0.349566 0.855902 0.173187
H21   H     H_    0.868625 0.277869 0.124187 0.165986
H22   H     H_    0.026769 0.269011 0.908349 0.130075
H23   H     H_    0.128405 0.697945 0.028140 0.116819
H24   H     H_    0.932177 0.145790 0.051101 0.154767
H25   H     H_    0.526760 0.769204 0.908328 0.130085
H26   H     H_    0.432204 0.645779 0.051043 0.154910
H27   H     H_    0.018282 0.273674 0.040370 0.115930
H28   H     H_    0.921988 0.162965 0.918160 0.188315
H29   H     H_    0.518308 0.773666 0.040354 0.116019
H30   H     H_    0.421969 0.662988 0.918105 0.188324
H31   H     H_    0.609316 0.841317 0.115935 0.196073
H32   H     H_    0.327103 0.767100 0.862048 0.183907
H33   H     H_    0.109279 0.341395 0.115932 0.196061
H34   H     H_    0.877174 0.627305 0.972810 0.130056
H35   H     H_    0.827161 0.267102 0.862056 0.183885
H36   H     H_    0.015259 0.264499 0.563325 0.130058
H37   H     H_    0.957291 0.269173 0.439508 0.140463
H38   H     H_    0.515256 0.764499 0.563322 0.130058
H39   H     H_    0.457290 0.769173 0.439505 0.140463
H40   H     H_    0.633261 0.905083 0.440382 0.148224
H41   H     H_    0.345482 0.857258 0.568548 0.170268
H42   H     H_    0.133261 0.405083 0.440382 0.148224
H43   H     H_    0.845484 0.357261 0.568547 0.170268
H44   H     H_    0.965824 0.102646 0.506674 0.186325
H45   H     H_    0.651588 0.832147 0.562700 0.168596
H46   H     H_    0.066036 0.185265 0.474862 0.127586
H47   H     H_    0.465824 0.602647 0.506673 0.186323
H48   H     H_    0.566037 0.685266 0.474863 0.127584
H49   H     H_    0.855877 0.958930 0.081163 0.162203
H50   H     H_    0.186041 0.091230 0.947093 0.186112
H51   H     H_    0.355857 0.458988 0.081149 0.162268
H52   H     H_    0.685783 0.590853 0.946994 0.186253
H53   H     H_    0.329972 0.793060 0.445568 0.153617
H54   H     H_    0.151588 0.332147 0.562700 0.168594
H55   H     H_    0.829972 0.293061 0.445568 0.153619
H56   H     H_    0.930576 0.174694 0.625740 0.163388
O1    O     O_R   0.788190 0.043000 0.172520 -0.518933
O2    O     O_R   0.454170 0.051610 0.669840 -0.475281
O3    O     O_R   0.045830 0.551610 0.330160 -0.485224
O4    O     O_R   0.954170 0.551610 0.669840 -0.475279
O5    O     O_R   0.681920 0.959720 0.327070 -0.485316
O6    O     O_R   0.318080 0.959720 0.672930 -0.466141
O7    O     O_R   0.181920 0.459720 0.327070 -0.485301
O8    O     O_R   0.818080 0.459720 0.672930 -0.466150
O9    O     O_3   0.668190 0.168190 0.250820 -0.324936
O10   O     O_3   0.331810 0.168190 0.749180 -0.324579
O11   O     O_3   0.168190 0.668190 0.250820 -0.324938
O12   O     O_R   0.211810 0.043000 0.827480 -0.507211
O13   O     O_3   0.831810 0.668190 0.749180 -0.324577
O14   O     O_R   0.766240 0.292300 0.176860 -0.528423
O15   O     O_R   0.233760 0.292300 0.823140 -0.529265
O16   O     O_R   0.266240 0.792300 0.176860 -0.528432
O17   O     O_R   0.733760 0.792300 0.823140 -0.529217
O18   O     O_R   0.670310 0.409160 0.168720 -0.424337
O19   O     O_R   0.329690 0.409160 0.831280 -0.421200
O20   O     O_R   0.170310 0.909160 0.168720 -0.424508
O21   O     O_R   0.829690 0.909160 0.831280 -0.421211
O22   O     O_R   0.556160 0.251900 0.173380 -0.497738
O23   O     O_R   0.288190 0.543000 0.172520 -0.518977
O24   O     O_R   0.443840 0.251900 0.826620 -0.461175
O25   O     O_R   0.056160 0.751900 0.173380 -0.497847
O26   O     O_R   0.943840 0.751900 0.826620 -0.461140
O27   O     O_R   0.545410 0.050140 0.168240 -0.521273
O28   O     O_R   0.454590 0.050140 0.831760 -0.510336
O29   O     O_R   0.045410 0.550140 0.168240 -0.521292
O30   O     O_R   0.954590 0.550140 0.831760 -0.510369
O31   O     O_R   0.681530 0.958350 0.176970 -0.503721
O32   O     O_R   0.318470 0.958350 0.823030 -0.494902
O33   O     O_R   0.181530 0.458350 0.176970 -0.503668
O34   O     O_R   0.711810 0.543000 0.827480 -0.507288
O35   O     O_R   0.818470 0.458350 0.823030 -0.494889
O36   O     O_R   0.788610 0.044480 0.334450 -0.505980
O37   O     O_R   0.211390 0.044480 0.665550 -0.485176
O38   O     O_R   0.288610 0.544480 0.334450 -0.505964
O39   O     O_R   0.711390 0.544480 0.665550 -0.485182
O40   O     O_R   0.766630 0.293670 0.326970 -0.507437
O41   O     O_R   0.233370 0.293670 0.673030 -0.513306
O42   O     O_R   0.266630 0.793670 0.326970 -0.507430
O43   O     O_R   0.733370 0.793670 0.673030 -0.513307
O44   O     O_R   0.670730 0.410640 0.330640 -0.454858
O45   O     O_R   0.556550 0.253260 0.323480 -0.445813
O46   O     O_R   0.329270 0.410640 0.669360 -0.472803
O47   O     O_R   0.170730 0.910640 0.330640 -0.454855
O48   O     O_R   0.829270 0.910640 0.669360 -0.472802
O49   O     O_R   0.443450 0.253260 0.676520 -0.458440
O50   O     O_R   0.056550 0.753260 0.323480 -0.445815
O51   O     O_R   0.943450 0.753260 0.676520 -0.458437
O52   O     O_R   0.545830 0.051610 0.330160 -0.485223

loop_
_geom_bond_atom_site_label_1
_geom_bond_atom_site_label_2
_ccdc_geom_bond_type
C125  C134  A    
C29   O51   A    
C66   C68   A    
C96   C105  A    
C65   H19   S    
C59   C130  A    
C58   C62   A    
C101  C102  A    
C14   C122  A    
C131  O12   A    
C66   H20   S    
C33   O39   A    
Cr10  O20   S    
Cr10  O47   S    
C111  H39   S    
C127  C136  A    
C140  Cl3   S    
C4    C8    A    
C40   C86   S    
Cr8   O18   S    
C53   O15   A    
C56   H50   S    
C55   H49   S    
C45   C83   S    
C2    C46   A    
C7    C11   A    
C105  C107  A    
Cr7   O34   S    
C23   O47   A    
C75   O21   A    
C72   C77   A    
C38   H13   S    
C15   C123  A    
C27   C90   S    
C103  C110  A    
C30   O36   A    
C30   O5    A    
C82   O28   A    
Cr2   O28   S    
C38   C42   S    
C48   C52   A    
C3    C7    A    
C10   C15   A    
C117  C122  A    
C128  H43   S    
C139  Cl2   S    
C2    C60   A    
C10   H47   S    
C39   C97   S    
C80   H35   S    
Cr6   O38   S    
Cr4   O30   S    
C49   C54   A    
C31   O6    A    
C101  Cl10  S    
C92   C96   A    
C64   O16   A    
C3    C120  A    
C69   H24   S    
C69   C76   A    
C20   C33   S    
C44   C97   S    
C87   C131  S    
Cr6   O23   S    
C86   C97   S    
C110  C111  A    
Cr10  O50   S    
C38   C45   S    
C65   C71   A    
C76   H28   S    
C50   C85   A    
C85   C129  S    
C72   H29   S    
C40   H12   S    
C58   H52   S    
Cr4   O4    S    
Cr5   O10   S    
C129  O31   A    
Cr5   O41   S    
C79   H33   S    
C96   C98   A    
C73   C78   A    
Cr4   O8    S    
C90   C94   A    
Cr9   O19   S    
C68   H22   S    
C104  Cl13  S    
C37   C47   S    
C33   O8    A    
Cr8   O22   S    
Cr2   O2    S    
C40   C44   S    
C13   C53   S    
C21   O44   A    
C45   C108  S    
C92   C102  A    
C102  Cl11  S    
C27   O49   A    
C100  Cl9   S    
C16   H8    S    
C47   C119  S    
C105  Cl14  S    
Cr12  O5    S    
C32   O7    A    
Cr9   O10   S    
Cr3   O33   S    
C62   Cl8   S    
C7    H4    S    
C83   O25   A    
C6    C140  A    
C17   C30   S    
C25   C112  S    
C108  C119  S    
Cr2   O6    S    
C117  C139  A    
Cr9   O24   S    
C78   H32   S    
C81   O27   A    
C37   H11   S    
C19   C32   S    
C28   O3    A    
C90   C100  A    
C42   C47   S    
C25   O43   A    
C2    C64   S    
Cr5   O15   S    
C97   H15   S    
C54   C80   A    
C6    H3    S    
Cr1   O9    S    
C135  H53   S    
Cr10  O25   S    
C89   C133  S    
C116  C121  A    
C108  H16   S    
C84   O26   A    
C34   C39   S    
C109  H37   S    
C115  C137  A    
C119  H17   S    
C52   C88   A    
C34   C44   S    
Cr11  O48   S    
C54   C89   A    
Cr9   O46   S    
Cr11  O51   S    
C71   C73   A    
C41   H23   S    
C131  O32   A    
C56   C87   A    
C39   C43   S    
C57   H51   S    
C26   C91   S    
C4    H56   S    
Cr12  O31   S    
C91   C95   A    
C46   C51   A    
Cr6   O42   S    
Cr4   O35   S    
C129  O1    A    
C56   C60   A    
C120  C124  A    
C28   C93   S    
C67   C69   A    
C104  C111  A    
Cr3   O7    S    
C8    H44   S    
C55   C85   A    
C5    C139  A    
C9    C14   A    
C60   Cl6   S    
C93   C101  A    
C5    C9    A    
C37   C38   S    
C75   O17   A    
C23   C113  S    
C26   O45   A    
Cr6   O16   S    
C11   C16   A    
C21   O40   A    
C28   O50   A    
C99   C100  A    
C63   C70   A    
Cr11  O13   S    
C5    H2    S    
C63   H18   S    
C19   C123  A    
C73   H30   S    
C35   C50   A    
C67   H21   S    
Cr12  O52   S    
C36   H10   S    
C110  H38   S    
C53   O19   A    
C47   C84   S    
C41   C119  S    
C32   O38   A    
C134  H45   S    
C35   C130  A    
C114  C118  A    
C34   H9    S    
C103  Cl12  S    
C18   C122  A    
C128  C137  A    
C113  C117  A    
Cr6   O11   S    
C59   Cl5   S    
C17   C121  A    
C133  O34   A    
C17   C125  A    
C83   O29   A    
C126  C135  A    
C106  Cl15  S    
Cr3   O3    S    
C74   C79   A    
C125  H40   S    
C84   O30   A    
C1    O14   A    
C127  H42   S    
C42   H34   S    
Cr8   O45   S    
Cr3   O29   S    
C51   C87   A    
C52   C79   A    
C50   C77   A    
C55   C59   A    
C112  C116  A    
C36   C40   S    
Cr11  O26   S    
C95   C104  A    
C57   C88   A    
C133  O35   A    
C138  Cl16  S    
Cr10  O11   S    
Cr12  O27   S    
C137  H55   S    
C74   H27   S    
C12   C121  A    
C24   C62   A    
C49   C67   A    
Cr7   O43   S    
Cr8   O9    S    
C43   C86   S    
Cr3   O11   S    
C81   O22   A    
C99   Cl1   S    
C3    Cl4   S    
C76   C80   A    
C112  C134  A    
C71   H26   S    
C126  H41   S    
Cr7   O13   S    
C6    C10   A    
C13   C48   A    
C35   C63   A    
C118  C140  A    
C75   C130  S    
C27   O2    A    
C20   C128  A    
C132  O33   A    
C64   O20   A    
Cr1   O1    S    
C9    H46   S    
C94   C103  A    
C11   H48   S    
C23   O42   A    
C44   C82   S    
C21   C115  S    
C98   C106  A    
C41   C45   S    
C15   H7    S    
C57   C61   A    
C31   O37   A    
C48   C66   A    
C61   Cl7   S    
C51   C78   A    
C107  H36   S    
C14   H6    S    
Cr11  O21   S    
C18   C126  A    
C26   O52   A    
Cr8   O44   S    
C22   O41   A    
C22   O46   A    
C114  C136  A    
C107  C109  A    
Cr5   O12   S    
C70   H25   S    
C43   C81   S    
C24   C49   A    
C19   C127  A    
C132  O23   A    
C34   C36   S    
C77   H31   S    
Cr7   O17   S    
Cr4   O13   S    
C118  C123  A    
C37   C41   S    
C94   C95   A    
C58   C89   A    
Cr2   O32   S    
C82   O24   A    
C20   C124  A    
C25   O48   A    
C1    O18   A    
C46   C65   A    
C116  C138  A    
C4    C138  A    
Cr1   O36   S    
Cr5   O37   S    
Cr1   O14   S    
C22   C114  S    
Cr1   O40   S    
C136  H54   S    
C1    C24   S    
C39   H1    S    
C115  C120  A    
C113  C135  A    
Cr7   O39   S    
C13   C61   A    
C86   H14   S    
C88   C132  S    
Cr12  O9    S    
C36   C43   S    
C70   C72   A    
C18   C31   S    
C29   O4    A    
Cr9   O49   S    
C91   C99   A    
C16   C124  A    
C42   C108  S    
C93   C98   A    
C29   C92   S    
Cr2   O10   S    
C8    C12   A    
C12   H5    S    
C68   C74   A    
C106  C109  A    
