data_mof_unit_43396.cif
_audit_creation_date              2012-12-10T17:09:53-0500
_audit_creation_method            fapswitch 2.2
_symmetry_space_group_name_H-M    P1
_symmetry_Int_Tables_number       1
_space_group_crystal_system       triclinic
_cell_length_a                    10.866721
_cell_length_b                    13.00093
_cell_length_c                    11.80583
_cell_angle_alpha                 100.076117
_cell_angle_beta                  93.777903
_cell_angle_gamma                 92.791914
_cell_volume                      1635.52112108

loop_
_atom_site_label
_atom_site_type_symbol
_atom_type_description
_atom_site_fract_x
_atom_site_fract_y
_atom_site_fract_z
_atom_type_partial_charge
C1    C     C_R   0.499033 0.299280 0.478290 0.793007
C2    C     C_R   0.069675 0.508478 0.611784 0.100471
C3    C     C_R   0.128652 0.513038 0.508058 -0.116283
C4    C     C_R   0.056513 0.511554 0.405079 -0.209802
C5    C     C_R   0.929139 0.501891 0.402406 -0.198059
C6    C     C_R   0.870891 0.485324 0.500475 -0.114706
C7    C     C_R   0.508062 0.815004 0.534393 -0.180561
C8    C     C_R   0.498806 0.185603 0.465259 -0.048863
C9    C     C_R   0.459903 0.013168 0.347991 -0.168673
C10   C     C_R   0.464854 0.121555 0.358051 -0.191278
C11   C     C_R   0.530790 0.140490 0.561544 -0.230465
C12   C     C_R   0.262771 0.506516 0.502132 0.794267
C13   C     C_R   0.523620 0.032426 0.552765 0.080472
C14   C     C_R   0.488055 0.968163 0.445209 0.168989
C15   C     C_R   0.481087 0.859988 0.436663 -0.346718
C16   C     C_R   0.541916 0.879743 0.641760 0.611466
C17   C     C_R   0.550326 0.987856 0.650316 -0.279454
C18   C     C_R   0.378146 0.399068 0.022738 0.070957
C19   C     C_R   0.387619 0.412632 0.143506 0.351768
C20   C     C_R   0.552059 0.541306 0.156454 -0.018043
C21   C     C_R   0.541243 0.534012 0.034567 -0.058890
C22   C     C_R   0.455973 0.460839 0.965265 -0.022336
C23   C     C_R   0.502997 0.700917 0.521717 0.843797
C24   C     C_R   0.451971 0.451833 0.842160 0.271525
C25   C     C_R   0.607042 0.590704 0.860676 0.365890
C26   C     C_R   0.615954 0.597817 0.981148 -0.283498
C27   C     C_R   0.736862 0.492637 0.499376 0.793737
C28   C     C_R   0.130362 0.534594 0.724220 -0.161770
C29   C     C_R   0.074898 0.509003 0.819562 -0.162056
C30   C     C_R   0.958992 0.456698 0.805014 -0.158934
C31   C     C_R   0.893078 0.440548 0.697578 -0.164324
C32   C     C_R   0.942965 0.477046 0.602846 0.101608
Cu1   Cu    Cu3+1 0.509250 0.507730 0.615930 0.936891
Cu2   Cu    Cu3+1 0.490750 0.492270 0.384070 0.930163
H1    H     H_    0.098330 0.520215 0.326379 0.155048
H2    H     H_    0.577141 0.036702 0.733329 0.165145
H3    H     H_    0.440780 0.155023 0.282384 0.156563
H4    H     H_    0.561274 0.189175 0.643621 0.138960
H5    H     H_    0.683036 0.654113 0.033225 0.157658
H6    H     H_    0.619953 0.596395 0.208794 0.138892
H7    H     H_    0.217968 0.579072 0.741972 0.178423
H8    H     H_    0.123053 0.528156 0.904497 0.140862
H9    H     H_    0.918301 0.431778 0.877779 0.141144
H10   H     H_    0.803910 0.398304 0.689779 0.160605
H11   H     H_    0.876240 0.507737 0.322976 0.164220
H12   H     H_    0.454102 0.810997 0.353720 0.182993
H13   H     H_    0.432828 0.964731 0.264828 0.141876
N1    N     N_R   0.523180 0.519350 0.790130 -0.215585
N2    N     N_R   0.476820 0.480650 0.209890 -0.214158
O1    O     O_R   0.506570 0.354460 0.582000 -0.602449
O2    O     O_R   0.490940 0.341410 0.386200 -0.597033
O3    O     O_R   0.327470 0.506530 0.597920 -0.609885
O4    O     O_R   0.311840 0.493480 0.402120 -0.594614
O5    O     O_R   0.509060 0.658590 0.613800 -0.539075
O6    O     O_R   0.493430 0.645540 0.418000 -0.591666
O7    O     O_R   0.688160 0.506520 0.597880 -0.620254
O8    O     O_R   0.672530 0.493470 0.402080 -0.579873
N3    N     N_3   0.382854 0.363563 0.774227 -0.626090
H14   H     H_    0.441220 0.304060 0.748667 0.230313
H15   H     H_    0.325719 0.381522 0.707736 0.274557
N4    N     N_3   0.692597 0.659020 0.817231 -0.511404
H16   H     H_    0.781495 0.635186 0.833889 0.192389
H17   H     H_    0.680423 0.655137 0.729470 0.298774
N5    N     N_3   0.282718 0.324818 0.963638 -0.569830
H18   H     H_    0.322051 0.260953 0.915987 0.248124
H19   H     H_    0.222865 0.360974 0.912221 0.245281
N6    N     N_3   0.293896 0.357181 0.192961 -0.564829
H20   H     H_    0.328600 0.315462 0.253673 0.250411
H21   H     H_    0.226803 0.407444 0.222864 0.228600
F1    F     F_    0.568371 0.839297 0.738334 -0.654387

loop_
_geom_bond_atom_site_label_1
_geom_bond_atom_site_label_2
_ccdc_geom_bond_type
C11   H4    S    
C6    C32   A    
C9    C14   A    
C23   O6    A    
C20   N2    A    
C17   H2    S    
C29   H8    S    
Cu2   O8    S    
C18   C22   A    
C11   C13   A    
C1    O1    A    
C19   N2    A    
C31   C32   A    
C14   C15   A    
C20   H6    S    
C13   C17   A    
C21   C26   A    
N5    H18   S    
N4    H16   S    
Cu1   O7    S    
C7    C15   A    
Cu1   Cu2   S    
N3    H14   S    
C4    H1    S    
Cu2   O6    S    
C25   N4    S    
C13   C14   A    
Cu1   O3    S    
C19   N6    S    
C1    O2    A    
C25   N1    A    
C18   N5    S    
Cu2   O2    S    
C29   C30   A    
C12   O4    A    
Cu2   O4    S    
C8    C11   A    
C7    C23   S    
C5    C6    A    
C9    C10   A    
C2    C32   A    
C28   C29   A    
C12   O3    A    
C9    H13   S    
C2    C3    A    
C10   H3    S    
C30   C31   A    
C26   H5    S    
C22   C24   A    
C30   H9    S    
C16   C17   A    
C31   H10   S    
N3    H15   S    
N6    H20   S    
C24   N1    A    
C28   H7    S    
C16   F1    S    
C20   C21   A    
C23   O5    A    
C24   N3    S    
C18   C19   A    
C27   O8    A    
Cu1   O5    S    
N4    H17   S    
Cu1   N1    S    
C27   O7    A    
C7    C16   A    
Cu2   N2    S    
C2    C28   A    
C3    C12   S    
Cu1   O1    S    
C15   H12   S    
C25   C26   A    
C21   C22   A    
C5    H11   S    
C8    C10   A    
C3    C4    A    
C6    C27   S    
C1    C8    S    
C4    C5    A    
N6    H21   S    
N5    H19   S    
