data_mof_unit_47319.cif
_audit_creation_date              2013-03-05T15:44:49-0500
_audit_creation_method            fapswitch 2.2
_symmetry_space_group_name_H-M    P1
_symmetry_Int_Tables_number       1
_space_group_crystal_system       triclinic
_cell_length_a                    15.754171
_cell_length_b                    10.744293
_cell_length_c                    10.052081
_cell_angle_alpha                 90.326294
_cell_angle_beta                  90.349148
_cell_angle_gamma                 90.37961
_cell_volume                      1701.39298844

loop_
_atom_site_label
_atom_site_type_symbol
_atom_site_description
_atom_site_fract_x
_atom_site_fract_y
_atom_site_fract_z
_atom_type_partial_charge
O1    O     O_R   0.499990 0.319060 0.613040 -0.621236
O2    O     O_R   0.500010 0.319100 0.386900 -0.618379
C1    C     C_R   0.498508 0.262757 0.499543 0.925464
O3    O     O_R   0.376760 0.499970 0.613050 -0.602421
O4    O     O_R   0.376790 0.500010 0.386910 -0.599378
C2    C     C_R   0.338116 0.499999 0.499632 0.888565
Zn1   Zn    Zn3+2 0.499980 0.499970 0.650990 1.012845
Zn2   Zn    Zn3+2 0.500020 0.500030 0.349010 0.984805
O5    O     O_R   0.499990 0.680900 0.613100 -0.600805
O6    O     O_R   0.500010 0.680940 0.386960 -0.625503
O7    O     O_R   0.623210 0.499990 0.613090 -0.551597
O8    O     O_R   0.623240 0.500030 0.386950 -0.598618
C3    C     C_R   0.502403 0.737255 0.500255 0.940618
C4    C     C_R   0.661872 0.500048 0.500377 0.909473
C5    C     C_3   0.970219 0.392395 0.551839 -0.311532
C6    C     C_3   0.026119 0.406627 0.427372 0.300658
H1    H     H_    0.945505 0.303542 0.592666 0.183800
C7    C     C_1   0.249409 0.500068 0.499049 -0.105951
C8    C     C_1   0.750555 0.500601 0.501061 -0.088177
C9    C     C_3   0.028110 0.488266 0.625086 -0.067160
C10   C     C_3   0.083556 0.499839 0.500499 0.062344
C11   C     C_3   0.973264 0.596289 0.574335 -0.026460
C12   C     C_3   0.916393 0.501850 0.500230 0.109751
C13   C     C_3   0.029535 0.609125 0.449045 -0.360164
C14   C     C_3   0.971647 0.513510 0.375486 -0.067971
C15   C     C_1   0.174285 0.500002 0.499398 0.102460
C16   C     C_1   0.825665 0.501200 0.500949 0.116430
H2    H     H_    0.054500 0.697522 0.407449 0.182397
C17   C     C_2   0.504356 0.932623 0.387865 -0.149888
C18   C     C_2   0.511833 0.868804 0.500905 -0.300682
H3    H     H_    0.494651 0.886593 0.292389 0.168853
H4    H     H_    0.527238 0.911934 0.595855 0.156753
C19   C     C_2   0.509208 0.066618 0.388495 -0.137864
C20   C     C_2   0.491954 0.131032 0.498794 -0.302877
H5    H     H_    0.525644 0.112360 0.295907 0.176713
H6    H     H_    0.470835 0.088282 0.590326 0.151089
C21   C     C_2   0.529370 0.591524 0.928132 -0.003970
N1    N     N_2   0.500900 0.501330 0.852150 -0.194461
H7    H     H_    0.462777 0.435657 0.896401 0.164690
C22   C     C_2   0.514233 0.597942 0.075587 -0.184381
N2    N     N_2   0.500930 0.501360 0.147810 -0.178119
H8    H     H_    0.522119 0.687196 0.125400 0.155577
H9    H     H_    0.501522 0.415945 0.101000 0.173581
N3    N     N_R   0.053688 0.301981 0.345785 0.206379
O9    O     O_R   0.997470 0.229086 0.290119 -0.363922
O10   O     O_R   0.133987 0.280386 0.328469 -0.381046
C23   C     C_2   0.578408 0.696813 0.873431 0.523837
H10   H     H_    0.571607 0.788939 0.916768 0.001939
O11   O     O_2   0.631138 0.681148 0.786937 -0.502218
C24   C     C_2   0.942832 0.526541 0.233980 0.490422
H11   H     H_    0.989561 0.532681 0.155458 0.067478
O12   O     O_2   0.867403 0.530211 0.206234 -0.543597
C25   C     C_2   0.945585 0.704426 0.657878 0.425823
H12   H     H_    0.992981 0.764097 0.704698 0.074310
O13   O     O_2   0.870379 0.725919 0.673812 -0.523272
C26   C     C_2   0.057329 0.474173 0.766324 0.419334
H13   H     H_    0.010809 0.467409 0.845092 0.080389
O14   O     O_2   0.132827 0.470339 0.793563 -0.545128

loop_
_geom_bond_atom_site_label_1
_geom_bond_atom_site_label_2
_geom_bond_distance
_ccdc_geom_bond_type
O4    Zn2   1.980690 S    
C24   O12   1.219899 D    
C10   C15   1.429458 S    
C6    C10   1.527624 S    
C5    H1    1.110364 S    
C21   N1    1.305861 D    
C12   C16   1.429367 S    
C21   C23   1.476340 S    
C8    C16   1.183289 T    
C6    N3    1.457973 S    
C20   H6    1.083851 S    
C23   H10   1.085401 S    
C7    C15   1.183534 T    
Zn2   O8    1.976057 S    
C9    C26   1.498624 S    
C9    C10   1.536409 S    
C5    C12   1.544678 S    
C24   H11   1.084594 S    
C23   O11   1.217922 D    
O1    Zn1   1.978700 S    
C25   H12   1.084450 S    
Zn2   N2    2.022749 S    
C18   H4    1.084095 S    
N2    H9    1.029060 S    
C17   C18   1.335481 D    
O3    Zn1   1.976055 S    
C22   H8    1.085345 S    
C22   N2    1.286614 D    
C19   H5    1.086851 S    
Zn1   N1    2.022009 S    
O8    C4    1.289165 A    
Zn1   O7    1.980688 S    
C11   C25   1.498449 S    
O2    C1    1.287269 A    
C25   O13   1.219942 D    
O4    C2    1.289776 A    
C2    C7    1.397492 S    
O7    C4    1.289606 A    
C11   C13   1.550808 S    
O3    C2    1.289180 A    
C26   H13   1.084606 S    
C9    C11   1.539011 S    
C21   C22   1.503989 S    
C17   C19   1.441181 S    
C3    C18   1.420178 S    
C12   C14   1.536048 S    
C19   C20   1.334013 D    
C13   C14   1.550656 S    
C13   H2    1.110477 S    
C17   H3    1.086665 S    
C10   C13   1.544459 S    
C6    C14   1.530251 S    
Zn1   O5    1.983051 S    
O5    C3    1.289498 A    
C14   C24   1.498085 S    
N3    O10   1.300219 A    
C1    C20   1.418351 S    
C11   C12   1.535722 S    
C4    C8    1.397077 S    
Zn2   O6    1.978698 S    
O2    Zn2   1.983053 S    
N3    O9    1.300269 A    
C5    C6    1.542117 S    
C26   O14   1.219897 D    
C5    C9    1.551019 S    
O1    C1    1.288305 A    
O6    C3    1.286799 A    
N1    H7    1.028430 S    
