data_mof_unit_15152.cif
_audit_creation_date              2012-12-10T17:08:11-0500
_audit_creation_method            fapswitch 2.2
_symmetry_space_group_name_H-M    P1
_symmetry_Int_Tables_number       1
_space_group_crystal_system       triclinic
_cell_length_a                    23.552631
_cell_length_b                    11.095575
_cell_length_c                    9.967125
_cell_angle_alpha                 112.167392
_cell_angle_beta                  98.628972
_cell_angle_gamma                 92.590646
_cell_volume                      2370.08891997

loop_
_atom_site_label
_atom_site_type_symbol
_atom_type_description
_atom_site_fract_x
_atom_site_fract_y
_atom_site_fract_z
_atom_type_partial_charge
C1    C     C_R   0.495791 0.253655 0.439013 0.738792
C2    C     C_R   0.505673 0.746197 0.560903 0.744873
C3    C     C_R   0.251644 0.616689 0.626815 -0.029081
C4    C     C_R   0.751143 0.410251 0.368642 -0.030460
C5    C     C_R   0.310881 0.610492 0.621865 -0.110841
C6    C     C_R   0.691544 0.410554 0.371063 -0.107786
C7    C     C_R   0.328914 0.509497 0.504316 -0.136354
C8    C     C_R   0.671893 0.495593 0.497939 -0.137081
C9    C     C_R   0.286976 0.417371 0.390556 -0.102429
C10   C     C_R   0.713028 0.576721 0.623203 -0.106163
C11   C     C_R   0.227941 0.424961 0.396140 -0.035981
C12   C     C_R   0.772377 0.575974 0.618847 -0.038275
C13   C     C_R   0.210475 0.523653 0.514443 0.240357
C14   C     C_R   0.791236 0.493380 0.491920 0.240514
C15   C     C_2   0.490869 0.111644 0.403110 0.212843
C16   C     C_2   0.515229 0.887610 0.596787 0.222807
C17   C     C_2   0.512401 0.068037 0.508310 0.352204
C18   C     C_2   0.492327 0.934769 0.496004 0.349739
C19   C     C_2   0.508780 0.501342 0.078597 -0.015636
C20   C     C_2   0.497828 0.481663 0.916087 -0.039208
C21   C     C_R   0.391236 0.501457 0.500769 0.791801
C22   C     C_R   0.608968 0.498954 0.499486 0.781806
C23   C     C_R   0.877541 0.569003 0.429654 0.583708
C24   C     C_R   0.124700 0.454205 0.583294 0.582938
C25   C     C_R   0.883490 0.422344 0.554321 0.578655
C26   C     C_R   0.118673 0.598171 0.455241 0.580297
C27   C     C_R   0.943941 0.427785 0.563237 -0.099930
C28   C     C_R   0.058335 0.594714 0.448716 -0.100911
C29   C     C_R   0.970902 0.507169 0.502880 -0.077719
C30   C     C_R   0.031399 0.516158 0.510084 -0.077616
C31   C     C_R   0.937395 0.577277 0.434659 -0.056387
C32   C     C_R   0.064909 0.446445 0.578826 -0.055959
C33   C     C_R   0.978081 0.356766 0.630131 0.500866
C34   C     C_R   0.024238 0.666386 0.382668 0.500811
C35   C     C_R   0.038155 0.369232 0.639993 -0.235180
C36   C     C_R   0.964194 0.654867 0.373956 -0.235136
Cu1   Cu    Cu3+1 0.509980 0.521810 0.644910 0.993476
Cu2   Cu    Cu3+1 0.490020 0.478190 0.355090 0.998936
H1    H     H_    0.063750 0.317574 0.695868 0.201659
H2    H     H_    0.938633 0.707040 0.318698 0.201909
N1    N     N_R   0.852126 0.493267 0.489762 -0.472651
N2    N     N_R   0.149987 0.527676 0.520451 -0.472812
N3    N     N_2   0.475010 0.445410 0.137370 -0.260515
N4    N     N_2   0.524990 0.554590 0.862630 -0.268083
O1    O     O_R   0.505330 0.332340 0.577400 -0.548339
O2    O     O_R   0.494670 0.667660 0.422600 -0.550062
O3    O     O_R   0.488470 0.295500 0.332650 -0.565380
O4    O     O_R   0.511530 0.704500 0.667350 -0.574199
O5    O     O_R   0.426310 0.518390 0.622390 -0.576299
O6    O     O_R   0.573690 0.481610 0.377610 -0.569407
O7    O     O_R   0.409450 0.481550 0.377650 -0.579306
O8    O     O_R   0.590550 0.518450 0.622350 -0.574183
O9    O     O_2   0.844900 0.637116 0.366681 -0.524712
O10   O     O_2   0.157409 0.387383 0.647976 -0.524250
O11   O     O_2   0.855948 0.347865 0.610123 -0.474708
O12   O     O_2   0.146079 0.669869 0.396062 -0.472703
O13   O     O_3   0.953493 0.282625 0.695731 -0.519289
C37   C     C_3   0.954307 0.148701 0.609575 -0.217986
H3    H     H_    0.933729 0.122809 0.492627 0.156750
H4    H     H_    0.929069 0.089971 0.653646 0.208693
H5    H     H_    0.999054 0.120807 0.616286 0.124963
O14   O     O_3   0.048805 0.740462 0.316984 -0.519393
C38   C     C_3   0.048797 0.874405 0.404339 -0.217896
H6    H     H_    0.073902 0.932962 0.359804 0.209572
H7    H     H_    0.069971 0.899301 0.520671 0.157324
H8    H     H_    0.004222 0.903450 0.399651 0.124368
C39   C     C_1   0.542629 0.685325 0.953976 0.472434
N5    N     N_1   0.557090 0.794108 0.029618 -0.255057
C40   C     C_1   0.416449 0.417702 0.075463 0.450919
N6    N     N_1   0.367753 0.395302 0.024386 -0.279704
C41   C     C_1   0.232463 0.718422 0.746870 0.297134
N7    N     N_1   0.217095 0.799645 0.842710 -0.241817
C42   C     C_1   0.771869 0.323716 0.240242 0.296014
N8    N     N_1   0.788469 0.254671 0.137774 -0.244541
C43   C     C_1   0.352869 0.710912 0.734906 0.260410
N9    N     N_1   0.386395 0.790992 0.824830 -0.254897
C44   C     C_1   0.651098 0.318935 0.245026 0.275342
N10   N     N_1   0.618903 0.245808 0.144508 -0.229935
C45   C     C_1   0.303741 0.312384 0.269132 0.287734
N11   N     N_1   0.316269 0.228136 0.171128 -0.283985
C46   C     C_1   0.695378 0.661522 0.757610 0.278622
N12   N     N_1   0.681946 0.728719 0.865973 -0.278422
C47   C     C_1   0.184472 0.330802 0.280941 0.301246
N13   N     N_1   0.149724 0.255756 0.189120 -0.241518
C48   C     C_1   0.814798 0.660617 0.744748 0.301543
N14   N     N_1   0.848699 0.728058 0.845090 -0.238832
O15   O     O_3   0.451274 0.856091 0.374943 -0.551614
C49   C     C_3   0.396555 0.862851 0.417313 -0.249774
H9    H     H_    0.363297 0.808098 0.318208 0.202010
H10   H     H_    0.385990 0.965701 0.463848 0.152970
H11   H     H_    0.393851 0.816251 0.497648 0.140335
O16   O     O_3   0.549634 0.151022 0.635212 -0.544871
C50   C     C_3   0.605700 0.158488 0.602605 -0.216245
H12   H     H_    0.620250 0.059676 0.552937 0.144340
H13   H     H_    0.636274 0.214162 0.706831 0.201210
H14   H     H_    0.608108 0.211709 0.528492 0.131224
O17   O     O_3   0.545652 0.972566 0.733584 -0.535443
C51   C     C_3   0.600504 0.932504 0.763586 -0.175080
H15   H     H_    0.620328 0.888479 0.663539 0.099442
H16   H     H_    0.597556 0.863508 0.819104 0.201404
H17   H     H_    0.630009 0.019759 0.841045 0.202886
O18   O     O_3   0.467962 0.021920 0.261340 -0.543777
C52   C     C_3   0.412920 0.049971 0.210754 -0.125269
H18   H     H_    0.417127 0.112959 0.148040 0.196482
H19   H     H_    0.388053 0.095090 0.300738 0.105548
H20   H     H_    0.387345 0.956693 0.133531 0.201928
C53   C     C_1   0.460149 0.366686 0.814837 0.424607
N15   N     N_1   0.429402 0.274651 0.735928 -0.296144
C54   C     C_1   0.563073 0.573963 0.166368 0.376133
N16   N     N_1   0.606654 0.633428 0.234536 -0.285348

loop_
_geom_bond_atom_site_label_1
_geom_bond_atom_site_label_2
_ccdc_geom_bond_type
O15   C49   S    
C38   H7    S    
C50   H12   S    
C27   C29   A    
C24   N2    A    
C42   N8    T    
C35   H1    S    
C19   C20   S    
C21   O5    A    
C46   N12   T    
C44   N10   T    
C27   C33   A    
Cu1   Cu2   S    
C12   C48   S    
C16   O17   S    
C24   O10   S    
O17   C51   S    
C34   O14   S    
C7    C9    A    
C9    C45   S    
C8    C22   S    
C53   N15   T    
C1    C15   S    
C2    C16   S    
C3    C13   A    
C22   O6    A    
C20   C53   S    
C37   H5    S    
C38   H8    S    
C28   C34   A    
C50   H13   S    
C40   N6    T    
C17   O16   S    
C13   N2    S    
C20   N4    D    
C19   N3    D    
C23   O9    S    
C19   C54   S    
C39   N5    T    
C32   C35   A    
C36   H2    S    
C4    C6    A    
C25   N1    A    
C5    C7    A    
Cu1   O8    S    
C1    O3    A    
C6    C44   S    
C6    C8    A    
Cu2   O7    S    
C11   C47   S    
C37   H3    S    
C48   N14   T    
C2    O2    A    
C45   N11   T    
C23   C31   A    
C5    C43   S    
C3    C41   S    
C43   N9    T    
C24   C32   A    
C29   C30   A    
Cu1   O5    S    
C47   N13   T    
C49   H11   S    
O14   C38   S    
C17   C18   S    
Cu2   O3    S    
C52   H19   S    
Cu1   O4    S    
C9    C11   A    
C4    C42   S    
C10   C12   A    
C14   N1    S    
C16   C18   D    
C49   H10   S    
C50   H14   S    
C51   H16   S    
Cu1   O1    S    
C21   O7    A    
C26   N2    A    
C22   O8    A    
C15   C17   D    
C33   O13   S    
C25   O11   S    
C12   C14   A    
C3    C5    A    
C26   O12   S    
Cu2   O6    S    
C25   C27   A    
C51   H17   S    
C10   C46   S    
C26   C28   A    
C18   O15   S    
C23   N1    A    
C2    O4    A    
Cu1   N4    S    
C28   C30   A    
Cu2   N3    S    
C29   C31   A    
C7    C21   S    
C54   N16   T    
C30   C32   A    
C11   C13   A    
C1    O1    A    
O13   C37   S    
O16   C50   S    
C33   C35   A    
C52   H20   S    
C34   C36   A    
C15   O18   S    
C4    C14   A    
O18   C52   S    
Cu2   O2    S    
C38   H6    S    
C41   N7    T    
C49   H9    S    
C8    C10   A    
C51   H15   S    
C52   H18   S    
C31   C36   A    
N4    C39   S    
N3    C40   S    
C37   H4    S    
