data_mof_unit_32300.cif
_audit_creation_date              2012-12-10T17:35:36-0500
_audit_creation_method            fapswitch 2.2
_symmetry_space_group_name_H-M    P1
_symmetry_Int_Tables_number       1
_space_group_crystal_system       triclinic
_cell_length_a                    10.710199
_cell_length_b                    12.317595
_cell_length_c                    13.220968
_cell_angle_alpha                 116.564997
_cell_angle_beta                  77.428358
_cell_angle_gamma                 101.305089
_cell_volume                      1512.86254499

loop_
_atom_site_label
_atom_site_type_symbol
_atom_type_description
_atom_site_fract_x
_atom_site_fract_y
_atom_site_fract_z
_atom_type_partial_charge
C1    C     C_R   0.513928 0.854686 0.286599 0.783038
C2    C     C_3   0.121743 0.999672 0.500209 0.166833
C3    C     C_3   0.074457 0.122041 0.592491 -0.391554
C4    C     C_3   0.040225 0.893591 0.526709 -0.369436
C5    C     C_R   0.353661 0.272596 0.026540 -0.199054
C6    C     C_R   0.463143 0.227240 0.834644 -0.071232
C7    C     C_R   0.627743 0.811630 0.092329 -0.240474
C8    C     C_R   0.684064 0.728139 0.988924 -0.212091
C9    C     C_R   0.649285 0.602650 0.954941 0.262578
C10   C     C_R   0.540436 0.560374 0.018085 0.038453
C11   C     C_R   0.484314 0.646714 0.124703 0.039121
C12   C     C_R   0.739850 0.999499 0.499890 0.752261
C13   C     C_R   0.486859 0.435680 0.981422 0.071151
C14   C     C_R   0.397083 0.396892 0.058300 0.162247
C15   C     C_R   0.343927 0.483145 0.162052 -0.237220
C16   C     C_R   0.379983 0.606323 0.190555 -0.186692
C17   C     C_R   0.510703 0.350226 0.867874 -0.223208
C18   C     C_R   0.389159 0.187443 0.915488 -0.201782
C19   C     C_R   0.535433 0.771379 0.164571 -0.105109
C20   C     C_R   0.705767 0.347185 0.328951 -0.305975
C21   C     C_R   0.324935 0.758987 0.644767 0.070941
C22   C     C_R   0.286669 0.661960 0.675803 -0.262560
C23   C     C_R   0.481748 0.144981 0.713231 0.800049
C24   C     C_R   0.352333 0.558638 0.621097 -0.193688
C25   C     C_R   0.457837 0.551068 0.534061 -0.005127
C26   C     C_R   0.493465 0.652986 0.505130 0.291983
C27   C     C_R   0.529306 0.446868 0.474872 -0.037871
C28   C     C_R   0.633921 0.446988 0.388227 0.181793
C29   C     C_R   0.666739 0.546775 0.361255 -0.292442
C30   C     C_R   0.598473 0.647379 0.418543 -0.190327
C31   C     C_R   0.502295 0.341779 0.497493 0.019357
C32   C     C_R   0.674406 0.247171 0.355495 0.068652
C33   C     C_R   0.260007 0.000193 0.500184 0.745826
C34   C     C_3   0.955656 0.981968 0.381522 -0.389087
C35   C     C_3   0.099809 0.982261 0.381541 -0.376364
C36   C     C_3   0.930195 0.121479 0.592693 -0.373442
C37   C     C_3   0.897352 0.892941 0.526311 -0.372860
C38   C     C_3   0.877680 0.998904 0.500135 0.163595
Cu1   Cu    Cu3+1 0.529690 0.098270 0.475420 0.924817
Cu2   Cu    Cu3+1 0.470310 0.901730 0.524580 0.913251
H1    H     H_    0.943727 0.056834 0.360280 0.166772
H2    H     H_    0.053577 0.903802 0.611875 0.162180
H3    H     H_    0.875528 0.134949 0.678555 0.151140
H4    H     H_    0.089739 0.136105 0.678345 0.148062
H5    H     H_    0.288018 0.242087 0.086059 0.130158
H6    H     H_    0.558242 0.379514 0.802198 0.196899
H7    H     H_    0.666228 0.907000 0.120644 0.160695
H8    H     H_    0.763753 0.761045 0.939772 0.135093
H9    H     H_    0.324864 0.669271 0.265426 0.163955
H10   H     H_    0.729448 0.169804 0.310086 0.114522
H11   H     H_    0.746774 0.547499 0.295149 0.146919
H12   H     H_    0.785830 0.346654 0.262576 0.131598
H13   H     H_    0.273427 0.838790 0.687704 0.118085
H14   H     H_    0.318506 0.486321 0.648562 0.130324
H15   H     H_    0.205796 0.666841 0.742509 0.139077
H16   H     H_    0.632206 0.719056 0.391910 0.205096
H17   H     H_    0.133204 0.894602 0.314215 0.145651
H18   H     H_    0.156638 0.057128 0.360166 0.172675
H19   H     H_    0.861214 0.803530 0.460711 0.166147
N1    N     N_R   0.574690 0.246280 0.438200 -0.177654
N2    N     N_R   0.426100 0.754320 0.561190 -0.204647
O1    O     O_R   0.537340 0.972510 0.318130 -0.579311
O2    O     O_R   0.487200 0.806530 0.359650 -0.598946
O3    O     O_R   0.707380 0.082980 0.479220 -0.585506
O4    O     O_R   0.657240 0.917000 0.520740 -0.604850
O5    O     O_R   0.512800 0.193470 0.640350 -0.587193
O6    O     O_R   0.462660 0.027490 0.681870 -0.584745
O7    O     O_R   0.342760 0.083000 0.479260 -0.587819
O8    O     O_R   0.292620 0.917020 0.520780 -0.599558
H20   H     H_    0.351099 0.092378 0.890955 0.148288
H21   H     H_    0.268644 0.455614 0.218298 0.139583
N3    N     N_2   0.732923 0.522036 0.865023 -0.454699
H22   H     H_    0.781915 0.554702 0.806035 0.247757
C39   C     C_3   0.816617 0.473072 0.902853 -0.713044
H23   H     H_    0.872532 0.406104 0.827269 0.223889
H24   H     H_    0.759649 0.425293 0.955043 0.242767
H25   H     H_    0.884833 0.547782 0.954249 0.222915
H26   H     H_    0.919251 0.894285 0.314006 0.146698
H27   H     H_    0.424551 0.333683 0.561716 0.119025
H28   H     H_    0.917400 0.199431 0.576262 0.174853
H29   H     H_    0.130525 0.199900 0.575481 0.166985
H30   H     H_    0.842263 0.902362 0.611075 0.173999
H31   H     H_    0.072036 0.804178 0.461711 0.167814

loop_
_geom_bond_atom_site_label_1
_geom_bond_atom_site_label_2
_ccdc_geom_bond_type
C2    C35   S    
C18   H20   S    
C24   C25   A    
Cu1   O7    S    
C9    N3    S    
C1    O1    A    
C4    H2    S    
C7    C8    A    
Cu1   O3    S    
C11   C19   A    
C29   C30   A    
Cu2   O2    S    
C39   H24   S    
C35   H18   S    
C23   O5    A    
C28   C29   A    
C26   N2    A    
C29   H11   S    
C12   O3    A    
Cu1   N1    S    
C24   H14   S    
C15   C16   A    
C34   C35   S    
C23   O6    A    
Cu1   O1    S    
C8    C9    A    
C39   H25   S    
C3    H29   S    
C9    C10   A    
C21   N2    A    
C33   O8    A    
C13   C14   A    
C34   H1    S    
C1    O2    A    
C4    C37   S    
C6    C18   A    
C3    H4    S    
C1    C19   S    
Cu2   O8    S    
C27   C31   A    
C17   H6    S    
N3    C39   S    
C36   H28   S    
Cu1   Cu2   S    
C5    C18   A    
C20   C28   A    
C25   C26   A    
C30   H16   S    
Cu2   O6    S    
Cu2   N2    S    
C7    H7    S    
C31   N1    A    
C2    C4    S    
C8    H8    S    
C37   C38   S    
C11   C16   A    
C16   H9    S    
C32   H10   S    
C5    C14   A    
C37   H19   S    
C2    C33   S    
C26   C30   A    
C7    C19   A    
Cu2   O4    S    
Cu1   O5    S    
C22   C24   A    
C37   H30   S    
C32   N1    A    
C20   C32   A    
C6    C17   A    
C34   C38   S    
N3    H22   S    
C10   C13   A    
C31   H27   S    
C22   H15   S    
C25   C27   A    
C15   H21   S    
C12   O4    A    
C13   C17   A    
C35   H17   S    
C36   C38   S    
C2    C3    S    
C20   H12   S    
C34   H26   S    
C21   H13   S    
C4    H31   S    
C5    H5    S    
C3    C36   S    
C6    C23   S    
C12   C38   S    
C10   C11   A    
C39   H23   S    
C27   C28   A    
C14   C15   A    
C36   H3    S    
C21   C22   A    
C33   O7    A    
