data_mof_unit_15592.cif
_audit_creation_date              2013-03-05T16:01:17-0500
_audit_creation_method            fapswitch 2.2
_symmetry_space_group_name_H-M    P1
_symmetry_Int_Tables_number       1
_space_group_crystal_system       triclinic
_cell_length_a                    14.908311
_cell_length_b                    14.903723
_cell_length_c                    17.10287
_cell_angle_alpha                 108.559127
_cell_angle_beta                  73.632378
_cell_angle_gamma                 115.530754
_cell_volume                      3203.89747879

loop_
_atom_site_label
_atom_site_type_symbol
_atom_site_description
_atom_site_fract_x
_atom_site_fract_y
_atom_site_fract_z
_atom_type_partial_charge
O1    O     O_R   0.020090 0.662480 0.528530 -0.568841
O2    O     O_R   0.979910 0.337520 0.471470 -0.568889
O3    O     O_R   0.160710 0.620650 0.491980 -0.498505
O4    O     O_R   0.839290 0.379350 0.508020 -0.501565
C1    C     C_R   0.118709 0.687639 0.511615 0.893423
C2    C     C_R   0.881296 0.312362 0.488405 0.899131
O5    O     O_R   0.921540 0.523360 0.633990 -0.561494
O6    O     O_R   0.078460 0.476640 0.366010 -0.563830
O7    O     O_R   0.062170 0.481520 0.597440 -0.597497
O8    O     O_R   0.937830 0.518480 0.402560 -0.594168
C3    C     C_R   0.987065 0.499598 0.652487 0.851818
C4    C     C_R   0.013039 0.500599 0.347562 0.865310
Cu1   Cu    Cu3+1 0.916740 0.524770 0.521640 1.060720
Cu2   Cu    Cu3+1 0.083260 0.475230 0.478360 1.056994
C5    C     C_R   0.973648 0.487778 0.737639 -0.152916
C6    C     C_R   0.026802 0.513161 0.262614 -0.140612
C7    C     C_R   0.023012 0.434947 0.752540 -0.204361
C8    C     C_R   0.977873 0.566692 0.248108 -0.241981
C9    C     C_R   0.012064 0.422715 0.832735 0.301044
C10   C     C_R   0.989095 0.579634 0.168101 0.299966
C11   C     C_R   0.951022 0.465774 0.899820 -0.097079
C12   C     C_R   0.050077 0.536697 0.100851 -0.093630
C13   C     C_R   0.895825 0.513680 0.884496 0.330669
C14   C     C_R   0.104891 0.488178 0.115843 0.332255
C15   C     C_R   0.908209 0.524200 0.803212 -0.197251
C16   C     C_R   0.092197 0.476873 0.196907 -0.192220
C17   C     C_2   0.956799 0.473926 0.986195 -0.050696
C18   C     C_2   0.044323 0.528906 0.014557 -0.049223
H1    H     H_    0.068710 0.400900 0.701166 0.227947
H2    H     H_    0.932125 0.600528 0.299647 0.225404
H3    H     H_    0.133365 0.439342 0.208552 0.212395
H4    H     H_    0.866735 0.561207 0.791269 0.214035
H5    H     H_    0.111709 0.566378 0.973645 0.201071
H6    H     H_    0.889471 0.436331 0.027093 0.197615
C19   C     C_R   0.187255 0.796022 0.521955 -0.203009
C20   C     C_R   0.812794 0.203968 0.478156 -0.203401
C21   C     C_R   0.222179 0.966469 0.610684 0.342416
C22   C     C_R   0.777943 0.033444 0.389580 0.351209
C23   C     C_R   0.153427 0.870844 0.577984 -0.258960
C24   C     C_R   0.846665 0.129138 0.422187 -0.252510
C25   C     C_R   0.290134 0.823590 0.484188 0.293186
C26   C     C_R   0.709933 0.176359 0.515984 0.289597
C27   C     C_R   0.360592 0.922514 0.513929 -0.066521
C28   C     C_R   0.639512 0.077367 0.486329 -0.066874
C29   C     C_R   0.326822 0.985467 0.587730 -0.072863
C30   C     C_R   0.673303 0.014388 0.412567 -0.066496
C31   C     C_R   0.464650 0.958212 0.476987 0.085365
C32   C     C_R   0.535468 0.041632 0.523292 0.083440
C33   C     C_R   0.500944 0.082645 0.606750 -0.154727
C34   C     C_R   0.499208 0.917217 0.393529 -0.157928
C35   C     C_R   0.398408 0.059991 0.638260 -0.030556
C36   C     C_R   0.601828 0.939800 0.362071 -0.030899
H7    H     H_    0.926534 0.146708 0.400355 0.237600
H8    H     H_    0.073559 0.853320 0.599773 0.238666
H9    H     H_    0.553527 0.130003 0.649530 0.204242
H10   H     H_    0.446679 0.869935 0.350691 0.200898
N1    N     N_R   0.208390 0.438070 0.445820 -0.250604
N2    N     N_R   0.791610 0.561930 0.554180 -0.251382
C37   C     C_R   0.298133 0.331263 0.356171 -0.266874
C38   C     C_R   0.702104 0.669140 0.643438 -0.267065
C39   C     C_R   0.220169 0.366114 0.373227 0.160662
C40   C     C_R   0.779990 0.634209 0.626561 0.160533
C41   C     C_R   0.282671 0.485210 0.495696 0.141947
C42   C     C_R   0.717192 0.514582 0.504389 0.144740
C43   C     C_R   0.372990 0.463693 0.470318 -0.040813
C44   C     C_R   0.627034 0.536358 0.529511 -0.035878
C45   C     C_R   0.372139 0.377018 0.405738 0.124040
C46   C     C_R   0.627982 0.623201 0.593952 0.122078
C47   C     C_R   0.461813 0.520573 0.508655 0.098071
C48   C     C_R   0.538041 0.479313 0.491334 0.103868
C49   C     C_R   0.520042 0.380598 0.439759 -0.142544
C50   C     C_R   0.479484 0.619088 0.560450 -0.141295
C51   C     C_R   0.443170 0.334143 0.392891 -0.131295
C52   C     C_R   0.556674 0.665829 0.607010 -0.128059
H11   H     H_    0.436963 0.261970 0.348508 0.159861
H12   H     H_    0.562772 0.737941 0.651454 0.158996
H13   H     H_    0.301609 0.268337 0.303100 0.182591
H14   H     H_    0.698686 0.732186 0.696408 0.182720
H15   H     H_    0.564178 0.337250 0.434765 0.186153
H16   H     H_    0.434750 0.661967 0.565812 0.186686
C53   C     C_2   0.738714 0.459283 0.417117 0.841586
O9    O     O_2   0.748796 0.378010 0.401721 -0.563529
O10   O     O_R   0.739401 0.497142 0.351849 -0.734388
H17   H     H_    0.750856 0.451395 0.294839 0.351296
C54   C     C_2   0.260127 0.538550 0.583519 0.855098
O11   O     O_2   0.254366 0.501303 0.639818 -0.569092
O12   O     O_R   0.252463 0.633624 0.602891 -0.731651
H18   H     H_    0.238807 0.662172 0.665402 0.332306
C55   C     C_2   0.844909 0.679468 0.691481 0.868492
O13   O     O_2   0.936370 0.716123 0.673691 -0.579000
O14   O     O_R   0.799339 0.688932 0.775678 -0.724819
H19   H     H_    0.850260 0.726838 0.815170 0.369451
C56   C     C_2   0.155133 0.320859 0.308404 0.869310
O15   O     O_2   0.063700 0.283803 0.326267 -0.575983
O16   O     O_R   0.200597 0.311809 0.224188 -0.724605
H20   H     H_    0.149628 0.273886 0.184736 0.369907
N3    N     N_R   0.830498 0.555594 0.950795 0.173421
O17   O     O_R   0.775578 0.508883 0.010631 -0.282788
O18   O     O_R   0.816595 0.634172 0.946392 -0.277742
N4    N     N_R   0.170064 0.446328 0.049341 0.172625
O19   O     O_R   0.226153 0.494135 0.990384 -0.280105
O20   O     O_R   0.182488 0.366484 0.052722 -0.277412
N5    N     N_R   0.938273 0.636255 0.156077 0.158414
O21   O     O_R   0.855910 0.641114 0.206348 -0.242103
O22   O     O_R   0.979312 0.691880 0.100721 -0.276747
N6    N     N_R   0.063151 0.366568 0.845098 0.158508
O23   O     O_R   0.022113 0.310964 0.900468 -0.279240
O24   O     O_R   0.145742 0.362026 0.795053 -0.232086
C57   C     C_2   0.370575 0.104785 0.728163 0.946696
O25   O     O_2   0.298640 0.053612 0.771846 -0.529444
O26   O     O_R   0.429628 0.204662 0.763681 -0.679151
H21   H     H_    0.404063 0.226406 0.825449 0.376176
C58   C     C_2   0.630559 0.895856 0.272109 0.948818
O27   O     O_2   0.580589 0.808082 0.240379 -0.491684
O28   O     O_R   0.712320 0.955873 0.222874 -0.713884
H22   H     H_    0.723754 0.917477 0.162633 0.375567
N7    N     N_R   0.676347 0.253045 0.575998 0.126292
O29   O     O_R   0.612395 0.279949 0.559855 -0.328820
O30   O     O_R   0.715073 0.301088 0.644118 -0.347023
N8    N     N_R   0.323690 0.746907 0.424135 0.126880
O31   O     O_R   0.285010 0.698981 0.355984 -0.346579
O32   O     O_R   0.387507 0.719837 0.440295 -0.327298
N9    N     N_R   0.185161 0.044436 0.663262 0.153744
O33   O     O_R   0.234688 0.138904 0.656988 -0.289489
O34   O     O_R   0.095703 0.019780 0.708775 -0.270879
N10   N     N_R   0.814985 0.955495 0.336989 0.149722
O35   O     O_R   0.904438 0.980184 0.291468 -0.273849
O36   O     O_R   0.765571 0.861051 0.343353 -0.288971

loop_
_geom_bond_atom_site_label_1
_geom_bond_atom_site_label_2
_geom_bond_distance
_ccdc_geom_bond_type
N2    C40   1.383468 A    
C44   C46   1.405364 A    
O12   H18   1.013873 S    
C41   C43   1.434746 A    
C56   O15   1.216632 D    
C7    H1    1.081870 S    
C20   C26   1.416273 A    
O16   H20   1.013953 S    
C37   H13   1.086087 S    
C49   H15   1.075756 S    
N3    O17   1.300861 A    
N9    O33   1.301676 A    
C10   N5    1.441478 S    
C36   C58   1.486151 S    
O5    C3    1.312809 A    
C38   H14   1.086083 S    
N10   O35   1.301611 A    
C52   H12   1.084338 S    
O10   H17   1.013927 S    
O1    C1    1.319110 A    
C9    C11   1.415154 A    
C14   C16   1.399899 A    
C22   N10   1.439279 S    
C57   O26   1.398571 S    
C39   C56   1.479958 S    
C5    C15   1.398739 A    
C23   H8    1.081052 S    
N6    O23   1.301482 A    
C29   C35   1.416490 A    
C46   C52   1.393443 A    
O28   H22   1.013815 S    
C40   C55   1.480085 S    
C30   C36   1.415453 A    
C38   C40   1.392533 A    
O4    Cu1   1.938496 S    
C56   O16   1.398953 S    
C37   C45   1.382598 A    
C21   N9    1.439224 S    
C3    C5    1.469946 S    
C4    C6    1.469692 S    
C28   C30   1.421943 A    
C33   C35   1.395643 A    
C34   C36   1.396719 A    
N1    C41   1.388474 A    
C48   C49   1.407691 A    
C45   C51   1.393113 A    
C55   O14   1.398947 S    
C15   H4    1.079400 S    
C11   C17   1.467271 S    
C16   H3    1.079333 S    
C35   C57   1.485891 S    
C12   C18   1.467223 S    
Cu1   Cu2   2.729909 S    
C41   C54   1.478755 S    
C6    C16   1.398558 A    
C25   C27   1.422882 A    
O2    C2    1.319038 A    
C26   C28   1.422935 A    
O2    Cu2   1.955175 S    
C53   O10   1.397877 S    
N8    O32   1.301679 A    
C53   O9    1.220943 D    
C31   C34   1.406352 A    
C54   O12   1.396419 S    
C17   H6    1.086153 S    
N2    C42   1.388910 A    
C21   C23   1.396776 A    
C37   C39   1.392363 A    
C20   C24   1.395893 A    
C50   C52   1.384197 A    
N3    O18   1.301638 A    
O14   H19   1.013939 S    
C49   C51   1.384112 A    
Cu1   N2    2.050779 S    
O6    Cu2   1.949937 S    
C43   C45   1.405099 A    
C54   O11   1.222782 D    
C34   H10   1.079656 S    
C42   C44   1.434690 A    
C47   C50   1.407129 A    
C19   C23   1.395801 A    
O7    Cu2   1.948949 S    
O7    C3    1.310383 A    
C31   C32   1.414419 A    
O6    C4    1.312875 A    
N4    O20   1.301350 A    
N5    O22   1.301483 A    
C27   C29   1.422006 A    
O3    Cu2   1.938497 S    
O8    C4    1.310172 A    
C8    H2    1.082197 S    
O4    C2    1.307197 A    
C32   C33   1.406286 A    
C13   N3    1.440710 S    
C10   C12   1.415128 A    
C18   H5    1.086139 S    
C11   C13   1.415167 A    
C12   C14   1.414888 A    
O1    Cu1   1.955174 S    
C51   H11   1.084343 S    
C21   C29   1.418760 A    
C17   C18   1.338420 D    
N8    O31   1.301952 A    
C58   O27   1.223381 D    
C5    C7    1.399799 A    
Cu2   N1    2.050779 S    
N10   O36   1.301650 A    
O26   H21   1.013858 S    
C14   N4    1.440361 S    
O3    C1    1.307116 A    
O8    Cu1   1.948949 S    
C26   N7    1.437826 S    
N1    C39   1.383565 A    
N7    O30   1.301949 A    
C50   H16   1.075734 S    
C33   H9    1.079642 S    
N7    O29   1.301672 A    
C22   C24   1.396742 A    
C44   C48   1.439408 A    
N6    O24   1.301637 A    
C43   C47   1.438726 A    
C1    C19   1.477128 S    
N4    O19   1.300844 A    
C7    C9    1.395849 A    
C2    C20   1.477144 S    
C8    C10   1.395972 A    
C13   C15   1.400151 A    
C25   N8    1.437820 S    
C47   C48   1.433203 A    
C19   C25   1.416272 A    
C42   C53   1.478190 S    
C22   C30   1.418579 A    
N9    O34   1.301601 A    
C9    N6    1.441431 S    
O5    Cu1   1.949936 S    
C38   C46   1.382841 A    
C6    C8    1.399916 A    
C24   H7    1.081054 S    
N5    O21   1.301617 A    
C55   O13   1.216592 D    
C57   O25   1.223122 D    
C27   C31   1.427934 A    
C28   C32   1.427880 A    
C58   O28   1.398598 S    
