data_mof_unit_42159.cif
_audit_creation_date              2012-12-10T20:46:18-0500
_audit_creation_method            fapswitch 2.2
_symmetry_space_group_name_H-M    P1
_symmetry_Int_Tables_number       1
_space_group_crystal_system       triclinic
_cell_length_a                    8.722629
_cell_length_b                    8.935074
_cell_length_c                    8.110165
_cell_angle_alpha                 89.990286
_cell_angle_beta                  98.876394
_cell_angle_gamma                 90.020294
_cell_volume                      624.514460588

loop_
_atom_site_label
_atom_site_type_symbol
_atom_type_description
_atom_site_fract_x
_atom_site_fract_y
_atom_site_fract_z
_atom_type_partial_charge
C1    C     C_R   0.500023 0.217998 0.500010 0.922340
C2    C     C_3   0.065215 0.561671 0.847345 -0.711349
C3    C     C_R   0.499955 0.781996 0.499984 0.935943
C4    C     C_R   0.201421 0.492187 0.457167 0.894149
C5    C     C_R   0.798914 0.494795 0.542937 0.944471
C6    C     C_2   0.037805 0.481271 0.432366 -0.072642
C7    C     C_2   0.961601 0.473922 0.566800 -0.042598
C8    C     C_1   0.499995 0.065192 0.500005 -0.198312
C9    C     C_1   0.499970 0.934813 0.499980 -0.200866
C10   C     C_3   0.938330 0.349864 0.177608 -0.704045
H1    H     H_    0.002530 0.574386 0.194387 0.228684
H2    H     H_    0.866674 0.366701 0.053461 0.250656
H3    H     H_    0.876911 0.269765 0.249514 0.238932
H4    H     H_    0.052146 0.301940 0.159705 0.226333
H5    H     H_    0.114321 0.351832 0.745577 0.245556
H6    H     H_    0.136004 0.522476 0.964877 0.235485
H7    H     H_    0.955094 0.609195 0.876772 0.241557
H8    H     H_    0.130492 0.651275 0.793412 0.245665
N1    N     N_1   0.500020 0.500000 0.073650 -0.037733
N2    N     N_1   0.499980 0.500000 0.926350 -0.041548
N3    N     N_2   0.960176 0.491837 0.263891 -0.280364
N4    N     N_2   0.033643 0.437079 0.732741 -0.306161
O1    O     O_R   0.499990 0.285340 0.636850 -0.621522
O2    O     O_R   0.500010 0.714660 0.363150 -0.615663
O3    O     O_R   0.500010 0.285340 0.363150 -0.621059
O4    O     O_R   0.499990 0.714660 0.636850 -0.618069
O5    O     O_R   0.271740 0.500000 0.604850 -0.625515
O6    O     O_R   0.728260 0.500000 0.395150 -0.597517
O7    O     O_R   0.271760 0.500000 0.331110 -0.632810
O8    O     O_R   0.728240 0.500000 0.668890 -0.619596
Zn1   Zn    Zn3+2 0.499990 0.500000 0.682780 0.965082
Zn2   Zn    Zn3+2 0.500010 0.500000 0.317220 0.972517

loop_
_geom_bond_atom_site_label_1
_geom_bond_atom_site_label_2
_ccdc_geom_bond_type
C2    N4    S    
O2    Zn2   S    
C6    C7    D    
C3    C9    S    
C2    H8    S    
C1    C8    S    
C2    H6    S    
C4    O7    A    
O3    Zn2   S    
C5    O6    A    
O4    Zn1   S    
C10   H3    S    
C2    H7    S    
C1    O3    A    
C3    O2    A    
C10   H2    S    
N1    Zn2   S    
C1    O1    A    
O7    Zn2   S    
C3    O4    A    
C10   N3    S    
O8    Zn1   S    
O5    Zn1   S    
C7    N4    S    
O6    Zn2   S    
C4    O5    A    
C4    C6    S    
C5    O8    A    
C10   H4    S    
C5    C7    S    
C6    N3    S    
H1    N3    S    
H5    N4    S    
N1    N2    T    
C8    C9    T    
N2    Zn1   S    
O1    Zn1   S    
