data_mof_unit_51120.cif
_audit_creation_date              2012-12-10T18:32:00-0500
_audit_creation_method            fapswitch 2.2
_symmetry_space_group_name_H-M    P1
_symmetry_Int_Tables_number       1
_space_group_crystal_system       triclinic
_cell_length_a                    10.632364
_cell_length_b                    14.974337
_cell_length_c                    15.441472
_cell_angle_alpha                 82.305816
_cell_angle_beta                  89.388444
_cell_angle_gamma                 104.326641
_cell_volume                      2358.11671176

loop_
_atom_site_label
_atom_site_type_symbol
_atom_type_description
_atom_site_fract_x
_atom_site_fract_y
_atom_site_fract_z
_atom_type_partial_charge
C1    C     C_R   0.478382 0.441684 0.662196 0.861900
C2    C     C_R   0.410607 0.438180 0.901107 0.091010
C3    C     C_R   0.405930 0.344237 0.933828 0.175679
C4    C     C_R   0.742157 0.500726 0.499944 0.827200
C5    C     C_R   0.403912 0.502281 0.959488 0.071050
C6    C     C_R   0.417945 0.476050 0.049236 0.075304
C7    C     C_R   0.405050 0.380728 0.080870 -0.224175
C8    C     C_R   0.396888 0.315655 0.023674 -0.236357
C9    C     C_R   0.385775 0.591846 0.931264 -0.235032
C10   C     C_R   0.395414 0.657038 0.988669 -0.240050
C11   C     C_R   0.430957 0.637103 0.074835 0.118069
C12   C     C_3   0.121276 0.500247 0.499744 0.179852
C13   C     C_R   0.444623 0.546060 0.104391 0.082047
C14   C     C_R   0.451442 0.704722 0.133135 0.002942
C15   C     C_R   0.484332 0.680194 0.219165 -0.252223
C16   C     C_R   0.516076 0.558129 0.337821 0.873055
C17   C     C_R   0.489811 0.527830 0.187445 -0.268241
C18   C     C_R   0.699939 0.845078 0.631568 -0.320233
C19   C     C_R   0.664081 0.754592 0.612632 0.012105
C20   C     C_R   0.515340 0.793744 0.509600 -0.066670
C21   C     C_R   0.547126 0.886954 0.525752 -0.004974
C22   C     C_R   0.642030 0.911675 0.588124 0.183183
C23   C     C_3   0.068057 0.484579 0.408602 -0.405258
C24   C     C_R   0.488517 0.955591 0.482766 0.082984
C25   C     C_R   0.524952 0.048029 0.504086 0.092775
C26   C     C_R   0.622595 0.069728 0.565027 -0.247543
C27   C     C_R   0.679216 0.002616 0.606303 -0.218714
C28   C     C_R   0.257883 0.499744 0.499803 0.824195
C29   C     C_R   0.394423 0.934720 0.419696 -0.240252
C30   C     C_R   0.336104 0.001420 0.379507 -0.207633
C31   C     C_R   0.368178 0.092050 0.400402 0.120417
C32   C     C_R   0.462406 0.115754 0.463926 -0.016535
C33   C     C_R   0.305764 0.159406 0.360824 -0.097873
C34   C     C_3   0.104181 0.595686 0.520749 -0.382210
C35   C     C_R   0.337044 0.247555 0.386395 -0.047546
C36   C     C_R   0.488281 0.206624 0.485969 -0.076015
C37   C     C_3   0.899472 0.422828 0.570388 -0.403720
C38   C     C_3   0.043617 0.422008 0.570085 -0.400457
C39   C     C_3   0.923907 0.485522 0.408669 -0.395126
C40   C     C_3   0.961580 0.596327 0.520943 -0.397340
C41   C     C_3   0.878976 0.501544 0.500017 0.182140
C42   C     C_R   0.436033 0.800282 0.108011 0.113572
C43   C     C_R   0.341376 0.830705 0.151831 -0.158908
C44   C     C_R   0.328883 0.921657 0.130285 -0.139093
C45   C     C_R   0.450513 0.405672 0.754806 -0.062122
C46   C     C_R   0.411316 0.983114 0.065404 -0.112454
C47   C     C_R   0.506565 0.953621 0.022064 -0.135189
C48   C     C_R   0.519401 0.862620 0.043432 -0.167936
C49   C     C_R   0.208554 0.141169 0.293281 0.113889
C50   C     C_R   0.079476 0.143212 0.310785 -0.158049
C51   C     C_R   0.988353 0.128854 0.246176 -0.131766
C52   C     C_R   0.025762 0.113230 0.163606 -0.092148
C53   C     C_R   0.154372 0.112078 0.145494 -0.149535
C54   C     C_R   0.245751 0.126184 0.210014 -0.189700
C55   C     C_R   0.502933 0.591684 0.246092 -0.081695
C56   C     C_R   0.414921 0.280930 0.876236 -0.211236
C57   C     C_R   0.437217 0.311583 0.786861 -0.199974
C58   C     C_R   0.434197 0.467382 0.811489 -0.273069
H1    H     H_    0.840442 0.353859 0.557218 0.174161
H2    H     H_    0.447336 0.262480 0.743368 0.155114
H3    H     H_    0.447201 0.539633 0.785156 0.161441
H4    H     H_    0.867466 0.433585 0.636252 0.155859
H5    H     H_    0.398650 0.354416 0.149828 0.153475
H6    H     H_    0.359610 0.612141 0.865517 0.146838
H7    H     H_    0.752985 0.022223 0.653001 0.141273
H8    H     H_    0.555721 0.231056 0.534066 0.128422
H9    H     H_    0.291434 0.300764 0.357175 0.140994
H10   H     H_    0.263479 0.980399 0.332664 0.154638
H11   H     H_    0.772668 0.862978 0.679268 0.141939
H12   H     H_    0.159507 0.653425 0.471122 0.170162
H13   H     H_    0.708943 0.702430 0.644847 0.130922
H14   H     H_    0.445849 0.767839 0.463130 0.123493
H15   H     H_    0.081941 0.432331 0.635817 0.158983
H16   H     H_    0.659026 0.138338 0.582396 0.133260
H17   H     H_    0.362645 0.866976 0.399503 0.131316
H18   H     H_    0.053630 0.352867 0.556485 0.179060
H19   H     H_    0.865479 0.418054 0.391655 0.182420
H20   H     H_    0.078557 0.416640 0.391892 0.177444
H21   H     H_    0.948238 0.654140 0.471364 0.179308
H22   H     H_    0.931040 0.609642 0.586263 0.173630
H23   H     H_    0.909559 0.541624 0.357593 0.156095
H24   H     H_    0.142202 0.609008 0.586016 0.179730
H25   H     H_    0.277203 0.783913 0.202492 0.120504
H26   H     H_    0.255270 0.944283 0.164042 0.134838
H27   H     H_    0.401684 0.053596 0.048849 0.105891
H28   H     H_    0.570752 0.001380 0.972121 0.125061
H29   H     H_    0.594374 0.840804 0.010040 0.130566
H30   H     H_    0.049580 0.155756 0.374398 0.126373
H31   H     H_    0.888843 0.130100 0.260045 0.132071
H32   H     H_    0.955199 0.102291 0.113597 0.122558
H33   H     H_    0.183276 0.100440 0.081378 0.122953
H34   H     H_    0.124060 0.540192 0.357466 0.157538
H35   H     H_    0.345400 0.125839 0.195149 0.129287
H36   H     H_    0.390477 0.243750 0.049728 0.139205
H37   H     H_    0.515039 0.462992 0.208176 0.160276
H38   H     H_    0.493822 0.729872 0.265239 0.161136
H39   H     H_    0.377822 0.723752 0.964061 0.161794
H40   H     H_    0.409109 0.208627 0.900628 0.128581
N1    N     N_R   0.573860 0.731700 0.552730 -0.099256
N2    N     N_R   0.426060 0.268290 0.447230 -0.104972
O1    O     O_R   0.462770 0.383110 0.605620 -0.614700
O2    O     O_R   0.510160 0.531900 0.639510 -0.619703
O3    O     O_R   0.661510 0.425600 0.483070 -0.626304
O4    O     O_R   0.708900 0.574390 0.516960 -0.625589
O5    O     O_R   0.489840 0.468100 0.360490 -0.617675
O6    O     O_R   0.537230 0.616890 0.394380 -0.615490
O7    O     O_R   0.291100 0.425610 0.483040 -0.624496
O8    O     O_R   0.338490 0.574400 0.516930 -0.631284
Zn1   Zn    Zn3+2 0.468350 0.400660 0.477370 0.927386
Zn2   Zn    Zn3+2 0.531650 0.599340 0.522630 0.927158

loop_
_geom_bond_atom_site_label_1
_geom_bond_atom_site_label_2
_ccdc_geom_bond_type
C9    H6    S    
C43   H25   S    
C19   H13   S    
C56   H40   S    
C18   H11   S    
C37   H4    S    
C7    C8    A    
C39   C41   S    
C38   H18   S    
C53   C54   A    
C12   C23   S    
C45   C57   A    
C26   C27   A    
C37   C38   S    
C12   C28   S    
C34   C40   S    
C39   H19   S    
C28   O8    A    
C30   C31   A    
C11   C14   A    
C36   H8    S    
C4    C41   S    
C28   O7    A    
C33   C49   S    
C49   C54   A    
C4    O3    A    
C56   C57   A    
C18   C19   A    
C24   C29   A    
C54   H35   S    
C33   C35   A    
C52   H32   S    
C47   C48   A    
C53   H33   S    
C40   H22   S    
C17   H37   S    
C9    C10   A    
C17   C55   A    
C23   H34   S    
C16   O6    A    
C14   C42   S    
C46   H27   S    
C25   C32   A    
N2    Zn1   S    
C21   C22   A    
C12   C38   S    
O7    Zn1   S    
C44   C46   A    
C45   C58   A    
C48   H29   S    
C51   C52   A    
C47   H28   S    
C8    H36   S    
C24   C25   A    
C39   H23   S    
C3    C8    A    
C15   H38   S    
C19   N1    A    
C34   H12   S    
C57   H2    S    
C25   C26   A    
N1    Zn2   S    
C15   C55   A    
C10   H39   S    
C43   C44   A    
C5    C9    A    
C29   C30   A    
C27   H7    S    
C3    C56   A    
C31   C32   A    
C35   H9    S    
C31   C33   A    
C50   C51   A    
C40   H21   S    
C36   N2    A    
C42   C48   A    
C7    H5    S    
C37   H1    S    
C16   O5    A    
C40   C41   S    
C22   C27   A    
O2    Zn2   S    
C2    C5    A    
C42   C43   A    
C12   C34   S    
C35   N2    A    
C1    O1    A    
C52   C53   A    
O6    Zn2   S    
O5    Zn1   S    
C46   C47   A    
C18   C22   A    
C44   H26   S    
C32   C36   A    
C6    C7    A    
C29   H17   S    
C50   H30   S    
C13   C17   A    
O3    Zn1   S    
C2    C3    A    
C16   C55   S    
C51   H31   S    
C6    C13   A    
O4    Zn2   S    
C11   C13   A    
C1    C45   S    
C5    C6    A    
C20   N1    A    
C58   H3    S    
C23   C39   S    
C4    O4    A    
C26   H16   S    
O8    Zn2   S    
C23   H20   S    
C37   C41   S    
C2    C58   A    
C10   C11   A    
C20   C21   A    
C49   C50   A    
C21   C24   A    
C14   C15   A    
C20   H14   S    
C34   H24   S    
O1    Zn1   S    
C1    O2    A    
C30   H10   S    
C38   H15   S    
