data_mof_unit_59964.cif
_audit_creation_date              2013-03-05T15:50:58-0500
_audit_creation_method            fapswitch 2.2
_symmetry_space_group_name_H-M    P1
_symmetry_Int_Tables_number       1
_space_group_crystal_system       triclinic
_cell_length_a                    6.921262
_cell_length_b                    17.593281
_cell_length_c                    19.230925
_cell_angle_alpha                 109.534676
_cell_angle_beta                  90.234495
_cell_angle_gamma                 90.540709
_cell_volume                      2206.7518711

loop_
_atom_site_label
_atom_site_type_symbol
_atom_site_description
_atom_site_fract_x
_atom_site_fract_y
_atom_site_fract_z
_atom_type_partial_charge
O1    O     O_R   0.505810 0.439670 0.562310 -0.597421
O2    O     O_R   0.169070 0.404920 0.411210 -0.592105
O3    O     O_R   0.005550 0.560330 0.437690 -0.598571
C1    C     C_R   0.338629 0.381530 0.382987 0.953008
O4    O     O_R   0.175650 0.430000 0.560110 -0.596225
O5    O     O_R   0.012170 0.585580 0.587650 -0.594438
C2    C     C_R   0.344408 0.418836 0.585138 0.954674
O6    O     O_R   0.499180 0.414420 0.412350 -0.592847
O7    O     O_3   0.341430 0.551020 0.508860 -0.277543
V1    V     V_3+5 0.063930 0.490540 0.498360 1.158760
O8    O     O_R   0.682850 0.595080 0.588790 -0.605178
C3    C     C_R   0.853103 0.619153 0.616400 0.910687
O9    O     O_R   0.676280 0.570000 0.439890 -0.598859
C4    C     C_R   0.845218 0.584873 0.417924 0.949691
V2    V     V_3+5 0.564760 0.509460 0.501640 1.152723
O10   O     O_3   0.837130 0.448980 0.491140 -0.264690
C5    C     C_R   0.751054 0.868274 0.174528 -0.146043
C6    C     C_R   0.913338 0.863692 0.129707 -0.188321
C7    C     C_R   0.062853 0.810434 0.130899 -0.159315
C8    C     C_R   0.050169 0.760349 0.174912 -0.029074
C9    C     C_R   0.889954 0.768938 0.222559 0.031593
C10   C     C_R   0.739931 0.822647 0.221823 0.198784
C11   C     C_R   0.194077 0.702806 0.173698 0.342520
C12   C     C_R   0.183752 0.660591 0.224175 -0.341196
C13   C     C_R   0.028004 0.670522 0.272615 0.095425
C14   C     C_R   0.878377 0.723503 0.270811 0.060217
C15   C     C_R   0.716713 0.731008 0.317239 0.180658
C16   C     C_R   0.568488 0.784120 0.315369 -0.198092
C17   C     C_R   0.580198 0.829655 0.268248 -0.154089
C18   C     C_R   0.017432 0.626604 0.321603 -0.204737
C19   C     C_R   0.856408 0.633237 0.367726 -0.155173
C20   C     C_R   0.705748 0.685217 0.364655 -0.244752
H1    H     H_    0.634676 0.908793 0.173788 0.167363
H2    H     H_    0.188875 0.808817 0.097449 0.178323
H3    H     H_    0.295124 0.617598 0.223937 0.181731
H4    H     H_    0.133068 0.585845 0.322688 0.132629
H5    H     H_    0.581006 0.690869 0.399881 0.142505
H6    H     H_    0.443085 0.790393 0.350324 0.142369
H7    H     H_    0.463477 0.870137 0.267828 0.150172
C21   C     C_3   0.718281 0.791500 0.762981 -0.075291
C22   C     C_3   0.842011 0.779415 0.693272 -0.111225
H8    H     H_    0.805498 0.801723 0.647287 0.134718
H9    H     H_    0.579532 0.824369 0.775137 0.119791
C23   C     C_3   0.868817 0.690458 0.686275 -0.104755
C24   C     C_3   0.744805 0.701794 0.755024 -0.149391
C25   C     C_3   0.929283 0.724058 0.803958 -0.143436
C26   C     C_3   0.053367 0.712352 0.734358 -0.105151
C27   C     C_3   0.026389 0.802157 0.742306 -0.095741
C28   C     C_3   0.902669 0.813035 0.811207 -0.098322
H10   H     H_    0.622742 0.662148 0.758209 0.121545
H11   H     H_    0.965644 0.701357 0.849721 0.122737
H12   H     H_    0.192745 0.680222 0.721546 0.111062
H13   H     H_    0.143089 0.843878 0.737645 0.131593
C29   C     C_3   0.558116 0.282111 0.277976 -0.171615
C30   C     C_3   0.488975 0.194924 0.263491 0.404798
H14   H     H_    0.701572 0.307134 0.301045 0.153913
C31   C     C_3   0.413184 0.189259 0.187357 -0.244157
C32   C     C_3   0.478178 0.277184 0.200927 -0.194738
C33   C     C_3   0.278941 0.307392 0.236054 -0.111268
C34   C     C_3   0.213539 0.218837 0.222032 -0.074407
C35   C     C_3   0.292249 0.223476 0.299162 -0.196638
C36   C     C_3   0.357779 0.311252 0.312262 -0.157436
H15   H     H_    0.554967 0.299166 0.160630 0.126104
H16   H     H_    0.189776 0.354260 0.224954 0.107391
H17   H     H_    0.070472 0.193280 0.198986 0.156544
H18   H     H_    0.217029 0.200916 0.339408 0.170912
C37   C     C_R   0.261937 0.123249 0.818222 -0.170941
C38   C     C_R   0.418454 0.132100 0.866943 -0.158894
C39   C     C_R   0.568797 0.185769 0.866755 -0.208599
C40   C     C_R   0.561165 0.234156 0.821376 0.154261
C41   C     C_R   0.401865 0.224852 0.772269 0.019951
C42   C     C_R   0.254865 0.166680 0.768515 -0.012164
C43   C     C_R   0.709326 0.291033 0.823098 0.200863
C44   C     C_R   0.691612 0.339510 0.778603 -0.296472
C45   C     C_R   0.528724 0.334825 0.733146 0.087339
C46   C     C_R   0.388368 0.274218 0.727353 0.001413
C47   C     C_R   0.231852 0.264151 0.677889 0.101070
C48   C     C_R   0.090948 0.204938 0.672875 -0.295212
C49   C     C_R   0.101385 0.155383 0.716719 0.323850
C50   C     C_R   0.501198 0.390443 0.694499 0.179080
C51   C     C_R   0.356022 0.373578 0.638308 -0.222308
C52   C     C_R   0.220683 0.311661 0.632200 -0.235584
H19   H     H_    0.145793 0.082353 0.819792 0.171161
H20   H     H_    0.688863 0.190600 0.904056 0.128586
H21   H     H_    0.807016 0.382069 0.780769 0.146060
H22   H     H_    0.105668 0.300250 0.591398 0.156174
H23   H     H_    0.973067 0.196198 0.633576 0.186079
O11   O     O_R   0.271890 0.085690 0.087580 -0.596354
O12   O     O_R   0.595690 0.070020 0.939870 -0.599170
O13   O     O_R   0.758900 0.914390 0.912370 -0.593863
C53   C     C_R   0.426963 0.084245 0.917431 0.939696
O14   O     O_R   0.602020 0.095100 0.088770 -0.592038
O15   O     O_R   0.765280 0.939660 0.062330 -0.587861
C54   C     C_R   0.432425 0.118667 0.116856 0.979192
O16   O     O_R   0.265520 0.060430 0.937620 -0.604681
O17   O     O_3   0.429560 0.949050 0.991100 -0.269557
V3    V     V_3+5 0.707160 0.009450 0.001650 1.180671
O18   O     O_R   0.094540 0.929890 0.060190 -0.597110
C55   C     C_R   0.925395 0.914404 0.081558 0.984529
O19   O     O_R   0.088200 0.904800 0.911290 -0.599141
C56   C     C_R   0.918253 0.882368 0.882503 0.929465
V4    V     V_3+5 0.206300 0.990390 0.998440 1.177868
O20   O     O_3   0.934030 0.050940 0.008900 -0.281259
N1    N     N_R   0.603492 0.132846 0.278114 0.227429
O21   O     O_R   0.777799 0.149088 0.304884 -0.421841
O22   O     O_R   0.530491 0.061023 0.265211 -0.434552
C57   C     C_3   0.889290 0.302239 0.871292 -0.429412
C58   C     C_3   0.852389 0.352274 0.952438 -0.307205
C59   C     C_3   0.800700 0.439546 0.962630 -0.767442
H24   H     H_    0.909665 0.467288 0.935932 0.249457
H25   H     H_    0.655673 0.441953 0.938740 0.248568
H26   H     H_    0.796750 0.475040 0.022417 0.256411
H27   H     H_    0.734999 0.324769 0.975589 0.190701
H28   H     H_    0.986081 0.352415 0.984712 0.197531
H29   H     H_    0.947786 0.242633 0.867796 0.157539
H30   H     H_    0.007088 0.331930 0.850199 0.187244
C60   C     C_3   0.606340 0.472124 0.720970 -0.437230
C61   C     C_3   0.553311 0.521599 0.801151 -0.270099
C62   C     C_3   0.343149 0.548891 0.807842 -0.864361
H31   H     H_    0.313609 0.583281 0.770138 0.234390
H32   H     H_    0.243538 0.495967 0.794102 0.253995
H33   H     H_    0.314821 0.588324 0.865317 0.272117
H34   H     H_    0.577108 0.487127 0.839025 0.213065
H35   H     H_    0.649849 0.575288 0.821088 0.191204
H36   H     H_    0.764898 0.463260 0.716039 0.153837
H37   H     H_    0.571880 0.510374 0.687347 0.195475
N2    N     N_R   0.958268 0.092585 0.706036 0.232676
O23   O     O_R   0.011495 0.019220 0.697228 -0.414062
O24   O     O_R   0.780739 0.104716 0.690218 -0.400843
N3    N     N_R   0.345455 0.683183 0.119604 0.232163
O25   O     O_R   0.304986 0.672290 0.050775 -0.425226
O26   O     O_R   0.511762 0.658894 0.135423 -0.420329

loop_
_geom_bond_atom_site_label_1
_geom_bond_atom_site_label_2
_geom_bond_distance
_ccdc_geom_bond_type
C48   H23   1.084130 S    
C9    C14   1.414863 A    
C37   H19   1.081010 S    
C10   C17   1.404129 A    
O17   V4    1.700296 S    
C22   H8    1.110000 S    
O2    C1    1.306188 A    
C7    C8    1.413665 A    
C4    C19   1.486803 S    
C1    O6    1.285573 A    
N1    O22   1.300300 A    
C51   C52   1.404323 A    
C47   C48   1.399455 A    
C25   C28   1.537381 S    
C33   H16   1.110205 S    
C25   H11   1.110174 S    
C47   C52   1.403016 A    
C9    C10   1.413708 A    
C16   C17   1.397979 A    
C6    C7    1.407773 A    
C42   C49   1.419531 A    
C59   H25   1.109270 S    
C28   C56   1.502426 S    
C41   C46   1.418336 A    
C43   C57   1.520866 S    
V2    O10   2.150352 S    
C1    C36   1.508690 S    
C13   C18   1.405769 A    
C38   C53   1.483960 S    
C58   C59   1.527587 S    
C37   C42   1.410247 A    
C43   C44   1.401349 A    
C58   H28   1.111608 S    
C61   C62   1.528497 S    
C50   C60   1.530284 S    
O8    V2    2.005792 S    
C35   H18   1.110154 S    
C21   H9    1.110487 S    
C19   C20   1.407384 A    
C38   C39   1.399314 A    
C11   C12   1.407383 A    
C40   C41   1.420906 A    
O1    V2    1.996950 S    
O12   C53   1.298545 A    
O7    V1    2.162505 S    
O15   C55   1.295404 A    
O13   V3    1.992272 S    
C35   C36   1.542604 S    
C23   C26   1.542015 S    
C33   C34   1.552296 S    
O9    C4    1.298575 A    
V4    O20   2.150377 S    
C5    H1    1.083832 S    
O19   V4    2.005572 S    
N1    O21   1.300841 A    
O14   V3    1.987331 S    
C29   H14   1.110853 S    
C62   H32   1.110829 S    
C27   H13   1.110234 S    
O11   C54   1.285454 A    
C12   H3    1.084005 S    
C44   C45   1.408544 A    
C37   C38   1.402353 A    
C12   C13   1.401158 A    
C59   H26   1.110432 S    
O4    C2    1.302864 A    
C48   C49   1.403043 A    
C31   C34   1.553662 S    
C29   C36   1.554039 S    
C32   C33   1.556180 S    
C52   H22   1.084537 S    
C30   N1    1.456031 S    
C11   N3    1.440370 S    
O12   V3    1.999257 S    
C34   C35   1.554081 S    
C58   H27   1.110023 S    
N3    O26   1.301316 A    
C45   C46   1.411802 A    
N2    O24   1.301213 A    
O13   C56   1.290050 A    
C26   C27   1.548799 S    
C8    C11   1.421591 A    
C16   H6    1.083681 S    
C57   C58   1.537579 S    
O17   V3    2.162408 S    
C17   H7    1.083794 S    
C40   C43   1.418503 A    
O14   C54   1.306170 A    
C5    C6    1.405069 A    
C14   C15   1.413770 A    
C61   H35   1.108793 S    
C20   H5    1.084231 S    
C46   C47   1.408915 A    
C57   H29   1.108707 S    
V3    O20   1.710667 S    
O3    C4    1.295271 A    
C21   C22   1.548527 S    
C2    C51   1.493643 S    
C34   H17   1.110781 S    
O6    V2    2.002388 S    
C31   C54   1.508944 S    
C30   C31   1.524425 S    
C29   C32   1.554225 S    
C22   C23   1.538421 S    
C6    C55   1.487299 S    
N2    O23   1.301398 A    
O2    V1    1.987420 S    
O15   V3    1.998701 S    
C23   C24   1.536443 S    
C60   H37   1.104813 S    
C62   H33   1.110394 S    
C32   H15   1.110179 S    
C49   N2    1.438732 S    
C29   C30   1.535829 S    
C27   C28   1.538943 S    
C33   C36   1.541556 S    
C15   C20   1.406043 A    
O1    C2    1.295723 A    
C50   C51   1.427037 A    
C7    H2    1.080846 S    
O5    V1    1.992216 S    
O11   V4    2.003245 S    
C62   H31   1.108190 S    
O16   V4    2.003160 S    
C26   H12   1.109025 S    
C5    C10   1.401862 A    
C18   H4    1.084392 S    
O9    V2    1.994547 S    
N3    O25   1.301357 A    
C13   C14   1.407873 A    
C41   C42   1.420610 A    
C3    C23   1.503377 S    
O3    V1    1.998918 S    
O18   V4    1.994672 S    
C60   C61   1.543724 S    
O5    C3    1.290549 A    
C31   C32   1.542495 S    
C18   C19   1.408462 A    
C24   H10   1.105383 S    
C30   C35   1.538486 S    
O19   C56   1.298300 A    
C22   C27   1.551127 S    
C61   H34   1.105335 S    
C44   H21   1.080715 S    
O7    V2    1.702458 S    
C39   C40   1.409373 A    
C57   H30   1.112880 S    
C25   C26   1.549158 S    
C53   O16   1.295519 A    
C24   C25   1.550315 S    
O4    V1    1.999095 S    
C45   C50   1.426485 A    
C21   C24   1.546644 S    
C8    C9    1.418080 A    
O18   C55   1.298620 A    
C15   C16   1.402560 A    
C39   H20   1.079534 S    
V1    O10   1.710746 S    
C59   H24   1.111036 S    
C60   H36   1.109883 S    
C21   C28   1.542252 S    
O8    C3    1.298043 A    
