data_mof_unit_13891.cif
_audit_creation_date              2012-12-11T15:08:32-0500
_audit_creation_method            fapswitch 2.2
_symmetry_space_group_name_H-M    P1
_symmetry_Int_Tables_number       1
_space_group_crystal_system       triclinic
_cell_length_a                    26.804753
_cell_length_b                    7.097033
_cell_length_c                    12.044835
_cell_angle_alpha                 90.000091
_cell_angle_beta                  103.734075
_cell_angle_gamma                 90.000912
_cell_volume                      2225.82598284

loop_
_atom_site_label
_atom_site_type_symbol
_atom_type_description
_atom_site_fract_x
_atom_site_fract_y
_atom_site_fract_z
_atom_type_partial_charge
O1    O     O_R   0.437360 0.505910 0.042120 -0.539242
O2    O     O_R   0.562640 0.005910 0.957880 -0.539241
O3    O     O_R   0.542480 0.176660 0.157100 -0.540813
O4    O     O_R   0.457520 0.676660 0.842900 -0.540815
C1    C     C_R   0.556880 0.344513 0.197275 0.706455
C2    C     C_R   0.443119 0.844511 0.802726 0.706455
O5    O     O_R   0.436520 0.176250 0.054800 -0.542574
O6    O     O_R   0.563480 0.676250 0.945200 -0.542573
O7    O     O_R   0.455920 0.005040 0.854840 -0.538190
O8    O     O_R   0.544080 0.505040 0.145160 -0.538191
C3    C     C_R   0.417396 0.345297 0.062359 0.712662
C4    C     C_R   0.582604 0.845300 0.937639 0.712661
O9    O     O_3   0.506490 0.338900 0.934520 -0.375646
O10   O     O_3   0.493510 0.838900 0.065480 -0.375643
V1    V     V_3+5 0.498800 0.064400 0.012150 1.419670
V2    V     V_3+5 0.501200 0.564400 0.987850 1.419668
C5    C     C_R   0.679887 0.943214 0.764365 -0.165321
C6    C     C_R   0.320115 0.443118 0.235649 -0.165315
H1    H     H_    0.773518 0.973977 0.728845 0.138465
H2    H     H_    0.226484 0.473852 0.271172 0.138464
H3    H     H_    0.680909 0.986894 0.678642 0.133656
H4    H     H_    0.319094 0.486754 0.321380 0.133653
C7    C     C_R   0.631290 0.859416 0.902713 -0.040997
C8    C     C_R   0.368710 0.359401 0.097284 -0.040988
C9    C     C_R   0.868042 0.822576 0.207878 -0.178582
C10   C     C_R   0.131957 0.322640 0.792116 -0.178583
C11   C     C_R   0.822173 0.805422 0.242793 0.206380
C12   C     C_R   0.177826 0.305513 0.757197 0.206401
C13   C     C_R   0.775196 0.818987 0.162102 -0.181010
C14   C     C_R   0.224803 0.319055 0.837890 -0.181007
C15   C     C_R   0.772964 0.850369 0.044815 0.047359
C16   C     C_R   0.227035 0.350386 0.955182 0.047355
C17   C     C_R   0.820119 0.874547 0.011136 0.060379
C18   C     C_R   0.179881 0.374536 0.988865 0.060378
C19   C     C_R   0.725433 0.863190 0.960377 0.081863
C20   C     C_R   0.274567 0.363184 0.039621 0.081865
C21   C     C_R   0.726052 0.913631 0.846566 0.099697
C22   C     C_R   0.273949 0.413570 0.153441 0.099696
C23   C     C_R   0.772739 0.937580 0.815849 -0.198327
C24   C     C_R   0.227262 0.437495 0.184163 -0.198327
C25   C     C_R   0.819020 0.915705 0.896219 -0.192554
C26   C     C_R   0.180981 0.415645 0.103790 -0.192551
C27   C     C_R   0.677165 0.829025 0.984933 -0.274367
C28   C     C_R   0.322835 0.329047 0.015058 -0.274368
C29   C     C_R   0.632445 0.923278 0.792819 0.141714
C30   C     C_R   0.367557 0.423200 0.207191 0.141719
C31   C     C_R   0.867518 0.857746 0.093427 -0.116793
C32   C     C_R   0.132482 0.357759 0.906573 -0.116795
H5    H     H_    0.673715 0.781937 0.067866 0.109503
H6    H     H_    0.326284 0.282003 0.932116 0.109497
H7    H     H_    0.904460 0.809682 0.270136 0.102157
H8    H     H_    0.095539 0.309768 0.729855 0.102156
H9    H     H_    0.741111 0.807656 0.194370 0.122365
H10   H     H_    0.258888 0.307744 0.805618 0.122366
H11   H     H_    0.854061 0.935246 0.867735 0.127000
H12   H     H_    0.145941 0.435166 0.132276 0.126994
C33   C     C_R   0.090409 0.854839 0.311739 -0.033323
C34   C     C_R   0.909589 0.354826 0.688263 -0.033334
C35   C     C_R   0.408473 0.853929 0.689119 -0.075839
C36   C     C_R   0.591524 0.353938 0.310884 -0.075844
C37   C     C_R   0.105073 0.778977 0.512218 -0.155735
C38   C     C_R   0.894920 0.278823 0.487801 -0.155739
C39   C     C_R   0.071338 0.807054 0.406191 -0.182383
C40   C     C_R   0.928656 0.306940 0.593822 -0.182373
C41   C     C_R   0.143232 0.873072 0.322927 -0.215117
C42   C     C_R   0.856767 0.373115 0.677071 -0.215127
C43   C     C_R   0.178552 0.841033 0.429014 0.078329
C44   C     C_R   0.821445 0.341022 0.570992 0.078330
C45   C     C_R   0.158324 0.794780 0.524293 0.132867
C46   C     C_R   0.841670 0.294674 0.475724 0.132875
C47   C     C_R   0.232991 0.853353 0.443425 0.050267
C48   C     C_R   0.767006 0.353371 0.556581 0.050263
C49   C     C_R   0.266392 0.823928 0.553787 0.065241
C50   C     C_R   0.733604 0.323893 0.446225 0.065243
C51   C     C_R   0.244113 0.777224 0.645630 -0.212351
C52   C     C_R   0.755880 0.277099 0.354392 -0.212344
C53   C     C_R   0.191270 0.764044 0.630922 -0.219861
C54   C     C_R   0.808723 0.263887 0.369102 -0.219879
C55   C     C_R   0.255045 0.893477 0.350840 -0.206126
C56   C     C_R   0.744953 0.393568 0.649158 -0.206126
C57   C     C_R   0.307518 0.911513 0.365325 -0.200549
C58   C     C_R   0.692480 0.411619 0.634671 -0.200548
C59   C     C_R   0.341110 0.891054 0.472985 0.115337
C60   C     C_R   0.658888 0.391115 0.527015 0.115331
C61   C     C_R   0.320854 0.844212 0.568707 0.051173
C62   C     C_R   0.679142 0.344211 0.431301 0.051171
C63   C     C_R   0.394685 0.919701 0.487026 0.171315
C64   C     C_R   0.605313 0.419784 0.512969 0.171311
C65   C     C_R   0.427618 0.901989 0.595333 -0.172793
C66   C     C_R   0.572381 0.402048 0.404663 -0.172796
C67   C     C_R   0.355934 0.824137 0.676354 -0.226978
C68   C     C_R   0.644062 0.324115 0.323655 -0.226972
H13   H     H_    0.176036 0.728947 0.704073 0.149796
H14   H     H_    0.823955 0.228721 0.295959 0.149805
H15   H     H_    0.343899 0.790228 0.753128 0.105454
H16   H     H_    0.656097 0.290176 0.246885 0.105457
H17   H     H_    0.468357 0.927669 0.607157 0.115501
H18   H     H_    0.531643 0.427750 0.392833 0.115514
H19   H     H_    0.321270 0.943499 0.289959 0.152642
H20   H     H_    0.678729 0.443656 0.710033 0.152645
H21   H     H_    0.089563 0.742381 0.584712 0.116883
H22   H     H_    0.910427 0.242150 0.415316 0.116883
H23   H     H_    0.030424 0.789869 0.397486 0.101730
H24   H     H_    0.969569 0.289706 0.602532 0.101737
H25   H     H_    0.155091 0.909296 0.246288 0.102587
H26   H     H_    0.844909 0.409417 0.753700 0.102595
H27   H     H_    0.266285 0.749547 0.730895 0.135026
H28   H     H_    0.733707 0.249364 0.269136 0.135025
H29   H     H_    0.232917 0.911887 0.264550 0.137559
H30   H     H_    0.767083 0.412017 0.735446 0.137559
O11   O     O_R   0.955980 0.206520 0.854760 -0.539056
O12   O     O_R   0.044020 0.706520 0.145240 -0.539055
O13   O     O_R   0.063490 0.536770 0.945200 -0.542100
O14   O     O_R   0.936510 0.036770 0.054800 -0.542100
C69   C     C_R   0.082903 0.368258 0.938542 0.688923
C70   C     C_R   0.917097 0.868256 0.061458 0.688920
O15   O     O_R   0.957530 0.536190 0.842880 -0.541708
O16   O     O_R   0.042470 0.036190 0.157120 -0.541708
O17   O     O_R   0.937350 0.707210 0.042130 -0.536417
O18   O     O_R   0.062650 0.207210 0.957870 -0.536417
C71   C     C_R   0.944012 0.367164 0.801956 0.690393
C72   C     C_R   0.055986 0.867166 0.198045 0.690391
O19   O     O_3   0.993540 0.373870 0.065440 -0.374487
O20   O     O_3   0.006460 0.873870 0.934560 -0.374488
V3    V     V_3+5 0.001200 0.648440 0.987860 1.421055
V4    V     V_3+5 0.998800 0.148440 0.012140 1.421054
C73   C     C_3   0.583447 0.972632 0.706788 -0.824760
H31   H     H_    0.590672 0.012709 0.622825 0.223115
H32   H     H_    0.556590 0.851593 0.694046 0.192150
H33   H     H_    0.564214 0.091650 0.739314 0.217816
C74   C     C_3   0.416557 0.472505 0.293232 -0.824799
H34   H     H_    0.409333 0.512547 0.377201 0.223126
H35   H     H_    0.443410 0.351458 0.305952 0.192165
H36   H     H_    0.435795 0.591530 0.260726 0.217797
C75   C     C_3   0.417196 0.977988 0.389079 -0.817016
H37   H     H_    0.459353 0.001079 0.415798 0.213448
H38   H     H_    0.409436 0.869484 0.321344 0.215741
H39   H     H_    0.398704 0.110572 0.353128 0.225785
C76   C     C_3   0.582803 0.478124 0.610908 -0.817016
H40   H     H_    0.540647 0.501222 0.584184 0.213446
H41   H     H_    0.590559 0.369643 0.678657 0.215737
H42   H     H_    0.601298 0.610718 0.646840 0.225784
C77   C     C_3   0.822758 0.772209 0.366310 -0.774916
H43   H     H_    0.862445 0.756051 0.419752 0.211338
H44   H     H_    0.804037 0.890937 0.400142 0.219720
H45   H     H_    0.800735 0.643381 0.374201 0.225423
C78   C     C_3   0.177240 0.272355 0.633675 -0.774911
H46   H     H_    0.137553 0.256219 0.580230 0.211337
H47   H     H_    0.195964 0.391100 0.599863 0.219723
H48   H     H_    0.199260 0.143533 0.625760 0.225415

loop_
_geom_bond_atom_site_label_1
_geom_bond_atom_site_label_2
_ccdc_geom_bond_type
C75   H39   S    
C42   C44   A    
C51   H27   S    
C7    C29   A    
O11   C71   A    
C48   C50   A    
C59   C63   A    
C78   H46   S    
O1    C3    A    
C74   H36   S    
O2    C4    A    
C2    O7    A    
C47   C55   A    
C61   C67   A    
C75   H37   S    
C23   C25   A    
O5    C3    A    
C14   H10   S    
C4    C7    S    
C50   C52   A    
C16   C20   A    
C78   H47   S    
C52   C54   A    
C35   C65   A    
O14   V4    S    
C76   H42   S    
O18   V4    S    
O19   V3    S    
C46   C54   A    
C37   C45   A    
C77   H43   S    
C3    C8    S    
C68   H16   S    
C48   C56   A    
C7    C27   A    
C11   C13   A    
C38   C46   A    
C77   H44   S    
O16   C72   A    
C37   C39   A    
O15   C71   A    
C25   H11   S    
C38   C40   A    
C26   H12   S    
C33   C72   S    
C45   C53   A    
C34   C42   A    
C41   C43   A    
C18   C26   A    
C11   C77   S    
C15   C17   A    
C19   C27   A    
C9    C31   A    
C10   C32   A    
O5    V1    S    
C52   H28   S    
C22   C24   A    
C13   C15   A    
C49   C51   A    
C73   H32   S    
C42   H26   S    
C6    C30   A    
C41   H25   S    
C10   C12   A    
C57   C59   A    
C33   C39   A    
C36   C68   A    
C34   C40   A    
C31   C70   S    
C55   H29   S    
C63   C75   S    
C78   H48   S    
C39   H23   S    
C77   H45   S    
C30   C74   S    
C47   C49   A    
C27   H5    S    
O19   V4    S    
C35   C67   A    
C57   H19   S    
O3    C1    A    
C5    H3    S    
C5    C29   A    
C65   H17   S    
C44   C48   A    
C43   C45   A    
C16   C18   A    
O4    V2    S    
C37   H21   S    
C9    H7    S    
C64   C76   S    
O12   C72   A    
C10   H8    S    
O6    C4    A    
C34   C71   S    
O11   V4    S    
O1    V2    S    
C5    C21   A    
C50   C62   A    
O2    V1    S    
C51   C53   A    
C49   C61   A    
O12   V3    S    
H1    C23   S    
C32   C69   S    
O17   V3    S    
C56   C58   A    
C59   C61   A    
C8    C28   A    
C64   C66   A    
C58   C60   A    
C63   C65   A    
C17   C31   A    
C15   C19   A    
C20   C28   A    
O4    C2    A    
C18   C32   A    
C74   H34   S    
O3    V1    S    
O20   V4    S    
C28   H6    S    
C75   H38   S    
C12   C78   S    
C1    C36   S    
C19   C21   A    
C6    H4    S    
C58   H20   S    
C2    C35   S    
C40   H24   S    
C60   C64   A    
C33   C41   A    
C24   C26   A    
C74   H35   S    
O14   C70   A    
C76   H40   S    
C54   H14   S    
C36   C66   A    
C9    C11   A    
C55   C57   A    
C70   O17   A    
C8    C30   A    
C12   C14   A    
C6    C22   A    
C73   H33   S    
C17   C25   A    
C1    O8    A    
C21   C23   A    
O8    V2    S    
C20   C22   A    
C14   C16   A    
C76   H41   S    
C13   H9    S    
C29   C73   S    
H2    C24   S    
C53   H13   S    
C43   C47   A    
O7    V1    S    
C67   H15   S    
O13   V3    S    
O6    V2    S    
C69   O18   A    
O9    V2    S    
C56   H30   S    
C44   C46   A    
O10   V1    S    
C60   C62   A    
C62   C68   A    
O16   V4    S    
O13   C69   A    
O15   V3    S    
C66   H18   S    
C73   H31   S    
O20   V3    S    
C38   H22   S    
