data_mof_unit_41406.cif
_audit_creation_date              2012-12-11T14:35:54-0500
_audit_creation_method            fapswitch 2.2
_symmetry_space_group_name_H-M    P1
_symmetry_Int_Tables_number       1
_space_group_crystal_system       triclinic
_cell_length_a                    13.473614
_cell_length_b                    13.497012
_cell_length_c                    27.489935
_cell_angle_alpha                 90.891921
_cell_angle_beta                  90.11914
_cell_angle_gamma                 60.115272
_cell_volume                      4333.78570347

loop_
_atom_site_label
_atom_site_type_symbol
_atom_type_description
_atom_site_fract_x
_atom_site_fract_y
_atom_site_fract_z
_atom_type_partial_charge
C1    C     C_R   0.620213 0.101471 0.570201 0.544894
C2    C     C_1   0.649098 0.705841 0.658567 -0.058832
C3    C     C_3   0.090023 0.134562 0.738056 -0.102068
C4    C     C_R   0.599555 0.779775 0.568824 0.545348
C5    C     C_3   0.181662 0.060561 0.775989 -0.100105
C6    C     C_1   0.097023 0.201049 0.901828 -0.013001
C7    C     C_1   0.229700 0.138349 0.617636 -0.016202
C8    C     C_3   0.055399 0.242668 0.769997 -0.102007
C9    C     C_3   0.147467 0.168496 0.807080 0.052731
C10   C     C_3   0.144797 0.262840 0.743406 -0.099235
C11   C     C_3   0.179027 0.155021 0.712234 0.052303
C12   C     C_1   0.630850 0.732882 0.616522 -0.016334
C13   C     C_3   0.236397 0.188930 0.781189 -0.100969
C14   C     C_3   0.271126 0.080804 0.749293 -0.102768
C15   C     C_1   0.124818 0.181764 0.859579 -0.056687
C16   C     C_R   0.277781 0.121917 0.569715 0.545004
C17   C     C_1   0.201739 0.147350 0.659804 -0.058952
C18   C     C_3   0.627816 0.277526 0.740291 -0.102038
C19   C     C_3   0.554468 0.257927 0.778208 -0.099487
C20   C     C_1   0.691344 0.207489 0.903020 -0.008059
C21   C     C_1   0.635275 0.133836 0.618360 -0.016326
C22   C     C_3   0.736164 0.205730 0.771153 -0.102652
C23   C     C_3   0.699068 0.561635 0.767660 -0.102375
C24   C     C_3   0.662658 0.185861 0.808230 0.052770
C25   C     C_3   0.758678 0.095770 0.743339 -0.099458
C26   C     C_3   0.650581 0.167715 0.713251 0.052265
C27   C     C_3   0.685413 0.076120 0.781138 -0.100477
C28   C     C_R   0.621856 0.098746 0.431119 0.540221
C29   C     C_3   0.577039 0.147848 0.750304 -0.102757
C30   C     C_1   0.674384 0.196424 0.860763 -0.056053
C31   C     C_1   0.643562 0.152860 0.660695 -0.058988
C32   C     C_R   0.738356 0.695795 0.360453 -0.148097
C33   C     C_R   0.751373 0.676463 0.310143 0.002227
C34   C     C_3   0.679258 0.654910 0.805587 0.052749
C35   C     C_R   0.766722 0.656458 0.208247 0.004108
C36   C     C_R   0.858763 0.647975 0.235462 -0.138135
C37   C     C_R   0.850908 0.658662 0.286163 -0.139597
C38   C     C_R   0.776301 0.637383 0.157986 -0.140137
C39   C     C_R   0.685517 0.638896 0.132106 -0.003196
C40   C     C_R   0.602155 0.775084 0.430519 0.542673
C41   C     C_R   0.552318 0.707715 0.356394 -0.132029
C42   C     C_R   0.560309 0.697036 0.306320 0.007247
C43   C     C_R   0.659408 0.682925 0.282865 0.057967
C44   C     C_R   0.467419 0.707558 0.279339 -0.140652
C45   C     C_3   0.589749 0.649131 0.740839 -0.099487
C46   C     C_R   0.471771 0.705905 0.228891 -0.139312
C47   C     C_R   0.570935 0.688979 0.205168 0.006414
C48   C     C_R   0.665524 0.676879 0.232078 0.057537
C49   C     C_R   0.580005 0.675190 0.155098 -0.133123
C50   C     C_R   0.636083 0.717384 0.383111 -0.006101
C51   C     C_R   0.215562 0.055389 0.357778 -0.134800
C52   C     C_R   0.277576 0.120638 0.431154 0.546489
C53   C     C_R   0.188723 0.069538 0.308265 0.014689
C54   C     C_R   0.149174 0.095163 0.207567 0.014675
C55   C     C_R   0.169890 0.994115 0.230134 -0.126708
C56   C     C_3   0.663036 0.684255 0.710898 0.052399
C57   C     C_R   0.190438 0.981056 0.280140 -0.125066
C58   C     C_R   0.124755 0.111202 0.157876 -0.132799
C59   C     C_R   0.101777 0.214155 0.136328 -0.001285
C60   C     C_R   0.182348 0.249671 0.363262 -0.127417
C61   C     C_R   0.160497 0.263247 0.313832 0.013001
C62   C     C_R   0.165254 0.172402 0.285955 0.062524
C63   C     C_R   0.140551 0.363994 0.291486 -0.124781
C64   C     C_3   0.772233 0.597150 0.736943 -0.101859
C65   C     C_R   0.127253 0.374142 0.241377 -0.123563
C66   C     C_R   0.130321 0.285089 0.213410 0.012751
C67   C     C_3   0.570151 0.741950 0.779483 -0.101132
C68   C     C_R   0.148469 0.184018 0.235609 0.062496
C69   C     C_R   0.110673 0.297839 0.163818 -0.124952
C70   C     C_R   0.217520 0.143723 0.384723 -0.005657
C71   C     C_R   0.608910 0.231835 0.366578 -0.139189
C72   C     C_R   0.612700 0.252956 0.317113 0.017038
C73   C     C_R   0.624911 0.291703 0.217996 0.003901
C74   C     C_R   0.597108 0.379516 0.252515 -0.128553
C75   C     C_R   0.590733 0.360407 0.301789 -0.128942
C76   C     C_3   0.752664 0.690013 0.775717 -0.099564
C77   C     C_R   0.638207 0.308912 0.169421 -0.157594
C78   C     C_3   0.643239 0.777543 0.748816 -0.102581
C79   C     C_R   0.675091 0.219049 0.135326 0.016553
C80   C     C_R   0.659416 0.036123 0.346519 -0.123180
C81   C     C_R   0.660020 0.056799 0.297292 0.006541
C82   C     C_R   0.638931 0.164647 0.282301 0.066307
C83   C     C_R   0.680008 0.971534 0.262942 -0.128811
C84   C     C_R   0.685912 0.989937 0.213731 -0.135095
C85   C     C_R   0.672925 0.094511 0.197782 -0.015115
C86   C     C_R   0.644939 0.183789 0.232575 0.052193
C87   C     C_R   0.688124 0.112337 0.148420 -0.000999
C88   C     C_1   0.697186 0.607857 0.900152 -0.011782
C89   C     C_1   0.688192 0.633864 0.857972 -0.056379
C90   C     C_R   0.634698 0.122805 0.381078 0.009933
C91   C     C_R   0.049312 0.236128 0.949772 0.546698
C92   C     C_R   0.711627 0.562856 0.948169 0.548159
C93   C     C_R   0.722150 0.225336 0.950948 0.567449
C94   C     C_R   0.047497 0.245859 0.088649 0.546850
C95   C     C_R   0.707583 0.575984 0.086103 0.546322
C96   C     C_R   0.717870 0.234722 0.089107 0.598038
C97   C     C_2   0.720128 0.020202 0.110936 0.234233
Cr1   Cr    Cr6+3 0.417550 0.169090 0.500530 1.024422
Cr2   Cr    Cr6+3 0.669180 0.913420 0.499920 1.021114
Cr3   Cr    Cr6+3 0.413260 0.917540 0.499520 1.019526
Cr4   Cr    Cr6+3 0.909170 0.177380 0.020380 1.043763
Cr5   Cr    Cr6+3 0.912710 0.429210 0.018220 1.026361
Cr6   Cr    Cr6+3 0.657170 0.432570 0.019030 1.032488
H1    H     H_    0.819287 0.707252 0.790658 0.105745
H2    H     H_    0.801996 0.229517 0.780311 0.098895
H3    H     H_    0.857376 0.611414 0.140006 0.123825
H4    H     H_    0.855072 0.537396 0.718991 0.103422
H5    H     H_    0.803820 0.701615 0.381213 0.120205
H6    H     H_    0.936461 0.633422 0.217509 0.100237
H7    H     H_    0.922023 0.653953 0.306531 0.107264
H8    H     H_    0.508724 0.679517 0.134898 0.131714
H9    H     H_    0.399176 0.714163 0.208487 0.105916
H10   H     H_    0.390886 0.718753 0.297264 0.098831
H11   H     H_    0.474068 0.721543 0.373723 0.130209
H12   H     H_    0.296814 0.210851 0.799338 0.105234
H13   H     H_    0.118362 0.046288 0.136621 0.122271
H14   H     H_    0.241996 0.973630 0.374359 0.123001
H15   H     H_    0.170530 0.925204 0.209122 0.103534
H16   H     H_    0.620200 0.866714 0.740468 0.100643
H17   H     H_    0.207569 0.901952 0.296819 0.100349
H18   H     H_    0.093233 0.377580 0.147536 0.131305
H19   H     H_    0.113707 0.451884 0.224529 0.099983
H20   H     H_    0.137784 0.433827 0.312605 0.103208
H21   H     H_    0.181713 0.318922 0.384082 0.131911
H22   H     H_    0.628695 0.390326 0.158772 0.131109
H23   H     H_    0.129179 0.346157 0.729488 0.104518
H24   H     H_    0.586639 0.299111 0.393627 0.104964
H25   H     H_    0.582339 0.462371 0.241424 0.128457
H26   H     H_    0.570176 0.429065 0.327895 0.114792
H27   H     H_    0.487253 0.801703 0.797398 0.104744
H28   H     H_    0.701383 0.920943 0.188822 0.112200
H29   H     H_    0.691325 0.890282 0.274201 0.132898
H30   H     H_    0.674478 0.953172 0.358019 0.129572
H31   H     H_    0.523081 0.631866 0.725966 0.104448
H32   H     H_    0.722019 0.472487 0.775999 0.098223
H33   H     H_    0.197238 0.977327 0.789981 0.105010
H34   H     H_    0.966285 0.309605 0.779085 0.099186
H35   H     H_    0.029605 0.112713 0.719865 0.103208
H36   H     H_    0.360255 0.013954 0.740172 0.100916
H37   H     H_    0.776470 0.931335 0.119755 0.090937
H38   H     H_    0.470425 0.324222 0.793143 0.105553
H39   H     H_    0.604633 0.360059 0.723031 0.102700
H40   H     H_    0.511290 0.123967 0.741113 0.100689
H41   H     H_    0.708663 0.993527 0.798361 0.105873
H42   H     H_    0.842791 0.029444 0.728465 0.104495
O1    O     O_R   0.301710 0.195650 0.554160 -0.508089
O2    O     O_R   0.635520 0.542770 0.964420 -0.507461
O3    O     O_R   0.665950 0.325030 0.970100 -0.494011
O4    O     O_R   0.522390 0.158990 0.550460 -0.495432
O5    O     O_R   0.816620 0.158530 0.074540 -0.490537
O6    O     O_R   0.004460 0.188870 0.069750 -0.504778
O7    O     O_R   0.025800 0.341780 0.072300 -0.520957
O8    O     O_R   0.807650 0.528950 0.067500 -0.501715
O9    O     O_R   0.633420 0.550490 0.071810 -0.524494
O10   O     O_R   0.664000 0.332180 0.069640 -0.505418
O11   O     O_3   0.826350 0.346390 0.019210 -0.256227
O12   O     O_R   0.658900 0.818120 0.449760 -0.504823
O13   O     O_R   0.694390 0.003530 0.554040 -0.506325
O14   O     O_R   0.657700 0.819660 0.549320 -0.494536
O15   O     O_R   0.501930 0.803280 0.552920 -0.507553
O16   O     O_R   0.318170 0.023580 0.549580 -0.494465
O17   O     O_R   0.303010 0.193990 0.446760 -0.518413
O18   O     O_R   0.523600 0.157450 0.450900 -0.495223
O19   O     O_R   0.695690 0.001860 0.446640 -0.517931
O20   O     O_2   0.682948 0.043032 0.069606 -0.492364
O21   O     O_R   0.503220 0.801620 0.445520 -0.523726
O22   O     O_R   0.319370 0.022040 0.450020 -0.502500
O23   O     O_3   0.499990 0.000010 0.499990 -0.245896
O24   O     O_R   0.818720 0.150820 0.967160 -0.493635
O25   O     O_R   0.006410 0.181720 0.970200 -0.497814
O26   O     O_R   0.027890 0.334070 0.964920 -0.504195
O27   O     O_R   0.809600 0.521790 0.967960 -0.493546

loop_
_geom_bond_atom_site_label_1
_geom_bond_atom_site_label_2
_ccdc_geom_bond_type
C76   H1    S    
C5    H33   S    
C66   C68   A    
C20   C93   S    
C63   C65   A    
C1    C21   S    
C23   C45   S    
Cr2   O14   S    
C27   C29   S    
C41   C42   A    
C35   C36   A    
C18   C26   S    
C24   C27   S    
C41   H11   S    
C2    C12   T    
C79   C87   A    
C81   C82   A    
Cr6   O2    S    
C47   C49   A    
C20   C30   T    
C85   C86   A    
C21   C31   T    
C93   O24   A    
C45   H31   S    
Cr3   O22   S    
C16   O1    A    
C36   C37   A    
C76   C78   S    
C46   H9    S    
C52   O22   A    
C38   C39   A    
C11   C14   S    
C97   O20   D    
C4    O14   A    
C54   C68   A    
C94   O7    A    
C6    C91   S    
C29   H40   S    
Cr4   O5    S    
C56   C78   S    
C93   O3    A    
Cr3   O21   S    
C18   C19   S    
C73   C74   A    
C61   C63   A    
C9    C13   S    
Cr1   O17   S    
C6    C15   T    
C54   C55   A    
C52   O17   A    
C74   H25   S    
C88   C92   S    
C45   C56   S    
C8    C9    S    
C7    C17   T    
C22   C25   S    
C45   C67   S    
C56   C64   S    
Cr4   O24   S    
Cr3   O16   S    
C59   C94   S    
C69   H18   S    
C4    C12   S    
C43   C48   A    
C97   H37   S    
C40   O21   A    
C28   C90   S    
C49   H8    S    
C85   C87   A    
C26   C31   S    
C19   H38   S    
C13   C14   S    
C92   O2    A    
C58   H13   S    
C71   H24   S    
C67   C78   S    
C42   C44   A    
C72   C75   A    
C35   C48   A    
C81   C83   A    
C44   C46   A    
Cr6   O3    S    
Cr1   O18   S    
C24   C30   S    
C77   C79   A    
Cr5   O27   S    
C79   C96   S    
C74   C75   A    
C33   C43   A    
C40   O12   A    
C18   H39   S    
C35   C38   A    
C52   C70   S    
C84   C85   A    
C3    C8    S    
C53   C57   A    
Cr1   O1    S    
Cr4   O11   S    
C25   C26   S    
C82   C86   A    
Cr4   O6    S    
C33   C37   A    
C80   H30   S    
C60   C61   A    
C95   O8    A    
C38   H3    S    
C5    C9    S    
Cr1   O23   S    
C53   C62   A    
Cr3   O15   S    
Cr6   O9    S    
C47   C48   A    
C60   C70   A    
C23   C34   S    
C96   O5    A    
C27   H41   S    
C64   C76   S    
Cr4   O25   S    
C3    H35   S    
C65   H19   S    
C88   C89   T    
C1    O4    A    
Cr5   O8    S    
C32   C50   A    
C5    C14   S    
C13   H12   S    
C96   O10   A    
C59   C69   A    
C57   H17   S    
Cr6   O10   S    
C23   C64   S    
C39   C49   A    
C44   H10   S    
Cr2   O12   S    
C51   C70   A    
C22   C24   S    
C83   C84   A    
C67   H27   S    
C37   H7    S    
C42   C43   A    
C19   C29   S    
Cr5   O11   S    
C41   C50   A    
C77   H22   S    
C28   O19   A    
C64   H4    S    
Cr2   O23   S    
C54   C58   A    
Cr5   O26   S    
C46   C47   A    
C11   C17   S    
C91   O25   A    
C18   C22   S    
C7    C16   S    
C80   C81   A    
C3    C5    S    
C10   C13   S    
C34   C67   S    
C63   H20   S    
C60   H21   S    
C23   H32   S    
C16   O16   A    
C25   C27   S    
C22   H2    S    
C84   H28   S    
C94   O6    A    
C91   O26   A    
Cr3   O23   S    
C95   O9    A    
C32   C33   A    
C55   C57   A    
C78   H16   S    
C9    C15   S    
C34   C89   S    
C83   H29   S    
C2    C56   S    
C1    O13   A    
C4    O15   A    
C71   C90   A    
C92   O27   A    
C40   C50   S    
C51   H14   S    
C19   C24   S    
C39   C95   S    
C62   C68   A    
C80   C90   A    
C61   C62   A    
C58   C59   A    
C73   C86   A    
C3    C11   S    
C10   C11   S    
Cr2   O19   S    
C66   C69   A    
Cr6   O11   S    
C71   C72   A    
C14   H36   S    
C26   C29   S    
C8    C10   S    
C65   C66   A    
C32   H5    S    
Cr2   O13   S    
Cr5   O7    S    
C36   H6    S    
C73   C77   A    
C8    H34   S    
C25   H42   S    
C51   C53   A    
C10   H23   S    
Cr1   O4    S    
C72   C82   A    
C75   H26   S    
C28   O18   A    
C34   C76   S    
C87   C97   S    
C55   H15   S    
