data_mof_unit_15326.cif
_audit_creation_date              2012-10-26T18:59:39-0400
_audit_creation_method            fapswitch 2.2
_symmetry_space_group_name_H-M    P1
_symmetry_Int_Tables_number       1
_space_group_crystal_system       triclinic
_cell_length_a                    23.541258
_cell_length_b                    10.819679
_cell_length_c                    9.529512
_cell_angle_alpha                 90.052147
_cell_angle_beta                  89.825394
_cell_angle_gamma                 90.208573
_cell_volume                      2427.22275416

loop_
_atom_site_label
_atom_site_type_symbol
_atom_type_description
_atom_site_fract_x
_atom_site_fract_y
_atom_site_fract_z
_atom_type_partial_charge
C1    C     C_R   0.498889 0.262279 0.499912 0.552022
C2    C     C_R   0.119089 0.612245 0.499380 0.403560
C3    C     C_R   0.235805 0.529183 0.613509 -0.058841
C4    C     C_R   0.390790 0.501021 0.500385 0.548406
C5    C     C_R   0.295099 0.529531 0.621412 -0.037279
C6    C     C_R   0.327844 0.502203 0.499903 -0.011246
C7    C     C_R   0.299492 0.475886 0.373352 -0.148059
C8    C     C_R   0.240407 0.476131 0.367034 -0.054350
C9    C     C_R   0.208401 0.502743 0.486923 0.224182
C10   C     C_R   0.762543 0.436234 0.596541 -0.057947
C11   C     C_R   0.703193 0.434070 0.602294 -0.040174
C12   C     C_R   0.969943 0.280892 0.435800 -0.120633
C13   C     C_R   0.671535 0.497480 0.499028 -0.009223
C14   C     C_R   0.700372 0.560891 0.391622 -0.154882
C15   C     C_R   0.759482 0.562031 0.386581 -0.055174
C16   C     C_R   0.499052 0.737748 0.499973 0.548995
C17   C     C_R   0.790781 0.499890 0.488965 0.222700
C18   C     C_R   0.492908 0.063754 0.625751 0.017719
C19   C     C_R   0.493152 0.129198 0.499662 0.010881
C20   C     C_R   0.485447 0.064223 0.373245 -0.151414
C21   C     C_R   0.485600 0.935372 0.373289 -0.151628
C22   C     C_R   0.493438 0.870810 0.499755 0.011600
C23   C     C_R   0.029208 0.281291 0.435295 -0.120507
C24   C     C_R   0.493121 0.936550 0.625791 0.032374
C25   C     C_3   0.533181 0.930940 0.746843 -0.270080
C26   C     C_3   0.532769 0.071211 0.747104 -0.256364
C27   C     C_R   0.526918 0.592090 0.073614 0.161053
C28   C     C_R   0.608986 0.498590 0.499871 0.549029
C29   C     C_R   0.468922 0.416156 0.074629 0.003767
C30   C     C_R   0.468965 0.416063 0.925621 0.016011
C31   C     C_R   0.526856 0.592230 0.926093 0.161689
C32   C     C_3   0.588510 0.624014 0.919960 -0.273548
C33   C     C_3   0.588567 0.623347 0.079024 -0.280011
C34   C     C_R   0.059483 0.391843 0.456551 0.029785
C35   C     C_R   0.880205 0.610328 0.503336 0.402716
C36   C     C_R   0.880149 0.392622 0.460369 0.403140
C37   C     C_R   0.939724 0.390995 0.457853 0.029855
C38   C     C_R   0.969651 0.502469 0.478427 -0.027803
C39   C     C_R   0.939776 0.613379 0.500610 0.030112
C40   C     C_1   0.676224 0.362232 0.711624 0.204161
C41   C     C_1   0.320390 0.560849 0.754814 0.225906
C42   C     C_R   0.029600 0.502917 0.477630 -0.027937
C43   C     C_R   0.059521 0.614317 0.498789 0.029481
C44   C     C_R   0.029305 0.724602 0.519586 -0.120448
C45   C     C_R   0.970046 0.724116 0.520639 -0.120734
C46   C     C_R   0.119063 0.394187 0.458805 0.403297
Cu1   Cu    Cu3+1 0.500000 0.499980 0.640670 0.977383
Cu2   Cu    Cu3+1 0.500000 0.500020 0.359330 0.951729
H1    H     H_    0.947935 0.193985 0.419568 0.170675
H2    H     H_    0.444642 0.346878 0.130709 0.112086
H3    H     H_    0.051172 0.194680 0.418730 0.171144
H4    H     H_    0.444724 0.346716 0.869770 0.119591
H5    H     H_    0.614828 0.549175 0.874134 0.177189
H6    H     H_    0.596270 0.717110 0.874842 0.121153
H7    H     H_    0.614591 0.547277 0.122998 0.161955
H8    H     H_    0.596351 0.716025 0.125740 0.126226
H9    H     H_    0.051313 0.811505 0.535850 0.171353
H10   H     H_    0.948084 0.810666 0.537634 0.170714
H11   H     H_    0.210548 0.549761 0.705926 0.137430
H12   H     H_    0.677145 0.611179 0.312364 0.120024
H13   H     H_    0.323000 0.454437 0.278582 0.143707
H14   H     H_    0.219413 0.455907 0.268654 0.143058
H15   H     H_    0.787103 0.387915 0.675245 0.141605
H16   H     H_    0.781053 0.611264 0.302981 0.142779
H17   H     H_    0.482092 0.112259 0.273953 0.133012
H18   H     H_    0.482336 0.887079 0.274004 0.140155
H19   H     H_    0.513065 0.889911 0.841759 0.143481
H20   H     H_    0.575090 0.891404 0.717344 0.138629
H21   H     H_    0.512224 0.111250 0.841915 0.140375
H22   H     H_    0.574448 0.112861 0.718342 0.172534
N1    N     N_R   0.851710 0.501047 0.483668 -0.398366
N2    N     N_R   0.147522 0.503176 0.480566 -0.398628
N3    N     N_R   0.500360 0.500930 0.147930 -0.229969
N4    N     N_R   0.500360 0.500890 0.852020 -0.225066
N5    N     N_1   0.654694 0.304601 0.799281 -0.308487
N6    N     N_1   0.340509 0.586001 0.861832 -0.289247
O1    O     O_R   0.500000 0.319640 0.618810 -0.502859
O2    O     O_R   0.582120 0.500020 0.618760 -0.496556
O3    O     O_R   0.582120 0.500060 0.381180 -0.503042
O4    O     O_2   0.850964 0.715381 0.527081 -0.489704
O5    O     O_2   0.850820 0.286896 0.439020 -0.486754
O6    O     O_2   0.148343 0.288265 0.441271 -0.486229
O7    O     O_2   0.148429 0.718325 0.518235 -0.483550
O8    O     O_R   0.500010 0.319680 0.381230 -0.511959
O9    O     O_R   0.417880 0.499940 0.618820 -0.486563
O10   O     O_R   0.417880 0.499980 0.381240 -0.503299
O11   O     O_R   0.499990 0.680320 0.618770 -0.495292
O12   O     O_R   0.500000 0.680360 0.381190 -0.506577

loop_
_geom_bond_atom_site_label_1
_geom_bond_atom_site_label_2
_ccdc_geom_bond_type
C33   H7    S    
C21   H18   S    
C1    O1    A    
C10   H15   S    
C25   H19   S    
C9    N2    S    
C12   H1    S    
C7    C8    A    
C27   C33   S    
C1    O8    A    
C12   C23   A    
C29   C30   A    
C18   C24   A    
Cu1   O9    S    
Cu2   O3    S    
C36   C37   A    
C38   C42   A    
C38   C39   A    
C30   N4    A    
C29   N3    A    
C10   C17   A    
C35   O4    S    
C18   C19   A    
C12   C37   A    
C28   O3    A    
C7    H13   S    
C5    C41   S    
C46   O6    S    
C31   C32   S    
C8    C9    A    
C34   C42   A    
C16   O11   A    
C15   H16   S    
Cu2   O12   S    
C13   C28   S    
C34   C46   A    
C13   C14   A    
C28   O2    A    
C44   H9    S    
C46   N2    A    
C36   N1    A    
C39   C45   A    
C33   H8    S    
C35   N1    A    
C21   C22   A    
C2    O7    S    
C25   H20   S    
C2    N2    A    
C32   H6    S    
C29   H2    S    
C45   H10   S    
C1    C19   S    
C27   C31   A    
C20   H17   S    
C24   C25   S    
C4    C6    S    
C31   N4    A    
C4    O9    A    
C36   O5    S    
C25   C26   S    
Cu2   O8    S    
Cu1   O11   S    
C35   C39   A    
C43   C44   A    
C37   C38   A    
C3    C9    A    
C23   H3    S    
Cu1   Cu2   S    
C2    C43   A    
C23   C34   A    
C18   C26   S    
C17   N1    S    
C26   H22   S    
Cu2   O10   S    
C42   C43   A    
Cu1   O1    S    
C32   H5    S    
C44   C45   A    
C15   C17   A    
C30   H4    S    
C16   C22   S    
Cu2   N3    S    
Cu1   N4    S    
C3    C5    A    
C6    C7    A    
C14   H12   S    
C40   N5    T    
C32   C33   S    
C19   C20   A    
C41   N6    T    
C11   C13   A    
C5    C6    A    
C22   C24   A    
C11   C40   S    
C10   C11   A    
C4    O10   A    
C20   C21   A    
C16   O12   A    
C26   H21   S    
C14   C15   A    
Cu1   O2    S    
C27   N3    A    
C8    H14   S    
C3    H11   S    
