data_mof_unit_24297.cif
_audit_creation_date              2012-12-10T18:06:50-0500
_audit_creation_method            fapswitch 2.2
_symmetry_space_group_name_H-M    P1
_symmetry_Int_Tables_number       1
_space_group_crystal_system       triclinic
_cell_length_a                    12.60108
_cell_length_b                    13.115659
_cell_length_c                    15.459068
_cell_angle_alpha                 83.260068
_cell_angle_beta                  98.605211
_cell_angle_gamma                 97.036183
_cell_volume                      2494.35593449

loop_
_atom_site_label
_atom_site_type_symbol
_atom_type_description
_atom_site_fract_x
_atom_site_fract_y
_atom_site_fract_z
_atom_type_partial_charge
C1    C     C_R   0.442240 0.308138 0.508314 0.898006
C2    C     C_R   0.686855 0.542295 0.928579 0.165809
C3    C     C_R   0.577635 0.553759 0.894731 0.093644
C4    C     C_R   0.436436 0.515543 0.335905 0.834307
C5    C     C_R   0.756886 0.515634 0.874332 -0.174913
C6    C     C_R   0.718155 0.496493 0.787758 -0.152874
C7    C     C_R   0.539752 0.529584 0.809437 -0.232513
C8    C     C_R   0.633420 0.941595 0.361506 -0.197214
C9    C     C_R   0.583194 0.801332 0.468310 -0.143073
C10   C     C_R   0.331434 0.155721 0.573340 0.459362
C11   C     C_R   0.309460 0.048367 0.588023 -0.282821
C12   C     C_R   0.461754 0.575756 0.096760 0.091735
C13   C     C_R   0.366923 0.984224 0.551862 -0.151312
C14   C     C_R   0.445517 0.025890 0.497448 0.105223
C15   C     C_R   0.452113 0.131913 0.468797 0.007551
C16   C     C_R   0.556274 0.691685 0.489021 0.931488
C17   C     C_R   0.515194 0.965131 0.467951 -0.031166
C18   C     C_R   0.571294 0.004662 0.395926 0.106982
C19   C     C_R   0.563210 0.105911 0.358728 -0.206659
C20   C     C_R   0.505419 0.169364 0.395394 -0.175714
C21   C     C_R   0.532706 0.866823 0.509083 0.539963
C22   C     C_R   0.636430 0.838812 0.395885 -0.276066
C23   C     C_R   0.356305 0.600136 0.061750 0.173421
C24   C     C_R   0.405031 0.197674 0.514381 -0.175573
C25   C     C_R   0.139213 0.641413 0.623040 -0.245885
C26   C     C_R   0.757390 0.380384 0.395687 0.041717
C27   C     C_R   0.852648 0.354609 0.373746 -0.255188
C28   C     C_R   0.565411 0.490223 0.663728 0.889601
C29   C     C_R   0.950447 0.399777 0.413713 -0.154961
C30   C     C_R   0.952778 0.471495 0.475929 0.016445
C31   C     C_R   0.853442 0.494840 0.495916 0.144664
C32   C     C_R   0.048988 0.520900 0.518680 -0.094831
C33   C     C_R   0.044272 0.592200 0.580526 0.039961
C34   C     C_R   0.540661 0.576276 0.040502 0.068276
C35   C     C_R   0.944940 0.613514 0.598811 0.555542
C36   C     C_R   0.851007 0.565496 0.556624 -0.305871
C37   C     C_R   0.150632 0.502624 0.502448 0.019666
C38   C     C_R   0.237168 0.619776 0.603832 -0.010595
C39   C     C_R   0.404832 0.540957 0.241682 -0.048533
C40   C     C_R   0.608747 0.502293 0.755518 -0.064919
C41   C     C_R   0.277986 0.599204 0.117588 -0.200990
C42   C     C_R   0.302344 0.570259 0.207418 -0.193482
C43   C     C_R   0.482889 0.543380 0.186180 -0.266396
C44   C     C_R   0.507009 0.581165 0.949042 0.071414
C45   C     C_R   0.403322 0.611080 0.915344 -0.213481
C46   C     C_R   0.329905 0.622408 0.971321 -0.230086
C47   C     C_R   0.651257 0.569704 0.072457 -0.229707
C48   C     C_R   0.723653 0.555151 0.016568 -0.226911
F1    F     F_    0.503051 0.833125 0.589513 -0.688915
F2    F     F_    0.938320 0.681236 0.657434 -0.668501
H1    H     H_    0.250612 0.643924 0.943484 0.154574
H2    H     H_    0.454998 0.528446 0.784812 0.163067
H3    H     H_    0.137963 0.695869 0.670344 0.197616
H4    H     H_    0.162955 0.450350 0.457109 0.121777
H5    H     H_    0.680820 0.346210 0.364731 0.125850
H6    H     H_    0.022027 0.377066 0.394357 0.133928
H7    H     H_    0.850746 0.300040 0.325999 0.147118
H8    H     H_    0.777330 0.585441 0.572658 0.238854
H9    H     H_    0.773434 0.477134 0.746412 0.171084
H10   H     H_    0.807530 0.549236 0.043198 0.146061
H11   H     H_    0.197657 0.619326 0.091602 0.139078
H12   H     H_    0.841043 0.508522 0.899136 0.142790
H13   H     H_    0.241161 0.570310 0.249706 0.158748
H14   H     H_    0.559369 0.516068 0.213251 0.160405
H15   H     H_    0.377825 0.627994 0.845803 0.152960
H16   H     H_    0.684170 0.577637 0.140234 0.148952
H17   H     H_    0.235232 0.178018 0.655496 0.332089
H18   H     H_    0.675658 0.787786 0.363651 0.182879
H19   H     H_    0.603462 0.136775 0.302532 0.135915
H20   H     H_    0.674984 0.970248 0.305567 0.154207
H21   H     H_    0.345481 0.902140 0.564486 0.210867
H22   H     H_    0.250527 0.014096 0.630208 0.155830
H23   H     H_    0.500457 0.247251 0.364290 0.147230
H24   H     H_    0.311872 0.656754 0.635801 0.164006
N1    N     N_R   0.239390 0.551900 0.544730 -0.102814
N2    N     N_R   0.759950 0.448600 0.455730 -0.113304
O1    O     O_R   0.374950 0.371210 0.521360 -0.550140
O2    O     O_R   0.542050 0.338030 0.492790 -0.618971
O3    O     O_R   0.368720 0.526070 0.390200 -0.629676
O4    O     O_R   0.535820 0.492890 0.361630 -0.634502
O5    O     O_R   0.457950 0.661970 0.507210 -0.580428
O6    O     O_R   0.625050 0.628790 0.478640 -0.641019
O7    O     O_R   0.464180 0.507110 0.638370 -0.603399
O8    O     O_R   0.631280 0.473930 0.609800 -0.634467
O9    O     O_3   0.283459 0.220240 0.616724 -0.748765
Zn1   Zn    Zn3+2 0.388420 0.522150 0.519080 0.984021
Zn2   Zn    Zn3+2 0.611580 0.477850 0.480920 0.931949

loop_
_geom_bond_atom_site_label_1
_geom_bond_atom_site_label_2
_ccdc_geom_bond_type
O2    Zn2   S    
C10   O9    S    
C28   O8    A    
C1    O1    A    
C41   C42   A    
C19   C20   A    
O8    Zn2   S    
C41   H11   S    
C26   H5    S    
C21   F1    S    
C45   C46   A    
C12   C23   A    
C26   C27   A    
C9    C16   S    
C25   H3    S    
C7    H2    S    
C4    O4    A    
C12   C43   A    
C36   H8    S    
C30   C31   A    
C9    C22   A    
C27   C29   A    
C28   C40   S    
O6    Zn2   S    
C18   C19   A    
C35   C36   A    
C5    H12   S    
C26   N2    A    
C7    C40   A    
C47   H16   S    
O5    Zn1   S    
C37   N1    A    
C23   C46   A    
C13   C14   A    
C28   O7    A    
C1    O2    A    
C14   C17   A    
C43   H14   S    
C48   H10   S    
C39   C42   A    
C38   N1    A    
C15   C20   A    
C3    C44   A    
H17   O9    S    
C34   C44   A    
C4    O3    A    
C27   H7    S    
C11   H22   S    
C39   C43   A    
C13   H21   S    
C2    C48   A    
C46   H1    S    
C17   C21   A    
C29   C30   A    
C25   C38   A    
N1    Zn1   S    
C8    C22   A    
C47   C48   A    
C4    C39   S    
C35   F2    S    
C16   O6    A    
C17   C18   A    
C32   C37   A    
N2    Zn2   S    
C22   H18   S    
C37   H4    S    
C15   C24   A    
O1    Zn1   S    
C45   H15   S    
C6    C40   A    
C19   H19   S    
C2    C5    A    
C12   C34   A    
C44   C45   A    
C38   H24   S    
C31   C36   A    
C8    H20   S    
C6    H9    S    
C29   H6    S    
O4    Zn2   S    
C3    C7    A    
C23   C41   A    
C10   C24   A    
C32   C33   A    
C2    C3    A    
C30   C32   A    
C11   C13   A    
C9    C21   A    
C31   N2    A    
C5    C6    A    
C16   O5    A    
C33   C35   A    
C20   H23   S    
C8    C18   A    
C10   C11   A    
O7    Zn1   S    
C1    C24   S    
C14   C15   A    
C34   C47   A    
C42   H13   S    
O3    Zn1   S    
C25   C33   A    
