data_mof_unit_23532.cif
_audit_creation_date              2012-12-10T21:00:36-0500
_audit_creation_method            fapswitch 2.2
_symmetry_space_group_name_H-M    P1
_symmetry_Int_Tables_number       1
_space_group_crystal_system       triclinic
_cell_length_a                    18.110005
_cell_length_b                    18.149257
_cell_length_c                    18.410647
_cell_angle_alpha                 119.970108
_cell_angle_beta                  90.13268
_cell_angle_gamma                 119.683717
_cell_volume                      4296.25569103

loop_
_atom_site_label
_atom_site_type_symbol
_atom_type_description
_atom_site_fract_x
_atom_site_fract_y
_atom_site_fract_z
_atom_type_partial_charge
C1    C     C_R   0.111264 0.220166 0.609967 0.785334
C2    C     C_3   0.449929 0.897130 0.947068 0.004767
C3    C     C_3   0.682974 0.640988 0.613007 -0.881117
C4    C     C_3   0.465862 0.030968 0.063597 0.266837
C5    C     C_3   0.534137 0.969032 0.936405 0.266826
C6    C     C_3   0.414440 0.434488 0.448245 0.269259
C7    C     C_3   0.585559 0.565511 0.551755 0.269255
C8    C     C_3   0.480459 0.403720 0.445319 -0.226104
C9    C     C_3   0.519541 0.596280 0.554681 -0.226100
C10   C     C_3   0.551549 0.500536 0.449789 0.005835
C11   C     C_3   0.448450 0.499464 0.550210 0.005835
C12   C     C_3   0.485375 0.530607 0.451425 -0.229802
C13   C     C_R   0.888737 0.779834 0.390033 0.785332
C14   C     C_3   0.514624 0.469393 0.548574 -0.229798
C15   C     C_R   0.184783 0.154170 0.810259 -0.142810
C16   C     C_R   0.815212 0.845777 0.189723 -0.142777
C17   C     C_R   0.392719 0.781077 0.888042 0.782769
C18   C     C_R   0.607280 0.218923 0.111958 0.782775
C19   C     C_R   0.152528 0.113366 0.720690 -0.145943
C20   C     C_R   0.847456 0.886574 0.279292 -0.145855
C21   C     C_R   0.072158 0.097028 0.687376 0.158665
C22   C     C_R   0.927853 0.902974 0.312627 0.158692
C23   C     C_R   0.024130 0.121234 0.744344 -0.102225
C24   C     C_3   0.983965 0.429835 0.414215 -0.195768
C25   C     C_R   0.975919 0.878835 0.255681 -0.102331
C26   C     C_R   0.056918 0.162633 0.834006 -0.143773
C27   C     C_R   0.943145 0.837444 0.166019 -0.143833
C28   C     C_R   0.137272 0.179262 0.866980 -0.111350
C29   C     C_R   0.862763 0.820753 0.133024 -0.111331
C30   C     C_R   0.981572 0.943219 0.535768 -0.261414
C31   C     C_R   0.018428 0.056781 0.464235 -0.261420
C32   C     C_R   0.945125 0.892226 0.444483 -0.050901
C33   C     C_R   0.054874 0.107774 0.555520 -0.050898
C34   C     C_R   0.963828 0.949770 0.408047 -0.017639
C35   C     C_3   0.016030 0.570159 0.585783 -0.195781
C36   C     C_R   0.036173 0.050231 0.591956 -0.017630
C37   C     C_R   0.696126 0.759491 0.926391 -0.144468
C38   C     C_R   0.303942 0.240537 0.073659 -0.144435
C39   C     C_R   0.649822 0.675079 0.932252 -0.151284
C40   C     C_R   0.350228 0.324939 0.067784 -0.151203
C41   C     C_R   0.112380 0.502392 0.891170 0.815204
C42   C     C_R   0.887618 0.497608 0.108827 0.815210
C43   C     C_R   0.592025 0.671122 0.983016 0.154694
C44   C     C_R   0.407979 0.328866 0.016973 0.154695
C45   C     C_R   0.582313 0.753313 0.029062 -0.132430
C46   C     C_3   0.415128 0.964607 0.963235 -0.195851
C47   C     C_R   0.417665 0.246657 0.970896 -0.132549
C48   C     C_R   0.629121 0.837808 0.023349 -0.118760
C49   C     C_R   0.370874 0.162171 0.976623 -0.118775
C50   C     C_R   0.685656 0.840694 0.971783 -0.111240
C51   C     C_R   0.314383 0.159313 0.028234 -0.111208
C52   C     C_R   0.592410 0.575781 0.040323 -0.271153
C53   C     C_R   0.407589 0.424203 0.959663 -0.271131
C54   C     C_R   0.550342 0.495901 0.052196 -0.040565
C55   C     C_R   0.449657 0.504089 0.947795 -0.040568
C56   C     C_R   0.456863 0.418264 0.010771 -0.018396
C57   C     C_3   0.584871 0.035394 0.036766 -0.195858
C58   C     C_R   0.543137 0.581723 0.989216 -0.018392
C59   C     C_R   0.078992 0.758350 0.925502 0.278200
C60   C     C_R   0.921006 0.241655 0.074493 0.278208
C61   C     C_R   0.070534 0.702999 0.961116 -0.124848
C62   C     C_R   0.929465 0.297006 0.038877 -0.124855
C63   C     C_R   0.011119 0.594300 0.908838 0.144831
C64   C     C_R   0.988883 0.405705 0.091153 0.144840
C65   C     C_R   0.392204 0.500042 0.607734 0.787739
C66   C     C_R   0.607796 0.499958 0.392266 0.787736
C67   C     C_R   0.960231 0.540872 0.820572 -0.147910
C68   C     C_3   0.500525 0.037485 0.952427 -0.247292
C69   C     C_R   0.039777 0.459132 0.179418 -0.147918
C70   C     C_R   0.967019 0.596096 0.785847 -0.195381
C71   C     C_R   0.032992 0.403909 0.214142 -0.195374
C72   C     C_R   0.026304 0.704273 0.837759 -0.124061
C73   C     C_R   0.973701 0.295733 0.162233 -0.124059
C74   C     C_R   0.938435 0.525234 0.994097 0.127065
C75   C     C_R   0.061572 0.474787 0.005909 0.127078
C76   C     C_R   0.941484 0.493407 0.049532 -0.124418
C77   C     C_R   0.058514 0.506597 0.950464 -0.124407
C78   C     C_R   0.999158 0.462185 0.051028 -0.061079
C79   C     C_3   0.499474 0.962516 0.047575 -0.247305
C80   C     C_R   0.000840 0.537819 0.948965 -0.061071
C81   C     C_R   0.393935 0.501714 0.890220 0.792233
C82   C     C_R   0.606065 0.498283 0.109778 0.792239
C83   C     C_R   0.108776 0.500267 0.608122 0.799093
C84   C     C_R   0.891222 0.499732 0.391878 0.799091
C85   C     C_3   0.077389 0.525749 0.484070 0.251070
C86   C     C_3   0.922606 0.474245 0.515927 0.251066
C87   C     C_3   0.042473 0.595087 0.516798 -0.227966
C88   C     C_3   0.957522 0.404907 0.483200 -0.227968
C89   C     C_3   0.948868 0.498948 0.448019 0.005866
C90   C     C_3   0.550070 0.102870 0.052933 0.004773
C91   C     C_3   0.051128 0.501047 0.551979 0.005863
C92   C     C_3   0.167600 0.557465 0.468693 -0.955844
C93   C     C_3   0.832393 0.442527 0.531301 -0.955843
C94   C     C_3   0.143213 0.874334 0.980214 -0.991108
C95   C     C_3   0.856778 0.125672 0.019786 -0.991071
C96   C     C_3   0.865931 0.541003 0.979423 -0.843195
C97   C     C_3   0.134108 0.459078 0.020622 -0.843228
C98   C     C_3   0.425924 0.065757 0.135889 -0.932408
C99   C     C_3   0.574076 0.934244 0.864113 -0.932394
C100  C     C_3   0.317025 0.359012 0.386993 -0.881130
H1    H     H_    0.076981 0.672730 0.529290 0.141092
H2    H     H_    0.980266 0.818765 0.122225 0.127428
H3    H     H_    0.968076 0.899727 0.564141 0.175786
H4    H     H_    0.031927 0.100272 0.435860 0.175787
H5    H     H_    0.721468 0.905884 0.967114 0.130410
H6    H     H_    0.278585 0.094130 0.032914 0.130398
H7    H     H_    0.740179 0.761999 0.886735 0.126965
H8    H     H_    0.259927 0.238053 0.113353 0.126952
H9    H     H_    0.658492 0.612608 0.896946 0.122808
H10   H     H_    0.341582 0.387427 0.103117 0.122787
H11   H     H_    0.538569 0.751727 0.069096 0.101678
H12   H     H_    0.923015 0.327264 0.470708 0.141093
H13   H     H_    0.461377 0.248223 0.930830 0.101708
H14   H     H_    0.621756 0.901131 0.059027 0.120793
H15   H     H_    0.378220 0.098835 0.940922 0.120788
H16   H     H_    0.664138 0.635532 0.072287 0.180675
H17   H     H_    0.335862 0.364450 0.927697 0.180685
H18   H     H_    0.031083 0.745983 0.809712 0.127777
H19   H     H_    0.968922 0.254025 0.190283 0.127773
H20   H     H_    0.109837 0.744025 0.029323 0.114168
H21   H     H_    0.890157 0.255980 0.970672 0.114163
H22   H     H_    0.913955 0.457077 0.779769 0.119008
H23   H     H_    0.162495 0.211150 0.936340 0.131325
H24   H     H_    0.086056 0.542927 0.220218 0.119008
H25   H     H_    0.925801 0.555045 0.718803 0.147998
H26   H     H_    0.074216 0.444958 0.281183 0.147989
H27   H     H_    0.969099 0.370818 0.343828 0.150113
H28   H     H_    0.030895 0.629176 0.656169 0.150112
H29   H     H_    0.501959 0.068702 0.913345 0.131281
H30   H     H_    0.498040 0.931299 0.086657 0.131279
H31   H     H_    0.345046 0.935183 0.933266 0.145693
H32   H     H_    0.654953 0.064818 0.066737 0.145689
H33   H     H_    0.473475 0.554888 0.410522 0.141452
H34   H     H_    0.837549 0.788871 0.063664 0.131323
H35   H     H_    0.526525 0.445112 0.589477 0.141456
H36   H     H_    0.246557 0.166223 0.835665 0.134804
H37   H     H_    0.753418 0.833679 0.164300 0.134782
H38   H     H_    0.174241 0.584864 0.425531 0.232593
H39   H     H_    0.223082 0.621592 0.533282 0.236148
H40   H     H_    0.172543 0.490300 0.436711 0.251547
H41   H     H_    0.825743 0.415110 0.574452 0.232595
H42   H     H_    0.827454 0.509694 0.563294 0.251544
H43   H     H_    0.776913 0.378411 0.466709 0.236146
H44   H     H_    0.192660 0.896919 0.947044 0.242882
H45   H     H_    0.189714 0.093997 0.677242 0.115530
H46   H     H_    0.105436 0.909115 0.986802 0.242227
H47   H     H_    0.180734 0.906147 0.047826 0.241163
H48   H     H_    0.894549 0.090888 0.013212 0.242217
H49   H     H_    0.807325 0.103100 0.052956 0.242878
H50   H     H_    0.819261 0.093849 0.952165 0.241160
H51   H     H_    0.886234 0.619649 0.034218 0.258622
H52   H     H_    0.852274 0.532173 0.915981 0.221677
H53   H     H_    0.800263 0.480895 0.974786 0.229739
H54   H     H_    0.113830 0.380434 0.965857 0.258602
H55   H     H_    0.199761 0.519186 0.025238 0.229722
H56   H     H_    0.810240 0.905891 0.322725 0.115499
H57   H     H_    0.147781 0.467958 0.084085 0.221683
H58   H     H_    0.406150 0.112745 0.131606 0.257942
H59   H     H_    0.365500 0.996738 0.127090 0.238474
H60   H     H_    0.476531 0.113256 0.202099 0.232296
H61   H     H_    0.593857 0.887263 0.868402 0.257945
H62   H     H_    0.523468 0.886737 0.797903 0.232295
H63   H     H_    0.634496 0.003262 0.872909 0.238473
H64   H     H_    0.464580 0.324707 0.399462 0.143640
H65   H     H_    0.535420 0.675293 0.600537 0.143641
H66   H     H_    0.315045 0.324941 0.316828 0.230713
H67   H     H_    0.961569 0.108064 0.719267 0.111997
H68   H     H_    0.280132 0.295798 0.396363 0.247943
H69   H     H_    0.284246 0.400540 0.402198 0.244247
H70   H     H_    0.684954 0.675059 0.683171 0.230726
H71   H     H_    0.715754 0.599460 0.597802 0.244246
H72   H     H_    0.719867 0.704202 0.603636 0.247941
H73   H     H_    0.038502 0.892055 0.280777 0.112016
H74   H     H_    0.019826 0.181365 0.877817 0.127409
O1    O     O_3   0.251620 0.500000 0.748430 -0.483465
O2    O     O_R   0.570330 0.268390 0.136490 -0.629622
O3    O     O_R   0.134680 0.268390 0.572240 -0.650377
O4    O     O_R   0.865320 0.731610 0.427760 -0.650378
O5    O     O_R   0.306670 0.731630 0.863510 -0.643735
O6    O     O_R   0.693330 0.268370 0.136490 -0.643739
O7    O     O_R   0.135450 0.439270 0.865360 -0.636765
O8    O     O_R   0.864550 0.560730 0.134640 -0.636768
O9    O     O_R   0.429670 0.560710 0.692610 -0.638975
O10   O     O_R   0.570330 0.439290 0.307390 -0.638981
O11   O     O_R   0.308540 0.439240 0.865360 -0.648953
O12   O     O_3   0.748380 0.500000 0.251570 -0.483465
O13   O     O_R   0.691460 0.560760 0.134640 -0.648962
O14   O     O_R   0.133580 0.439310 0.571150 -0.638385
O15   O     O_R   0.866420 0.560690 0.428850 -0.638383
O16   O     O_R   0.430770 0.560690 0.864590 -0.634377
O17   O     O_R   0.569230 0.439310 0.135410 -0.634370
O18   O     O_R   0.133580 0.560760 0.692610 -0.641813
O19   O     O_R   0.866420 0.439240 0.307390 -0.641816
O20   O     O_R   0.134680 0.560740 0.864590 -0.639032
O21   O     O_R   0.865320 0.439260 0.135410 -0.639026
O22   O     O_R   0.306670 0.439270 0.571150 -0.640874
O23   O     O_R   0.693330 0.560730 0.428850 -0.640874
O24   O     O_R   0.135450 0.268370 0.694460 -0.635249
O25   O     O_R   0.864550 0.731630 0.305540 -0.635240
O26   O     O_R   0.429670 0.731610 0.863510 -0.629630
Zn1   Zn    Zn3+2 0.207400 0.586780 0.791530 0.967825
Zn2   Zn    Zn3+2 0.792600 0.413220 0.208470 0.967828
Zn3   Zn    Zn3+2 0.208510 0.413230 0.792630 0.958468
Zn4   Zn    Zn3+2 0.791490 0.586770 0.207370 0.958470
Zn5   Zn    Zn3+2 0.383150 0.586740 0.791530 0.970931
Zn6   Zn    Zn3+2 0.616850 0.413260 0.208470 0.970932
Zn7   Zn    Zn3+2 0.207400 0.413250 0.618010 0.952839
Zn8   Zn    Zn3+2 0.792600 0.586750 0.381990 0.952839

loop_
_geom_bond_atom_site_label_1
_geom_bond_atom_site_label_2
_ccdc_geom_bond_type
C94   H46   S    
C7    C10   S    
C38   C40   A    
O14   Zn7   S    
O26   Zn5   S    
C73   H19   S    
C4    C98   S    
C82   O17   A    
C27   C29   A    
C57   C79   S    
C57   H32   S    
C1    O24   A    
O1    Zn7   S    
C92   H38   S    
C24   C89   S    
C85   C91   S    
C28   H23   S    
C1    C33   S    
C47   C49   A    
O21   Zn2   S    
C4    C46   S    
C42   O8    A    
C15   C19   A    
C19   H45   S    
C10   C66   S    
C74   C76   A    
O8    Zn4   S    
C60   C62   A    
C19   C21   A    
C76   C78   A    
C37   H7    S    
C3    C7    S    
C41   C77   S    
C11   C14   S    
C86   C88   S    
C3    H72   S    
C45   C48   A    
C14   H35   S    
C26   H74   S    
O15   Zn8   S    
C13   O4    A    
C96   H52   S    
C60   C73   A    
C75   C97   S    
C33   C36   A    
O10   Zn6   S    
O12   Zn2   S    
C17   O26   A    
C100  H66   S    
C23   C26   A    
O2    Zn6   S    
C61   C63   A    
C62   C64   A    
C2    C79   S    
C13   C32   S    
C43   C58   S    
C32   C34   A    
C99   H61   S    
C48   H14   S    
C35   C87   S    
C7    C14   S    
O5    Zn1   S    
C18   O2    A    
C49   C51   A    
C22   C25   A    
O4    Zn8   S    
C30   H3    S    
C24   H27   S    
C68   C90   S    
O18   Zn1   S    
C31   C33   A    
C71   H26   S    
C95   H49   S    
C59   C94   S    
C55   C81   S    
C13   O25   A    
C24   C85   S    
C40   C44   A    
C93   H43   S    
C44   C47   A    
C59   C72   A    
C65   O22   A    
C17   O5    A    
C85   C87   S    
C29   H34   S    
C18   O6    A    
C74   C80   A    
C2    C17   S    
O24   Zn3   S    
C41   O7    A    
O7    Zn3   S    
C1    O3    A    
C5    C68   S    
C10   C12   S    
C6    C12   S    
C81   O11   A    
C75   C78   A    
C85   C92   S    
C52   C54   A    
C4    C90   S    
C63   C80   S    
C52   H16   S    
C39   C43   A    
C22   C34   S    
C63   C67   A    
C79   H30   S    
C59   C61   A    
C16   H37   S    
C69   C71   A    
C57   C90   S    
O12   Zn6   S    
C18   C90   S    
C98   H58   S    
C83   O18   A    
O1    Zn1   S    
C4    C79   S    
C8    H64   S    
C46   H31   S    
C21   C36   S    
C6    C8    S    
C38   C51   A    
C69   H24   S    
C16   C29   A    
C64   C69   A    
O20   Zn1   S    
O13   Zn4   S    
C2    C46   S    
O19   Zn2   S    
O3    Zn7   S    
O17   Zn6   S    
C6    C100  S    
O6    Zn2   S    
C46   C68   S    
C41   O20   A    
C86   C93   S    
C74   C96   S    
C50   H5    S    
C99   H62   S    
C75   C77   A    
C44   C56   S    
O16   Zn5   S    
C96   H53   S    
C88   C91   S    
C87   H1    S    
C84   O19   A    
C16   C20   A    
C31   C34   A    
O12   Zn4   S    
C84   O15   A    
C3    H70   S    
C95   H50   S    
C97   H54   S    
C43   C45   A    
C9    C11   S    
C52   C58   A    
C99   H63   S    
C70   H25   S    
C49   H15   S    
C20   C22   A    
C12   H33   S    
C21   C23   A    
O25   Zn4   S    
O9    Zn5   S    
C23   H67   S    
C83   O14   A    
C2    C5    S    
C84   C89   S    
O1    Zn5   S    
C53   C55   A    
C92   H40   S    
C67   H22   S    
C6    C11   S    
C93   H41   S    
C71   C73   A    
C65   O9    A    
C53   C56   A    
C94   H47   S    
C47   H13   S    
C66   O10   A    
C54   C82   S    
C8    C14   S    
C20   H56   S    
C100  H69   S    
C64   C78   S    
C24   C88   S    
C95   H48   S    
C98   H60   S    
C86   C89   S    
C40   H10   S    
O12   Zn8   S    
C45   H11   S    
C54   C56   A    
C15   H36   S    
C30   C36   A    
C25   C27   A    
C83   C91   S    
C27   H2    S    
C26   C28   A    
C5    C57   S    
C82   O13   A    
C100  H68   S    
C67   C70   A    
C94   H44   S    
C31   H4    S    
O11   Zn3   S    
O22   Zn7   S    
C9    H65   S    
O1    Zn3   S    
C37   C39   A    
C30   C32   A    
C37   C50   A    
C96   H51   S    
C3    H71   S    
C15   C28   A    
C77   C80   A    
C51   H6    S    
C48   C50   A    
C35   C86   S    
C42   C76   S    
C53   H17   S    
C42   O21   A    
C97   H55   S    
C25   H73   S    
C38   H8    S    
C68   H29   S    
C9    C12   S    
C81   O16   A    
C66   O23   A    
C5    C99   S    
C88   H12   S    
C60   C95   S    
C7    C9    S    
C39   H9    S    
C98   H59   S    
C8    C10   S    
C55   C58   A    
C72   H18   S    
C35   H28   S    
C87   C89   S    
O23   Zn8   S    
C70   C72   A    
C92   H39   S    
C62   H21   S    
C93   H42   S    
C11   C65   S    
C97   H57   S    
C61   H20   S    
C35   C91   S    
