data_mof_unit_31062.cif
_audit_creation_date              2013-03-05T15:46:58-0500
_audit_creation_method            fapswitch 2.2
_symmetry_space_group_name_H-M    P1
_symmetry_Int_Tables_number       1
_space_group_crystal_system       triclinic
_cell_length_a                    10.197346
_cell_length_b                    10.803064
_cell_length_c                    15.018555
_cell_angle_alpha                 93.848341
_cell_angle_beta                  84.224059
_cell_angle_gamma                 97.903286
_cell_volume                      1628.06337878

loop_
_atom_site_label
_atom_site_type_symbol
_atom_site_description
_atom_site_fract_x
_atom_site_fract_y
_atom_site_fract_z
_atom_type_partial_charge
O1    O     O_R   0.431060 0.692470 0.507460 -0.622808
O2    O     O_R   0.568940 0.307530 0.492540 -0.615182
O3    O     O_R   0.651120 0.659650 0.483670 -0.615543
O4    O     O_R   0.348880 0.340350 0.516330 -0.636387
C1    C     C_R   0.557154 0.732666 0.496323 0.963268
C2    C     C_R   0.443152 0.267736 0.506430 0.968354
O5    O     O_R   0.389960 0.516440 0.644050 -0.598811
O6    O     O_R   0.610040 0.483560 0.355950 -0.617308
O7    O     O_R   0.610030 0.483620 0.620260 -0.657891
O8    O     O_R   0.389970 0.516380 0.379740 -0.617983
C3    C     C_R   0.503858 0.505656 0.672341 0.901259
C4    C     C_R   0.496529 0.496537 0.327952 0.903762
Zn1   Zn    Zn3+2 0.353060 0.521920 0.515880 0.921775
Zn2   Zn    Zn3+2 0.646940 0.478080 0.484120 0.905911
C5    C     C_R   0.429340 0.393243 0.185569 -0.107201
C6    C     C_R   0.575855 0.609004 0.814560 -0.095300
C7    C     C_R   0.494142 0.497120 0.232646 -0.148334
C8    C     C_R   0.507663 0.506023 0.768021 -0.149166
C9    C     C_R   0.570275 0.596568 0.188737 -0.078210
C10   C     C_R   0.432581 0.407151 0.813309 -0.094625
C11   C     C_R   0.578395 0.595234 0.095302 0.062838
C12   C     C_R   0.443995 0.399082 0.904262 0.064538
C13   C     C_R   0.513890 0.492831 0.046129 0.026757
C14   C     C_R   0.517440 0.497089 0.952137 0.024385
C15   C     C_R   0.444175 0.387379 0.090730 0.029389
C16   C     C_R   0.587336 0.602256 0.907211 0.032612
C17   C     C_R   0.652901 0.694255 0.050362 -0.283699
C18   C     C_R   0.385147 0.291955 0.947285 -0.271524
C19   C     C_R   0.661349 0.698088 0.958195 -0.011761
C20   C     C_R   0.390478 0.281726 0.037988 -0.020659
H1    H     H_    0.709216 0.770224 0.086689 0.170330
H2    H     H_    0.340592 0.210971 0.909188 0.161810
H3    H     H_    0.614036 0.111454 0.519321 0.195162
H4    H     H_    0.384785 0.892803 0.513556 0.184220
C21   C     C_2   0.589489 0.867022 0.501113 -0.320658
C22   C     C_2   0.411410 0.134367 0.511161 -0.385818
C23   C     C_2   0.488214 0.934974 0.510998 -0.161423
C24   C     C_2   0.511777 0.068047 0.515525 -0.197817
H5    H     H_    0.309285 0.090409 0.508460 0.146803
H6    H     H_    0.692532 0.910105 0.497588 0.144928
N1    N     N_2   0.842700 0.448880 0.462930 -0.230400
N2    N     N_2   0.157300 0.551120 0.537070 -0.228261
C25   C     C_2   0.923176 0.486187 0.525315 0.151326
C26   C     C_2   0.063101 0.462347 0.515003 0.154162
H7    H     H_    0.133683 0.641219 0.541801 0.159396
H8    H     H_    0.886272 0.422881 0.400797 0.153352
C27   C     C_R   0.338155 0.297576 0.236007 0.137472
C28   C     C_R   0.200018 0.294654 0.236129 -0.146945
C29   C     C_R   0.113633 0.196187 0.274027 -0.157011
C30   C     C_R   0.164588 0.100739 0.312462 -0.103840
C31   C     C_R   0.301850 0.104381 0.313883 -0.134096
C32   C     C_R   0.388606 0.203812 0.277488 -0.144758
H9    H     H_    0.159755 0.366309 0.204297 0.121959
H10   H     H_    0.007385 0.193030 0.272432 0.121854
H11   H     H_    0.097839 0.023829 0.340917 0.113425
H12   H     H_    0.341085 0.029080 0.342032 0.131689
H13   H     H_    0.494906 0.204556 0.277521 0.117548
C33   C     C_R   0.590391 0.733133 0.774846 0.113630
C34   C     C_R   0.483300 0.803233 0.788540 -0.145892
C35   C     C_R   0.497041 0.924612 0.759254 -0.148024
C36   C     C_R   0.617070 0.976435 0.714798 -0.093427
C37   C     C_R   0.723100 0.906397 0.699187 -0.132943
C38   C     C_R   0.709969 0.785462 0.729402 -0.150636
H14   H     H_    0.390461 0.765045 0.824248 0.128287
H15   H     H_    0.415062 0.978566 0.772707 0.130321
H16   H     H_    0.628827 0.070920 0.692883 0.117142
H17   H     H_    0.816616 0.947023 0.665864 0.116531
H18   H     H_    0.795946 0.737592 0.723937 0.147435
C39   C     C_R   0.638748 0.704665 0.240561 0.116865
C40   C     C_R   0.773611 0.708564 0.253975 -0.097815
C41   C     C_R   0.843908 0.818052 0.289407 -0.152392
C42   C     C_R   0.780665 0.924657 0.310042 -0.136344
C43   C     C_R   0.646173 0.920921 0.297393 -0.133755
C44   C     C_R   0.574555 0.810465 0.264534 -0.190139
H19   H     H_    0.824818 0.628107 0.234610 0.122432
H20   H     H_    0.948010 0.820937 0.299162 0.118859
H21   H     H_    0.835414 0.009832 0.336511 0.119352
H22   H     H_    0.597240 0.003373 0.313692 0.142549
H23   H     H_    0.470576 0.808607 0.254623 0.133100
C45   C     C_R   0.325215 0.323949 0.770199 0.150821
C46   C     C_R   0.349805 0.209952 0.726345 -0.172018
C47   C     C_R   0.244274 0.124771 0.697498 -0.159141
C48   C     C_R   0.114742 0.155194 0.709078 -0.135573
C49   C     C_R   0.089644 0.269314 0.752103 -0.188150
C50   C     C_R   0.194309 0.353115 0.783246 -0.115309
H24   H     H_    0.449953 0.186426 0.716843 0.121522
H25   H     H_    0.262731 0.034931 0.666124 0.137108
H26   H     H_    0.033637 0.089697 0.685850 0.132247
H27   H     H_    0.988862 0.291903 0.762429 0.139052
H28   H     H_    0.173391 0.439862 0.818776 0.124206
C51   C     C_R   0.761958 0.798067 0.921616 0.142469
C52   C     C_R   0.734635 0.922555 0.927805 -0.126633
C53   C     C_R   0.836924 0.020456 0.910261 -0.145017
C54   C     C_R   0.967335 0.994921 0.888317 -0.128408
C55   C     C_R   0.995284 0.871430 0.881650 -0.150585
C56   C     C_R   0.893238 0.773303 0.899168 -0.177250
H29   H     H_    0.634802 0.943611 0.947851 0.137486
H30   H     H_    0.815565 0.116256 0.915708 0.127139
H31   H     H_    0.047239 0.070921 0.878303 0.147513
H32   H     H_    0.096650 0.852084 0.865605 0.133290
H33   H     H_    0.917266 0.678747 0.899114 0.126340
C57   C     C_R   0.357364 0.152827 0.068574 0.155991
C58   C     C_R   0.226869 0.090608 0.068164 -0.136912
C59   C     C_R   0.199324 0.964052 0.086759 -0.128407
C60   C     C_R   0.302331 0.897999 0.103076 -0.118827
C61   C     C_R   0.432764 0.958542 0.100877 -0.158169
C62   C     C_R   0.460405 0.085457 0.083936 -0.161298
H34   H     H_    0.147011 0.140110 0.053125 0.122920
H35   H     H_    0.098507 0.916832 0.087242 0.137547
H36   H     H_    0.281447 0.799617 0.116269 0.124668
H37   H     H_    0.513083 0.906883 0.110635 0.143196
H38   H     H_    0.562319 0.130563 0.080705 0.122595
C63   C     C_3   0.087748 0.326716 0.503373 -0.300034
C64   C     C_3   0.966263 0.226061 0.498477 -0.991707
H39   H     H_    0.891707 0.237371 0.556673 0.267414
H40   H     H_    0.920052 0.227346 0.434960 0.258377
H41   H     H_    0.998708 0.132321 0.500486 0.246977
H42   H     H_    0.155104 0.314949 0.441688 0.242711
H43   H     H_    0.131240 0.306624 0.564457 0.258711
C65   C     C_3   0.869734 0.525034 0.618736 -0.309284
C66   C     C_3   0.967407 0.568019 0.689533 -1.017166
H44   H     H_    0.039527 0.500967 0.692443 0.287812
H45   H     H_    0.019851 0.663308 0.677721 0.258986
H46   H     H_    0.910666 0.571592 0.756413 0.253543
H47   H     H_    0.813178 0.603270 0.611578 0.235859
H48   H     H_    0.810105 0.439997 0.646092 0.241384

loop_
_geom_bond_atom_site_label_1
_geom_bond_atom_site_label_2
_geom_bond_distance
_ccdc_geom_bond_type
C60   H36   1.082461 S    
C3    C8    1.441135 S    
C53   C54   1.397738 A    
C17   C19   1.381260 A    
H4    C23   1.087882 S    
C62   H38   1.083333 S    
C55   C56   1.398138 A    
C5    C27   1.485112 S    
O7    Zn2   2.039760 S    
C64   H39   1.111000 S    
O5    C3    1.298561 A    
C34   H14   1.083592 S    
C45   C50   1.405117 A    
N1    H8    1.030903 S    
C37   H17   1.082027 S    
O1    C1    1.297228 A    
C9    C11   1.396568 A    
C23   C24   1.422751 S    
C14   C16   1.427400 A    
C59   H35   1.082576 S    
C65   H48   1.108704 S    
C5    C15   1.415222 A    
C61   C62   1.396475 A    
C29   H10   1.081918 S    
C15   C20   1.422700 A    
C31   H12   1.081788 S    
C43   C44   1.398081 A    
O4    Zn1   1.956560 S    
C59   C60   1.397851 A    
C66   H46   1.108671 S    
C57   C58   1.406318 A    
C51   C56   1.404612 A    
C63   H43   1.104777 S    
C36   H16   1.080777 S    
C27   C28   1.404454 A    
C4    C7    1.434459 S    
C43   H22   1.081978 S    
C40   C41   1.398273 A    
C46   H24   1.079383 S    
C25   C65   1.507183 S    
C36   C37   1.395221 A    
C48   H26   1.081833 S    
C11   C17   1.395466 A    
C34   C35   1.395345 A    
C12   C18   1.395821 A    
C56   H33   1.082659 S    
N1    C25   1.314090 D    
O2    C2    1.296221 A    
N2    C26   1.311618 D    
Zn1   N2    2.053670 S    
C52   H29   1.082392 S    
C46   C47   1.400210 A    
C61   H37   1.079160 S    
C6    C16   1.415626 A    
C28   H9    1.083017 S    
C10   C45   1.489875 S    
C17   H1    1.083668 S    
C31   C32   1.398356 A    
C18   H2    1.083982 S    
C49   C50   1.398360 A    
O4    C2    1.313232 A    
C51   C52   1.405676 A    
C55   H32   1.082928 S    
C45   C46   1.398603 A    
C33   C34   1.403439 A    
C35   C36   1.398063 A    
N2    H7    1.030629 S    
C25   C26   1.475631 S    
C42   H21   1.081989 S    
C48   C49   1.396246 A    
O6    C4    1.298770 A    
C20   C57   1.479672 S    
C37   C38   1.396410 A    
C30   C31   1.397114 A    
C57   C62   1.403076 A    
C6    C33   1.486891 S    
O7    C3    1.309993 A    
C66   H44   1.106659 S    
C58   H34   1.083112 S    
O3    Zn2   1.956557 S    
O8    C4    1.305075 A    
Zn2   N1    2.053670 S    
C28   C29   1.397915 A    
C10   C12   1.392048 A    
C35   H15   1.078699 S    
C47   C48   1.395873 A    
C54   C55   1.397107 A    
C44   H23   1.082744 S    
C11   C13   1.410631 A    
C12   C14   1.409628 A    
C9    C39   1.490034 S    
O1    Zn1   1.910844 S    
C49   H27   1.082399 S    
C40   H19   1.083080 S    
C65   C66   1.535547 S    
C63   C64   1.536109 S    
C33   C38   1.402498 A    
C5    C7    1.406934 A    
C38   H18   1.071144 S    
O6    Zn2   2.004406 S    
C21   C23   1.338082 D    
C65   H47   1.103282 S    
C22   H5    1.087014 S    
C30   H11   1.081594 S    
C42   C43   1.398153 A    
O3    C1    1.314365 A    
O8    Zn1   2.039757 S    
C26   C63   1.516133 S    
C64   H40   1.107390 S    
C50   H28   1.083233 S    
C27   C32   1.404060 A    
C60   C61   1.397423 A    
H3    C24   1.088309 S    
C18   C20   1.381147 A    
C21   H6    1.086809 S    
C41   C42   1.397984 A    
C41   H20   1.082108 S    
C54   H31   1.081001 S    
C1    C21   1.442140 S    
C22   C24   1.336627 D    
C52   C53   1.398117 A    
C7    C9    1.398030 A    
C2    C22   1.437552 S    
C8    C10   1.399111 A    
C13   C15   1.426786 A    
C39   C40   1.404416 A    
O2    Zn2   1.910845 S    
C66   H45   1.109584 S    
C64   H41   1.110924 S    
C32   H13   1.082952 S    
C13   C14   1.412115 A    
C63   H42   1.107389 S    
O5    Zn1   2.004409 S    
C16   C19   1.422247 A    
C6    C8    1.410830 A    
C29   C30   1.397872 A    
C58   C59   1.398555 A    
C39   C44   1.402689 A    
C53   H30   1.082707 S    
C47   H25   1.081846 S    
C19   C51   1.477297 S    
