data_mof_unit_26138.cif
_audit_creation_date              2012-12-11T15:48:01-0500
_audit_creation_method            fapswitch 2.2
_symmetry_space_group_name_H-M    P1
_symmetry_Int_Tables_number       1
_space_group_crystal_system       triclinic
_cell_length_a                    6.926146
_cell_length_b                    17.599411
_cell_length_c                    19.462232
_cell_angle_alpha                 108.459035
_cell_angle_beta                  89.358462
_cell_angle_gamma                 90.395528
_cell_volume                      2250.15704423

loop_
_atom_site_label
_atom_site_type_symbol
_atom_type_description
_atom_site_fract_x
_atom_site_fract_y
_atom_site_fract_z
_atom_type_partial_charge
O1    O     O_R   0.494330 0.415710 0.413720 -0.542709
O2    O     O_R   0.819360 0.430070 0.560210 -0.534895
O3    O     O_R   0.994320 0.584290 0.586280 -0.510692
C1    C     C_R   0.650028 0.414524 0.581528 0.771758
O4    O     O_R   0.823740 0.406290 0.412670 -0.511804
O5    O     O_R   0.998730 0.560340 0.437690 -0.547972
C2    C     C_R   0.655581 0.382249 0.385309 0.750835
O6    O     O_R   0.489920 0.439660 0.562310 -0.541600
O7    O     O_3   0.662330 0.550570 0.508380 -0.369389
V1    V     V_3+5 0.935370 0.490620 0.498440 1.546763
O8    O     O_R   0.328720 0.569930 0.439790 -0.552342
C3    C     C_R   0.160694 0.585074 0.418108 0.691308
O9    O     O_R   0.324340 0.593710 0.587330 -0.537263
C4    C     C_R   0.154368 0.615665 0.616262 0.733121
V2    V     V_3+5 0.435940 0.509380 0.501560 1.490420
O10   O     O_3   0.159110 0.449430 0.491620 -0.355733
C5    C     C_R   0.298985 0.735251 0.709041 -0.163882
H1    H     H_    0.429943 0.726980 0.676638 0.172014
C6    C     C_R   0.290171 0.799549 0.773615 -0.139865
H2    H     H_    0.414677 0.838576 0.789217 0.130186
C7    C     C_R   0.121814 0.814178 0.816730 -0.110810
C8    C     C_R   0.964045 0.762098 0.794497 -0.187358
H3    H     H_    0.834024 0.771276 0.827553 0.158284
C9    C     C_R   0.972507 0.696631 0.730774 0.381007
C10   C     C_R   0.140809 0.682993 0.686037 -0.126815
C11   C     C_R   0.990064 0.630120 0.324643 -0.203769
C12   C     C_R   0.152604 0.634317 0.368634 -0.078900
C13   C     C_R   0.307070 0.685294 0.364658 -0.222679
C14   C     C_R   0.299090 0.732152 0.318147 0.091240
C15   C     C_R   0.136481 0.726821 0.273737 0.055202
C16   C     C_R   0.981897 0.675321 0.276800 0.086670
C17   C     C_R   0.450779 0.784404 0.315283 -0.180863
C18   C     C_R   0.442910 0.830125 0.268167 -0.182293
C19   C     C_R   0.283010 0.824575 0.223115 0.088551
C20   C     C_R   0.128432 0.773071 0.226175 0.055051
C21   C     C_R   0.965824 0.767739 0.181765 0.089675
C22   C     C_R   0.814138 0.715486 0.184626 -0.175161
C23   C     C_R   0.822002 0.669767 0.231745 -0.180025
C24   C     C_R   0.274831 0.869785 0.175280 -0.203252
C25   C     C_R   0.112289 0.865590 0.131290 -0.083125
C26   C     C_R   0.957838 0.814601 0.135258 -0.216233
H4    H     H_    0.870785 0.590691 0.326810 0.125028
H5    H     H_    0.432608 0.689287 0.398420 0.125952
H6    H     H_    0.576396 0.789541 0.349176 0.135821
H7    H     H_    0.562708 0.869521 0.266666 0.136926
H8    H     H_    0.394103 0.909220 0.173119 0.125627
H9    H     H_    0.832300 0.810607 0.101495 0.129719
H10   H     H_    0.688524 0.710347 0.150732 0.139205
H11   H     H_    0.702203 0.630373 0.233247 0.138296
C27   C     C_R   0.467185 0.185884 0.867758 -0.203383
C28   C     C_R   0.623682 0.136047 0.870189 -0.081079
C29   C     C_R   0.784917 0.133075 0.824751 -0.215757
C30   C     C_R   0.788691 0.177849 0.776389 0.091526
C31   C     C_R   0.631194 0.227691 0.774490 0.056724
C32   C     C_R   0.470619 0.232139 0.820776 0.082052
C33   C     C_R   0.946516 0.173217 0.729408 -0.187568
C34   C     C_R   0.949458 0.218157 0.681558 -0.178239
C35   C     C_R   0.794627 0.268558 0.679809 0.087671
C36   C     C_R   0.634092 0.273048 0.726121 0.055363
C37   C     C_R   0.476588 0.322882 0.724207 0.084863
C38   C     C_R   0.318811 0.327547 0.771219 -0.174483
C39   C     C_R   0.315844 0.282584 0.819057 -0.173824
C40   C     C_R   0.797920 0.314680 0.632727 -0.203767
C41   C     C_R   0.641341 0.364436 0.630214 -0.081868
C42   C     C_R   0.480258 0.367561 0.675758 -0.186965
H12   H     H_    0.342593 0.189032 0.902770 0.143804
H13   H     H_    0.905609 0.094583 0.825859 0.122647
H14   H     H_    0.068385 0.135119 0.729918 0.132770
H15   H     H_    0.073707 0.213882 0.646211 0.139228
H16   H     H_    0.922444 0.311453 0.597666 0.138725
H17   H     H_    0.359567 0.406041 0.674619 0.132334
H18   H     H_    0.196950 0.365649 0.770710 0.143009
H19   H     H_    0.191581 0.286849 0.854395 0.143571
C43   C     C_R   0.795969 0.256456 0.293588 0.414537
C44   C     C_R   0.780617 0.194271 0.227827 -0.187270
H20   H     H_    0.896240 0.150839 0.211984 0.188547
C45   C     C_R   0.618041 0.186371 0.183429 -0.204241
C46   C     C_R   0.468445 0.243574 0.206506 0.415528
C47   C     C_R   0.483799 0.305765 0.272270 -0.187270
H21   H     H_    0.368178 0.349198 0.288117 0.187955
C48   C     C_R   0.646398 0.313672 0.316659 -0.198783
O11   O     O_R   0.774940 0.060470 0.937800 -0.541147
O12   O     O_R   0.440880 0.093730 0.087350 -0.506979
O13   O     O_R   0.266130 0.939630 0.062280 -0.543007
C49   C     C_R   0.608974 0.117815 0.114760 0.771865
O14   O     O_R   0.445480 0.069960 0.939820 -0.543239
O15   O     O_R   0.270770 0.915690 0.913690 -0.544601
C50   C     C_R   0.614850 0.085699 0.918659 0.712187
O16   O     O_R   0.770300 0.084410 0.086380 -0.537489
O17   O     O_3   0.602600 0.949510 0.991670 -0.381771
V3    V     V_3+5 0.329470 0.009370 0.001550 1.492471
O18   O     O_R   0.940760 0.906160 0.912560 -0.549583
C51   C     C_R   0.110418 0.883082 0.884757 0.692486
O19   O     O_R   0.936150 0.929930 0.060100 -0.547708
C52   C     C_R   0.104177 0.914847 0.081827 0.712229
V4    V     V_3+5 0.828930 0.990450 0.998310 1.441502
O20   O     O_3   0.105670 0.050490 0.008320 -0.346165
Cl1   Cl    Cl    0.002573 0.256762 0.345835 -0.644294
Cl2   Cl    Cl    0.261825 0.243240 0.154262 -0.635710
Cl3   Cl    Cl    0.770119 0.632088 0.712709 -0.686638

loop_
_geom_bond_atom_site_label_1
_geom_bond_atom_site_label_2
_ccdc_geom_bond_type
O15   V3    S    
C18   H7    S    
C20   C21   A    
C1    O6    A    
C34   C35   A    
C43   Cl1   S    
C23   H11   S    
C45   C46   A    
C11   C12   A    
C14   C15   A    
C15   C20   A    
C13   C14   A    
C6    C7    A    
C14   C17   A    
O14   V3    S    
O5    C3    A    
C15   C16   A    
O14   C50   A    
V2    O10   S    
C32   C39   A    
O18   V4    S    
C33   C34   A    
C5    H1    S    
C19   C20   A    
O8    V2    S    
C6    H2    S    
C30   C31   A    
C39   H19   S    
O1    V2    S    
O13   V3    S    
O7    V1    S    
C45   C49   S    
C11   C16   A    
O1    C2    A    
O9    C4    A    
C21   C26   A    
C38   C39   A    
C27   C28   A    
C31   C36   A    
C17   H6    S    
O11   V4    S    
C43   C44   A    
C3    C12   S    
C28   C29   A    
C9    C10   A    
C24   C25   A    
O4    C2    A    
C49   O16   A    
C46   C47   A    
C35   C36   A    
C33   H14   S    
C19   C24   A    
C37   C38   A    
O13   C52   A    
O2    C1    A    
C44   H20   S    
C22   C23   A    
C44   C45   A    
C40   H16   S    
V4    O20   S    
C18   C19   A    
C26   H9    S    
V3    O20   S    
C22   H10   S    
O19   V4    S    
C27   H12   S    
O3    C4    A    
C24   H8    S    
C38   H18   S    
C25   C26   A    
O12   C49   A    
C37   C42   A    
O6    V2    S    
O9    V2    S    
C8    C9    A    
C47   H21   S    
C43   C48   A    
O2    V1    S    
C46   Cl2   S    
C29   C30   A    
C11   H4    S    
C47   C48   A    
C30   C33   A    
C35   C40   A    
C31   C32   A    
C21   C22   A    
C2    C48   S    
C9    Cl3   S    
C29   H13   S    
C28   C50   S    
O5    V1    S    
O8    C3    A    
O17   V4    S    
O12   V3    S    
C1    C41   S    
C13   H5    S    
C27   C32   A    
C16   C23   A    
C5    C10   A    
C41   C42   A    
O16   V4    S    
O7    V2    S    
O4    V1    S    
O3    V1    S    
C42   H17   S    
C17   C18   A    
O17   V3    S    
C7    C51   S    
O11   C50   A    
O15   C51   A    
O18   C51   A    
C5    C6    A    
C4    C10   S    
O19   C52   A    
C40   C41   A    
C36   C37   A    
C12   C13   A    
C8    H3    S    
V1    O10   S    
C25   C52   S    
C34   H15   S    
C7    C8    A    
