data_mof_unit_5032.cif
_audit_creation_date              2012-12-10T16:51:18-0500
_audit_creation_method            fapswitch 2.2
_symmetry_space_group_name_H-M    P1
_symmetry_Int_Tables_number       1
_space_group_crystal_system       triclinic
_cell_length_a                    27.724081
_cell_length_b                    8.747965
_cell_length_c                    7.409429
_cell_angle_alpha                 102.997015
_cell_angle_beta                  94.065767
_cell_angle_gamma                 93.161168
_cell_volume                      1741.88258759

loop_
_atom_site_label
_atom_site_type_symbol
_atom_type_description
_atom_site_fract_x
_atom_site_fract_y
_atom_site_fract_z
_atom_type_partial_charge
C1    C     C_R   0.493196 0.200051 0.455504 0.864508
C2    C     C_R   0.497118 0.799188 0.547796 0.829989
C3    C     C_R   0.101978 0.564671 0.418880 -0.052942
C4    C     C_R   0.897742 0.544449 0.402917 -0.054481
C5    C     C_R   0.125220 0.431442 0.333895 -0.123692
C6    C     C_R   0.873792 0.683481 0.452752 -0.116153
C7    C     C_R   0.097487 0.298758 0.229186 -0.193902
C8    C     C_R   0.900585 0.828947 0.491554 -0.201748
C9    C     C_R   0.130130 0.699860 0.519979 -0.005234
C10   C     C_R   0.870634 0.398096 0.361408 -0.010587
C11   C     C_R   0.354263 0.521844 0.506345 -0.191293
C12   C     C_R   0.646373 0.507699 0.488994 -0.230870
C13   C     C_R   0.972070 0.411248 0.333117 0.081644
C14   C     C_R   0.027610 0.699901 0.481721 0.087647
C15   C     C_R   0.976249 0.698493 0.458072 -0.070477
C16   C     C_R   0.022800 0.420159 0.317095 -0.072970
C17   C     C_R   0.948828 0.551560 0.397040 -0.002558
C18   C     C_R   0.050633 0.561862 0.404937 0.001519
C19   C     C_R   0.944031 0.266099 0.296652 -0.062074
C20   C     C_R   0.056775 0.831884 0.587213 -0.102783
C21   C     C_R   0.894293 0.259803 0.310712 -0.162102
C22   C     C_R   0.107060 0.832010 0.604931 -0.168183
C23   C     C_R   0.407150 0.501326 0.502782 0.815685
C24   C     C_R   0.592863 0.502454 0.497719 0.850681
C25   C     C_R   0.047119 0.292969 0.218370 0.592210
C26   C     C_R   0.950917 0.837391 0.493816 0.578269
C27   C     C_2   0.478989 0.033922 0.437382 -0.075460
C28   C     C_2   0.489606 0.965557 0.581703 -0.062396
C29   C     C_R   0.175950 0.434686 0.354353 0.587658
C30   C     C_R   0.823317 0.673649 0.461193 0.577158
C31   C     C_R   0.180855 0.697676 0.537927 0.563833
C32   C     C_R   0.820462 0.393309 0.376966 0.563075
C33   C     C_R   0.283103 0.612136 0.358323 -0.187064
C34   C     C_R   0.713933 0.453260 0.296392 -0.186626
C35   C     C_R   0.332601 0.593997 0.370802 0.523458
C36   C     C_R   0.664503 0.444685 0.316096 0.551454
C37   C     C_R   0.324265 0.472617 0.635266 0.056292
C38   C     C_R   0.679756 0.578515 0.645640 0.035967
C39   C     C_R   0.274559 0.496959 0.621937 -0.117618
C40   C     C_R   0.729757 0.582628 0.621004 -0.086800
C41   C     C_R   0.254020 0.562204 0.482104 0.233807
C42   C     C_R   0.746685 0.522301 0.447811 0.205817
Cu1   Cu    Cu3+1 0.505380 0.517380 0.684380 0.950387
Cu2   Cu    Cu3+1 0.494620 0.482620 0.315620 0.986722
H1    H     H_    0.459000 0.390851 0.950700 0.224990
H2    H     H_    0.540085 0.614714 0.050114 0.231932
H3    H     H_    0.251016 0.460598 0.717644 0.157447
H4    H     H_    0.756563 0.632768 0.735001 0.169220
H5    H     H_    0.114690 0.198164 0.154263 0.209375
H6    H     H_    0.882690 0.937759 0.521530 0.211860
H7    H     H_    0.726924 0.405656 0.162165 0.180064
H8    H     H_    0.267108 0.663221 0.249995 0.171781
H9    H     H_    0.874513 0.145486 0.282986 0.193681
H10   H     H_    0.127773 0.935779 0.688056 0.195822
H11   H     H_    0.960009 0.154678 0.267026 0.246857
H12   H     H_    0.041596 0.933850 0.666826 0.236386
N1    N     N_R   0.202491 0.565780 0.456875 -0.451014
N2    N     N_R   0.797842 0.529936 0.426837 -0.450726
N3    N     N_2   0.486510 0.456430 0.038510 -0.208449
N4    N     N_2   0.513490 0.543570 0.961490 -0.208112
O1    O     O_R   0.503500 0.286120 0.619780 -0.591966
O2    O     O_R   0.496500 0.713880 0.380220 -0.605577
O3    O     O_R   0.494410 0.256780 0.308360 -0.580167
O4    O     O_R   0.505590 0.743220 0.691640 -0.595603
O5    O     O_R   0.434810 0.514700 0.655690 -0.606233
O6    O     O_R   0.565190 0.485300 0.344310 -0.519154
O7    O     O_R   0.425720 0.485350 0.344280 -0.537876
O8    O     O_R   0.574280 0.514650 0.655720 -0.595433
O9    O     O_2   0.198657 0.307470 0.273829 -0.528754
O10   O     O_2   0.799870 0.806596 0.503710 -0.522607
O11   O     O_2   0.794604 0.253147 0.345299 -0.518202
O12   O     O_2   0.208302 0.825441 0.636375 -0.531039
C43   C     C_3   0.341625 0.390930 0.785423 -0.383991
C44   C     C_3   0.319075 0.222113 0.749378 -0.787240
H13   H     H_    0.279085 0.219626 0.752517 0.277421
H14   H     H_    0.327948 0.153713 0.612123 0.254193
H15   H     H_    0.333580 0.164930 0.859209 0.249493
H16   H     H_    0.381088 0.386465 0.800244 0.216920
H17   H     H_    0.331355 0.457705 0.921545 0.258326
C45   C     C_3   0.661996 0.650422 0.834720 -0.353438
C46   C     C_3   0.700537 0.738414 0.986278 -0.776164
H18   H     H_    0.727039 0.657002 0.022140 0.244235
H19   H     H_    0.719534 0.836554 0.940730 0.273569
H20   H     H_    0.682777 0.788813 0.113924 0.254655
H21   H     H_    0.634972 0.735959 0.815648 0.213148
H22   H     H_    0.644117 0.555169 0.888861 0.262254
F1    F     F_    0.634469 0.372533 0.164434 -0.661617
F2    F     F_    0.359290 0.647996 0.248519 -0.694056
F3    F     F_    0.023095 0.166926 0.098830 -0.671754
F4    F     F_    0.973605 0.982710 0.517803 -0.686385
C47   C     C_3   0.445373 0.952036 0.266701 -0.376978
C48   C     C_3   0.397110 0.028615 0.263306 -0.783421
H23   H     H_    0.377799 0.015020 0.385560 0.258824
H24   H     H_    0.402383 0.155506 0.265085 0.234950
H25   H     H_    0.373993 0.969591 0.135324 0.267852
H26   H     H_    0.463455 0.955960 0.139816 0.209163
H27   H     H_    0.434992 0.827626 0.261343 0.292992
C49   C     C_3   0.486094 0.048971 0.786097 -0.332093
C50   C     C_3   0.433568 0.082912 0.816226 -0.856436
H28   H     H_    0.420322 0.157300 0.723195 0.254892
H29   H     H_    0.410287 0.971078 0.785586 0.261384
H30   H     H_    0.430546 0.144416 0.962288 0.249268
H31   H     H_    0.497207 0.976472 0.883760 0.208220
H32   H     H_    0.511661 0.153309 0.838797 0.243547

loop_
_geom_bond_atom_site_label_1
_geom_bond_atom_site_label_2
_ccdc_geom_bond_type
C38   C40   A    
C8    C26   A    
C43   C44   S    
C14   C18   A    
Cu2   O6    S    
C34   C42   A    
C32   N2    A    
C20   H12   S    
C42   N2    S    
C46   H18   S    
C39   C41   A    
C33   H8    S    
C34   H7    S    
C44   H14   S    
C19   C21   A    
C9    C22   A    
Cu2   N3    S    
C19   H11   S    
C49   H31   S    
C3    C18   A    
C40   H4    S    
C23   O7    A    
C11   C37   A    
C45   H22   S    
C30   O10   S    
C47   H26   S    
Cu1   O8    S    
C44   H15   S    
C43   H16   S    
C27   C47   S    
C12   C36   A    
C29   O9    S    
C24   O6    A    
C40   C42   A    
N3    N4    D    
Cu2   O3    S    
C1    O3    A    
C46   H19   S    
C2    O4    A    
Cu1   O4    S    
C32   O11   S    
C5    C29   A    
C10   C21   A    
C44   H13   S    
C13   C19   A    
C14   C20   A    
C7    H5    S    
C22   H10   S    
C47   C48   S    
C5    C7    A    
C9    C31   A    
C15   C26   A    
C6    C8    A    
Cu2   O2    S    
C6    C30   A    
C48   H25   S    
Cu1   Cu2   S    
C45   H21   S    
C3    C9    A    
C35   F2    S    
C50   H28   S    
Cu1   O5    S    
C48   H24   S    
C43   H17   S    
C47   H27   S    
Cu1   N4    S    
C4    C17   A    
C4    C6    A    
C31   O12   S    
C50   H29   S    
C20   C22   A    
C4    C10   A    
C8    H6    S    
C46   H20   S    
Cu1   O1    S    
C39   H3    S    
C28   C49   S    
C16   C25   A    
C15   C17   A    
C37   C43   S    
H1    N3    S    
H2    N4    S    
C29   N1    A    
C45   C46   S    
C3    C5    A    
C1    O1    A    
C26   F4    S    
C12   C24   S    
C25   F3    S    
C7    C25   A    
C13   C17   A    
C33   C41   A    
C23   O5    A    
C11   C35   A    
C41   N1    S    
C37   C39   A    
C21   H9    S    
C31   N1    A    
C38   C45   S    
C49   H32   S    
C30   N2    A    
C11   C23   S    
C48   H23   S    
C33   C35   A    
C34   C36   A    
C12   C38   A    
C24   O8    A    
C10   C32   A    
C36   F1    S    
C50   H30   S    
C16   C18   A    
C49   C50   S    
C13   C16   A    
C27   C28   D    
C1    C27   S    
C14   C15   A    
Cu2   O7    S    
C2    C28   S    
C2    O2    A    
