data_mof_unit_24047.cif
_audit_creation_date              2012-12-10T17:25:36-0500
_audit_creation_method            fapswitch 2.2
_symmetry_space_group_name_H-M    P1
_symmetry_Int_Tables_number       1
_space_group_crystal_system       triclinic
_cell_length_a                    10.1742
_cell_length_b                    10.413909
_cell_length_c                    23.511325
_cell_angle_alpha                 89.963372
_cell_angle_beta                  81.3604
_cell_angle_gamma                 93.598361
_cell_volume                      2457.84957146

loop_
_atom_site_label
_atom_site_type_symbol
_atom_type_description
_atom_site_fract_x
_atom_site_fract_y
_atom_site_fract_z
_atom_type_partial_charge
C1    C     C_R   0.553823 0.735030 0.498822 0.934627
C2    C     C_R   0.575875 0.403412 0.293668 -0.064935
C3    C     C_R   0.615585 0.546712 0.754293 -0.118508
C4    C     C_R   0.582159 0.406173 0.234339 -0.125591
C5    C     C_R   0.505956 0.495186 0.791686 0.200668
C6    C     C_R   0.499535 0.481516 0.208151 0.205125
C7    C     C_2   0.578925 0.871986 0.508247 -0.085709
C8    C     C_2   0.422688 0.127833 0.518976 -0.093446
C9    C     C_2   0.501617 0.929373 0.551543 0.176499
C10   C     C_2   0.500462 0.069059 0.551872 0.119333
C11   C     C_2   0.924117 0.493620 0.510173 -0.095426
C12   C     C_R   0.446534 0.265056 0.506664 0.919015
C13   C     C_2   0.072407 0.480961 0.499119 -0.129370
C14   C     C_R   0.500393 0.500413 0.610625 0.907226
C15   C     C_R   0.498931 0.498051 0.389451 0.946157
C16   C     C_R   0.487826 0.367942 0.119221 0.578851
C17   C     C_R   0.528776 0.606394 0.879877 0.582165
C18   C     C_R   0.548685 0.593519 0.116888 0.539294
C19   C     C_R   0.510910 0.376391 0.879332 0.545497
C20   C     C_R   0.548572 0.598416 0.057687 -0.015516
C21   C     C_R   0.510458 0.371580 0.938616 -0.016467
C22   C     C_R   0.525120 0.483499 0.028355 -0.053311
C23   C     C_R   0.389956 0.447038 0.770822 -0.052859
C24   C     C_R   0.525567 0.487357 0.968508 -0.054094
C25   C     C_R   0.500260 0.365103 0.058852 -0.016333
C26   C     C_R   0.539864 0.606851 0.938749 -0.016024
C27   C     C_R   0.569363 0.715932 0.027737 -0.201450
C28   C     C_R   0.494021 0.253733 0.968365 -0.201343
C29   C     C_R   0.562843 0.721750 0.968938 0.117330
C30   C     C_R   0.486812 0.249305 0.028112 0.116039
C31   C     C_2   0.118944 0.664166 0.554030 1.030911
C32   C     C_2   0.893143 0.385143 0.425117 1.055453
C33   C     C_2   0.271972 0.398435 0.812265 0.989268
C34   C     C_R   0.408659 0.558930 0.241353 -0.052689
C35   C     C_2   0.313624 0.629782 0.212660 0.994561
C36   C     C_2   0.271087 0.385964 0.687895 1.021687
C37   C     C_2   0.326324 0.659698 0.335888 1.011827
C38   C     C_2   0.725461 0.631851 0.660887 0.920860
C39   C     C_2   0.648406 0.302506 0.318418 0.995859
C40   C     C_R   0.388913 0.445204 0.710825 -0.147353
C41   C     C_R   0.411125 0.568354 0.301111 -0.148877
C42   C     C_R   0.500843 0.500445 0.673040 -0.205905
C43   C     C_R   0.495622 0.490347 0.327330 -0.198801
C44   C     C_R   0.612742 0.555954 0.695632 -0.061250
H1    H     H_    0.587281 0.804857 0.050081 0.191238
H2    H     H_    0.507460 0.902868 0.960254 0.182954
H3    H     H_    0.380209 0.080291 0.047170 0.204991
H4    H     H_    0.547279 0.071313 0.039980 0.175436
H5    H     H_    0.150635 0.425771 0.886811 0.353727
H6    H     H_    0.185976 0.625448 0.154681 0.358243
H7    H     H_    0.199793 0.252570 0.636255 0.349762
H8    H     H_    0.317642 0.811005 0.389595 0.353767
H9    H     H_    0.919259 0.693244 0.652299 0.363544
H10   H     H_    0.808813 0.195616 0.309367 0.356219
H11   H     H_    0.536912 0.209798 0.608902 0.212851
H12   H     H_    0.483575 0.164102 0.945580 0.192574
H13   H     H_    0.670842 0.178722 0.558829 0.230023
H14   H     H_    0.357679 0.917595 0.622440 0.225179
H15   H     H_    0.473679 0.809797 0.620513 0.212393
H16   H     H_    0.232310 0.092707 0.505595 0.211644
H17   H     H_    0.348091 0.067782 0.447944 0.212734
H18   H     H_    0.769279 0.906782 0.470058 0.233047
H19   H     H_    0.653440 0.933565 0.427715 0.216870
H20   H     H_    0.701985 0.585250 0.772108 0.196838
H21   H     H_    0.648427 0.345176 0.207795 0.194178
H22   H     H_    0.111669 0.405166 0.471281 0.187587
H23   H     H_    0.881978 0.544242 0.548160 0.199576
H24   H     H_    0.016044 0.824445 0.558402 0.343802
H25   H     H_    0.974895 0.227918 0.388637 0.346315
H26   H     H_    0.673651 0.887145 0.946591 0.196125
N1    N     N_R   0.511927 0.481000 0.146650 -0.347176
N2    N     N_3   0.677350 0.945677 0.469180 -0.423639
N3    N     N_R   0.514714 0.492428 0.851823 -0.347483
N4    N     N_2   0.842710 0.448880 0.476480 -0.171978
N5    N     N_2   0.157290 0.551120 0.523520 -0.162845
N6    N     N_3   0.580935 0.844790 0.940487 -0.359065
N7    N     N_3   0.468366 0.126491 0.056759 -0.357843
N8    N     N_3   0.587839 0.137720 0.585775 -0.424705
N9    N     N_3   0.414229 0.855623 0.595203 -0.373966
N10   N     N_3   0.324468 0.054504 0.492475 -0.435259
O1    O     O_R   0.431060 0.692470 0.504730 -0.586167
O2    O     O_2   0.530183 0.718181 0.850675 -0.497643
O3    O     O_2   0.583482 0.700648 0.144857 -0.529861
O4    O     O_2   0.506170 0.266191 0.849270 -0.527707
O5    O     O_2   0.169060 0.693583 0.596612 -0.595375
O6    O     O_R   0.032004 0.745836 0.533506 -0.817053
O7    O     O_2   0.889184 0.435543 0.378532 -0.565397
O8    O     O_R   0.942945 0.263582 0.428057 -0.836195
O9    O     O_2   0.212586 0.296024 0.803932 -0.569607
O10   O     O_R   0.230627 0.469168 0.861544 -0.789725
O11   O     O_2   0.296363 0.742818 0.223634 -0.557914
O12   O     O_R   0.568940 0.307530 0.495270 -0.608350
O13   O     O_R   0.246210 0.567234 0.171895 -0.785599
O14   O     O_2   0.161190 0.427109 0.702403 -0.559750
O15   O     O_R   0.286598 0.283845 0.649407 -0.821386
O16   O     O_2   0.205313 0.649701 0.337814 -0.571965
O17   O     O_R   0.385426 0.755955 0.366922 -0.789015
O18   O     O_2   0.706503 0.700018 0.620918 -0.646278
O19   O     O_R   0.852767 0.631400 0.676448 -0.766045
O20   O     O_2   0.599277 0.246434 0.363030 -0.637083
O21   O     O_R   0.770212 0.266759 0.288882 -0.755498
O22   O     O_R   0.651120 0.659650 0.489640 -0.583007
O23   O     O_R   0.348880 0.340350 0.510360 -0.617473
O24   O     O_R   0.389950 0.516450 0.591390 -0.576695
O25   O     O_R   0.610050 0.483550 0.408610 -0.574761
O26   O     O_R   0.610020 0.483630 0.576300 -0.626321
O27   O     O_R   0.389980 0.516370 0.423700 -0.619617
O28   O     O_2   0.449776 0.259844 0.150614 -0.495678
Zn1   Zn    Zn3+2 0.353060 0.521920 0.510080 1.024417
Zn2   Zn    Zn3+2 0.646940 0.478080 0.489920 1.032098

loop_
_geom_bond_atom_site_label_1
_geom_bond_atom_site_label_2
_ccdc_geom_bond_type
O25   Zn2   S    
C31   O5    D    
C27   C29   A    
H24   O6    S    
H10   O21   S    
H5    O10   S    
C38   O18   D    
H2    N6    S    
C10   N8    S    
C29   N6    S    
C3    H20   S    
H9    O19   S    
C34   C41   A    
C37   C41   S    
C17   C26   A    
C19   C21   A    
C24   C26   A    
C34   C35   S    
C32   N4    S    
O24   Zn1   S    
H17   N10   S    
C1    O1    A    
C23   C40   A    
C32   O8    S    
H8    O17   S    
C25   C30   A    
C17   O2    S    
C9    N9    S    
C15   O27   A    
C4    H21   S    
C30   N7    S    
C31   N5    S    
C2    C39   S    
C13   N5    D    
C23   C33   S    
C22   C25   A    
C9    C10   S    
C14   C42   S    
C27   H1    S    
C40   C42   A    
C31   O6    S    
C17   N3    A    
C41   C43   A    
C16   N1    A    
C42   C44   A    
C37   O17   S    
C11   H23   S    
C39   O21   S    
C13   H22   S    
C35   O13   S    
C28   H12   S    
C6    N1    S    
C3    C44   A    
N5    Zn1   S    
C19   N3    A    
C12   O23   A    
C4    C6    A    
H15   N9    S    
C7    N2    S    
H11   N8    S    
C32   O7    D    
C6    C34   A    
C37   O16   D    
H4    N7    S    
C2    C4    A    
C38   C44   S    
C18   N1    A    
C33   O9    D    
C14   O24   A    
C5    C23   A    
C36   C40   S    
C2    C43   A    
C8    C12   S    
C18   O3    S    
H18   N2    S    
H25   O8    S    
H14   N9    S    
C21   C28   A    
O1    Zn1   S    
H26   N6    S    
C22   C24   A    
O22   Zn2   S    
H3    N7    S    
C19   O4    S    
O26   Zn2   S    
C16   C25   A    
C7    C9    D    
H16   N10   S    
C1    C7    S    
H13   N8    S    
C12   O12   A    
C20   C22   A    
C38   O19   S    
C3    C5    A    
C11   N4    D    
N4    Zn2   S    
H6    O13   S    
C20   C27   A    
O23   Zn1   S    
C15   O25   A    
C28   C30   A    
C15   C43   S    
C33   O10   S    
C11   C13   S    
C36   O15   S    
O12   Zn2   S    
C39   O20   D    
O27   Zn1   S    
C18   C20   A    
C5    N3    S    
C16   O28   S    
C36   O14   D    
C14   O26   A    
H19   N2    S    
C26   C29   A    
C8    C10   D    
C21   C24   A    
C8    N10   S    
C1    O22   A    
H7    O15   S    
C35   O11   D    
