data_mof_unit_31872.cif
_audit_creation_date              2012-12-10T16:38:13-0500
_audit_creation_method            fapswitch 2.2
_symmetry_space_group_name_H-M    P1
_symmetry_Int_Tables_number       1
_space_group_crystal_system       triclinic
_cell_length_a                    28.074918
_cell_length_b                    18.366503
_cell_length_c                    16.956217
_cell_angle_alpha                 90.030141
_cell_angle_beta                  61.164265
_cell_angle_gamma                 89.316975
_cell_volume                      7658.41741091

loop_
_atom_site_label
_atom_site_type_symbol
_atom_type_description
_atom_site_fract_x
_atom_site_fract_y
_atom_site_fract_z
_atom_type_partial_charge
C1    C     C_R   0.700644 0.265445 0.677292 0.902023
C2    C     C_R   0.096931 0.506424 0.509025 0.042610
C3    C     C_R   0.192010 0.210686 0.906810 0.065739
C4    C     C_R   0.611096 0.314232 0.054142 0.019077
C5    C     C_R   0.390550 0.686769 0.944982 0.002813
C6    C     C_R   0.391326 0.299105 0.951943 0.008024
C7    C     C_R   0.647968 0.621180 0.023887 0.004944
C8    C     C_R   0.113261 0.818339 0.053552 0.008515
C9    C     C_R   0.889156 0.185508 0.945965 0.007731
C10   C     C_R   0.898017 0.797759 0.947924 0.012061
C11   C     C_R   0.108562 0.200858 0.048298 0.007795
C12   C     C_R   0.643291 0.306140 0.096080 -0.235378
C13   C     C_R   0.407750 0.004268 0.474824 0.039098
C14   C     C_R   0.358475 0.695556 0.902988 -0.249613
C15   C     C_R   0.363467 0.277516 0.906225 -0.242768
C16   C     C_R   0.666477 0.657514 0.075785 -0.268140
C17   C     C_R   0.146105 0.812128 0.094551 -0.249456
C18   C     C_R   0.856986 0.193430 0.903941 -0.249140
C19   C     C_R   0.871550 0.778281 0.899285 -0.243010
C20   C     C_R   0.136426 0.222400 0.094027 -0.242163
C21   C     C_R   0.748728 0.197158 0.789317 -0.147442
C22   C     C_R   0.255180 0.808841 0.208051 -0.148818
C23   C     C_R   0.224933 0.280896 0.234919 -0.180491
C24   C     C_R   0.592404 0.995820 0.524697 0.039857
C25   C     C_R   0.781918 0.731149 0.755919 -0.175695
C26   C     C_R   0.249679 0.698928 0.789473 -0.151586
C27   C     C_R   0.751668 0.303269 0.210376 -0.148931
C28   C     C_R   0.729888 0.767026 0.226532 -0.177031
C29   C     C_R   0.274920 0.219301 0.765318 -0.182222
C30   C     C_R   0.781002 0.187329 0.830398 -0.202651
C31   C     C_R   0.222954 0.819378 0.166771 -0.198110
C32   C     C_R   0.195957 0.264864 0.190057 -0.207180
C33   C     C_R   0.810751 0.749796 0.800490 -0.220258
C34   C     C_R   0.282201 0.689707 0.830229 -0.206589
C35   C     C_R   0.071932 0.392094 0.589185 -0.042991
C36   C     C_R   0.719367 0.312966 0.169308 -0.204010
C37   C     C_R   0.704531 0.743515 0.178463 -0.219351
C38   C     C_R   0.303901 0.235270 0.810186 -0.208868
C39   C     C_R   0.070796 0.104272 0.937415 0.909479
C40   C     C_R   0.930295 0.895151 0.061889 0.913118
C41   C     C_R   0.928972 0.104203 0.062549 0.916854
C42   C     C_R   0.071441 0.896224 0.937210 0.915004
C43   C     C_R   0.577967 0.594439 0.931299 0.919131
C44   C     C_R   0.429152 0.395784 0.062641 0.912581
C45   C     C_R   0.429320 0.604506 0.062276 0.924261
C46   C     C_R   0.931991 0.624689 0.398350 -0.034579
C47   C     C_R   0.571056 0.395792 0.937472 0.904017
C48   C     C_R   0.574510 0.115242 0.437417 -0.006595
C49   C     C_R   0.425683 0.884869 0.562025 -0.007099
C50   C     C_R   0.479173 0.123670 0.418818 -0.007840
C51   C     C_R   0.520932 0.876466 0.580794 -0.007281
C52   C     C_R   0.071639 0.627710 0.432983 -0.005663
C53   C     C_R   0.928386 0.390767 0.560919 -0.006951
C54   C     C_R   0.976051 0.629905 0.416848 -0.007327
C55   C     C_R   0.024783 0.388760 0.577627 -0.004244
C56   C     C_R   0.562094 0.179557 0.404676 -0.052752
C57   C     C_R   0.878894 0.396196 0.557812 -0.029490
C58   C     C_R   0.438086 0.820542 0.594715 -0.052354
C59   C     C_R   0.514319 0.184477 0.397000 -0.059384
C60   C     C_R   0.485801 0.815644 0.602553 -0.058521
C61   C     C_R   0.056268 0.691718 0.403988 -0.050530
C62   C     C_R   0.942107 0.328742 0.595984 -0.052421
C63   C     C_R   0.008158 0.693425 0.397624 -0.061021
C64   C     C_R   0.990200 0.327221 0.603178 -0.059745
C65   C     C_R   0.489461 0.062164 0.459858 0.012019
C66   C     C_R   0.510681 0.937970 0.539697 0.012310
C67   C     C_R   0.536275 0.058791 0.470860 0.008709
C68   C     C_R   0.122936 0.620097 0.427870 -0.021496
C69   C     C_R   0.463891 0.941337 0.528650 0.008683
C70   C     C_R   0.988024 0.569599 0.457295 0.011570
C71   C     C_R   0.012914 0.448113 0.535796 0.012155
C72   C     C_R   0.035258 0.569110 0.466714 0.007443
C73   C     C_R   0.965482 0.448590 0.526375 0.009236
C74   C     C_R   0.953929 0.508407 0.485247 -0.017247
C75   C     C_R   0.048088 0.507970 0.504477 -0.017878
C76   C     C_R   0.453663 0.002891 0.488119 -0.017795
C77   C     C_R   0.546492 0.997232 0.511409 -0.017690
C78   C     C_R   0.873348 0.446558 0.499849 -0.014363
C79   C     C_R   0.566326 0.877876 0.597132 -0.039139
C80   C     C_R   0.132391 0.565346 0.476485 0.001931
C81   C     C_R   0.111776 0.445578 0.543569 -0.013314
C82   C     C_R   0.895514 0.566420 0.433204 0.000707
C83   C     C_R   0.372072 0.945225 0.502186 -0.017516
C84   C     C_R   0.628117 0.054828 0.497294 -0.016918
C85   C     C_R   0.604303 0.934811 0.562494 0.003857
C86   C     C_R   0.395793 0.065285 0.437137 0.002822
C87   C     C_R   0.833804 0.440509 0.469541 -0.161466
C88   C     C_R   0.179614 0.564176 0.486049 -0.172690
C89   C     C_R   0.167377 0.440083 0.525825 -0.154293
C90   C     C_R   0.433742 0.122263 0.402551 -0.039730
C91   C     C_R   0.845623 0.565948 0.431437 -0.173758
C92   C     C_R   0.333427 0.940246 0.470369 -0.159612
C93   C     C_R   0.666686 0.059782 0.529283 -0.158917
C94   C     C_R   0.654006 0.934329 0.566301 -0.175256
C95   C     C_R   0.346054 0.065736 0.433424 -0.173500
C96   C     C_R   0.823432 0.500203 0.428678 -0.101073
C97   C     C_R   0.202140 0.499078 0.488518 -0.107876
C98   C     C_R   0.323974 0.000237 0.429110 -0.103620
C99   C     C_R   0.676085 0.999804 0.570625 -0.103204
C100  C     C_1   0.006519 0.258688 0.626475 0.178264
C101  C     C_R   0.376308 0.893796 0.559998 -0.023889
C102  C     C_1   0.989794 0.762857 0.380101 0.177278
C103  C     C_1   0.910431 0.262761 0.614569 0.183869
C104  C     C_1   0.087233 0.758113 0.388434 0.179296
C105  C     C_1   0.500418 0.745186 0.624250 0.170818
C106  C     C_1   0.499663 0.254949 0.375390 0.171046
C107  C     C_1   0.405290 0.756028 0.609978 0.184685
C108  C     C_1   0.594980 0.244036 0.389039 0.184286
C109  C     C_1   0.790944 0.496020 0.383163 0.255035
C110  C     C_1   0.261449 0.493699 0.440763 0.248083
C111  C     C_1   0.292198 0.996497 0.382325 0.252423
C112  C     C_R   0.299767 0.735354 0.322551 0.872860
C113  C     C_R   0.623896 0.106305 0.439467 -0.024888
C114  C     C_1   0.707766 0.003537 0.617578 0.252269
C115  C     C_1   0.074375 0.351890 0.660851 0.209679
C116  C     C_1   0.929624 0.669334 0.329588 0.206535
C117  C     C_1   0.829720 0.371886 0.634907 0.207135
C118  C     C_1   0.169630 0.645939 0.348034 0.184538
C119  C     C_1   0.568843 0.830900 0.663875 0.208484
C120  C     C_1   0.431198 0.169250 0.335847 0.209860
C121  C     C_1   0.326634 0.872775 0.638401 0.204835
C122  C     C_1   0.673586 0.127789 0.361329 0.205411
C123  C     C_1   0.552908 0.316134 0.112122 0.198772
C124  C     C_R   0.717234 0.258827 0.957891 0.023848
C125  C     C_1   0.448721 0.683721 0.886926 0.198979
C126  C     C_1   0.450065 0.298296 0.901236 0.172861
C127  C     C_1   0.638697 0.544713 0.044796 0.223667
C128  C     C_1   0.055160 0.818576 0.112667 0.195570
C129  C     C_1   0.947439 0.185368 0.888369 0.196071
C130  C     C_1   0.956735 0.796798 0.899521 0.172139
C131  C     C_1   0.049827 0.201587 0.099051 0.173603
C132  C     C_R   0.285528 0.745851 0.040249 0.025231
C133  C     C_R   0.278806 0.269961 0.046513 0.019170
C134  C     C_R   0.734447 0.714967 0.941631 0.022710
C135  C     C_R   0.219210 0.762747 0.956818 0.025150
C136  C     C_R   0.783086 0.241264 0.041947 0.025216
C137  C     C_R   0.787658 0.761030 0.038084 0.020538
C138  C     C_R   0.221059 0.230122 0.953723 0.018906
C139  C     C_R   0.768042 0.222068 0.912253 0.056709
C140  C     C_R   0.294054 0.277282 0.326705 0.888355
C141  C     C_R   0.235252 0.783821 0.085459 0.057152
C142  C     C_R   0.221982 0.256309 0.095509 0.064037
C143  C     C_R   0.787378 0.743869 0.894516 0.066066
C144  C     C_R   0.269745 0.725402 0.911383 0.057389
C145  C     C_R   0.732300 0.278046 0.087547 0.055616
C146  C     C_R   0.733610 0.736344 0.084373 0.064519
C147  C     C_R   0.277884 0.243763 0.904734 0.064192
C148  C     C_R   0.802229 0.216454 0.952646 0.028182
C149  C     C_R   0.200728 0.788884 0.045527 0.027654
C150  C     C_R   0.193016 0.235893 0.048881 0.027221
C151  C     C_R   0.706865 0.722359 0.672509 0.908050
C152  C     C_R   0.815680 0.762191 0.942704 0.026472
C153  C     C_R   0.304103 0.719985 0.951476 0.028089
C154  C     C_R   0.698076 0.283452 0.047240 0.026536
C155  C     C_R   0.709811 0.705833 0.035496 0.029036
C156  C     C_R   0.306859 0.264129 0.951362 0.027260
C157  C     C_R   0.634797 0.308026 0.959040 0.013533
C158  C     C_R   0.366992 0.694122 0.039955 0.014497
C159  C     C_R   0.363088 0.310138 0.046159 0.021540
C160  C     C_R   0.659300 0.649472 0.938419 0.014141
C161  C     C_R   0.136266 0.810611 0.958620 0.012206
C162  C     C_R   0.200762 0.765656 0.677363 0.919556
C163  C     C_R   0.865390 0.191987 0.041003 0.012674
C164  C     C_R   0.868344 0.806381 0.042719 0.016385
C165  C     C_R   0.136779 0.189970 0.954054 0.021871
C166  C     C_R   0.610450 0.335352 0.907080 -0.129992
C167  C     C_R   0.390616 0.665749 0.092445 -0.143338
C168  C     C_R   0.387483 0.339380 0.096670 -0.144504
C169  C     C_R   0.628036 0.635626 0.892846 -0.128823
C170  C     C_R   0.111278 0.836488 0.906919 -0.130843
C171  C     C_R   0.889698 0.164741 0.092976 -0.134456
C172  C     C_R   0.890326 0.837285 0.095315 -0.140952
C173  C     C_R   0.799448 0.234748 0.322691 0.902172
C174  C     C_R   0.112364 0.160838 0.903519 -0.140385
C175  C     C_R   0.630553 0.314361 0.818459 -0.279220
C176  C     C_R   0.370436 0.686705 0.181231 -0.293921
C177  C     C_R   0.364894 0.324962 0.187112 -0.258438
C178  C     C_R   0.644183 0.663026 0.808554 -0.294266
C179  C     C_R   0.131154 0.815045 0.818537 -0.275328
C180  C     C_R   0.869652 0.185870 0.181549 -0.275562
C181  C     C_R   0.866581 0.823555 0.186311 -0.255982
C182  C     C_R   0.134870 0.175529 0.813146 -0.260677
C183  C     C_R   0.676821 0.271709 0.775718 -0.118915
C184  C     C_R   0.794926 0.775772 0.325720 0.897732
C185  C     C_R   0.324705 0.730532 0.223573 -0.106618
C186  C     C_R   0.313333 0.297156 0.233033 -0.125021
C187  C     C_R   0.693020 0.697557 0.762397 -0.115693
C188  C     C_R   0.177379 0.772490 0.775816 -0.121271
C189  C     C_R   0.823429 0.228637 0.224203 -0.118222
C190  C     C_R   0.815654 0.793347 0.230685 -0.127952
C191  C     C_R   0.186497 0.203169 0.767174 -0.129890
C192  C     C_R   0.703969 0.246454 0.824686 0.087558
C193  C     C_R   0.298961 0.758052 0.173389 0.088584
C194  C     C_R   0.281646 0.288643 0.188305 0.072999
C195  C     C_R   0.205856 0.222884 0.673397 0.908851
C196  C     C_R   0.727176 0.708235 0.803055 0.077477
C197  C     C_R   0.204926 0.748136 0.824636 0.090026
C198  C     C_R   0.796372 0.253927 0.175111 0.087382
C199  C     C_R   0.786156 0.780485 0.183030 0.074210
C200  C     C_R   0.218200 0.211581 0.811912 0.072926
C201  C     C_R   0.695069 0.127167 0.522999 0.900555
C202  C     C_R   0.304975 0.872841 0.476866 0.899270
C203  C     C_R   0.309919 0.130264 0.460154 0.899442
C204  C     C_R   0.690101 0.869769 0.539742 0.903290
C205  C     C_R   0.203005 0.629722 0.500021 0.920121
C206  C     C_R   0.908202 0.506729 0.471691 0.040927
C207  C     C_R   0.804970 0.372955 0.477187 0.898587
C208  C     C_R   0.809826 0.630486 0.459421 0.901498
C209  C     C_R   0.193110 0.372084 0.528763 0.892059
C210  C     C_R   0.685392 0.271249 0.913774 0.057860
C211  C     C_R   0.317214 0.732814 0.084508 0.063160
C212  C     C_R   0.307847 0.289464 0.093411 0.065061
C213  C     C_R   0.706256 0.692528 0.894876 0.058534
C214  C     C_R   0.186883 0.774027 0.913240 0.060998
C215  C     C_R   0.814892 0.228934 0.086111 0.061722
C216  C     C_R   0.814086 0.782577 0.087788 0.064658
H1    H     H_    0.623846 0.312898 0.168469 0.153828
H2    H     H_    0.388429 0.664141 0.220062 0.195348
H3    H     H_    0.386476 0.339588 0.223246 0.211989
H4    H     H_    0.618878 0.655352 0.777053 0.207696
H5    H     H_    0.112310 0.836035 0.780268 0.201559
H6    H     H_    0.888268 0.164374 0.219943 0.200814
H7    H     H_    0.886584 0.840826 0.224051 0.209860
H8    H     H_    0.113199 0.161149 0.777079 0.207866
H9    H     H_    0.759267 0.163456 0.731032 0.186942
H10   H     H_    0.244862 0.841607 0.267045 0.186838
H11   H     H_    0.201446 0.289917 0.306699 0.174445
H12   H     H_    0.377803 0.688019 0.830722 0.155125
H13   H     H_    0.805293 0.731924 0.683594 0.186690
H14   H     H_    0.259976 0.664779 0.731639 0.184442
H15   H     H_    0.741194 0.337003 0.268621 0.188364
H16   H     H_    0.703935 0.776333 0.297632 0.179849
H17   H     H_    0.298425 0.210310 0.693541 0.176096
H18   H     H_    0.815022 0.149688 0.798668 0.158528
H19   H     H_    0.189216 0.857463 0.198334 0.158586
H20   H     H_    0.152821 0.259630 0.232559 0.142997
H21   H     H_    0.851319 0.769630 0.759031 0.144886
H22   H     H_    0.316047 0.651788 0.798745 0.157195
H23   H     H_    0.387985 0.270338 0.834569 0.144590
H24   H     H_    0.685338 0.350609 0.200967 0.159633
H25   H     H_    0.661369 0.733087 0.215720 0.150673
H26   H     H_    0.347033 0.240532 0.767679 0.143089
H27   H     H_    0.654212 0.637414 0.142904 0.150915
H28   H     H_    0.127135 0.820030 0.166733 0.155699
H29   H     H_    0.876506 0.186736 0.831543 0.156550
H30   H     H_    0.896448 0.771947 0.827379 0.146002
H31   H     H_    0.111925 0.229440 0.165707 0.144705
H32   H     H_    0.611893 0.335808 0.780107 0.201338
N1    N     N_1   0.019433 0.203732 0.644341 -0.191251
N2    N     N_1   0.308473 0.489719 0.402478 -0.191330
N3    N     N_1   0.267030 0.993633 0.344839 -0.207829
N4    N     N_1   0.732859 0.006398 0.655192 -0.208186
N5    N     N_1   0.076375 0.320305 0.718278 -0.184849
N6    N     N_1   0.927507 0.704122 0.274464 -0.188309
N7    N     N_1   0.790490 0.354190 0.697927 -0.197122
N8    N     N_1   0.206845 0.664026 0.282302 -0.197515
N9    N     N_1   0.571249 0.794233 0.717348 -0.184294
N10   N     N_1   0.428796 0.205922 0.282376 -0.184313
N11   N     N_1   0.287024 0.857941 0.702467 -0.201877
N12   N     N_1   0.975256 0.818447 0.366733 -0.193813
N13   N     N_1   0.713182 0.143087 0.297472 -0.199771
N14   N     N_1   0.506339 0.317420 0.158749 -0.179673
N15   N     N_1   0.495271 0.681563 0.840197 -0.172009
N16   N     N_1   0.497049 0.296968 0.860208 -0.214188
N17   N     N_1   0.632271 0.483584 0.062550 -0.188430
N18   N     N_1   0.008679 0.818540 0.160123 -0.180684
N19   N     N_1   0.994063 0.185861 0.842172 -0.183634
N20   N     N_1   0.003732 0.795017 0.860092 -0.216035
N21   N     N_1   0.002846 0.202855 0.140126 -0.214762
N22   N     N_1   0.885520 0.210037 0.628714 -0.220869
N23   N     N_1   0.111695 0.811041 0.376428 -0.222694
N24   N     N_1   0.511839 0.688703 0.641006 -0.195975
N25   N     N_1   0.488208 0.311438 0.358707 -0.193021
N26   N     N_1   0.379523 0.704490 0.621309 -0.220636
N27   N     N_1   0.620835 0.295538 0.377355 -0.218495
N28   N     N_1   0.765214 0.492833 0.346672 -0.209055
O1    O     O_R   0.746490 0.236330 0.638080 -0.634884
O2    O     O_R   0.325830 0.813840 0.483730 -0.620832
O3    O     O_R   0.325830 0.186160 0.483730 -0.633477
O4    O     O_R   0.674170 0.813840 0.516270 -0.630296
O5    O     O_R   0.174170 0.686160 0.516270 -0.620474
O6    O     O_R   0.825830 0.313840 0.483730 -0.619552
O7    O     O_R   0.825830 0.686160 0.483730 -0.634540
O8    O     O_R   0.174170 0.313840 0.516270 -0.631149
O9    O     O_R   0.739960 0.127620 0.525000 -0.623694
O10   O     O_R   0.260040 0.872380 0.475000 -0.623579
O11   O     O_R   0.260040 0.127620 0.475000 -0.613506
O12   O     O_R   0.253510 0.763670 0.361920 -0.644086
O13   O     O_R   0.739960 0.872380 0.525000 -0.612416
O14   O     O_R   0.239960 0.627620 0.525000 -0.622819
O15   O     O_R   0.760040 0.372380 0.475000 -0.623062
O16   O     O_R   0.760040 0.627620 0.475000 -0.615582
O17   O     O_R   0.239960 0.372380 0.525000 -0.615812
O18   O     O_R   0.680700 0.294870 0.629350 -0.620883
O19   O     O_R   0.319300 0.705130 0.370650 -0.630489
O20   O     O_R   0.319300 0.294870 0.370650 -0.612578
O21   O     O_R   0.680700 0.705130 0.629350 -0.613071
O22   O     O_R   0.180700 0.794870 0.629350 -0.616775
O23   O     O_R   0.253510 0.236330 0.361920 -0.640515
O24   O     O_R   0.819300 0.205130 0.370650 -0.620773
O25   O     O_R   0.819300 0.794870 0.370650 -0.613838
O26   O     O_R   0.180700 0.205130 0.629350 -0.610308
O27   O     O_R   0.062020 0.072840 0.007170 -0.611225
O28   O     O_R   0.937980 0.927160 0.992830 -0.611113
O29   O     O_R   0.937980 0.072840 0.992830 -0.616180
O30   O     O_R   0.062020 0.927160 0.007170 -0.618205
O31   O     O_R   0.562020 0.572840 0.007170 -0.631447
O32   O     O_R   0.437980 0.427160 0.992830 -0.610784
O33   O     O_R   0.437980 0.572840 0.992830 -0.610717
O34   O     O_R   0.746490 0.763670 0.638080 -0.649908
O35   O     O_R   0.562020 0.427160 0.007170 -0.613471
O36   O     O_R   0.947860 0.073950 0.109290 -0.607997
O37   O     O_R   0.052140 0.926050 0.890710 -0.609143
O38   O     O_R   0.052140 0.073950 0.890710 -0.608301
O39   O     O_R   0.947860 0.926050 0.109290 -0.609076
O40   O     O_R   0.447860 0.573950 0.109290 -0.613090
O41   O     O_R   0.552140 0.426050 0.890710 -0.614260
O42   O     O_R   0.552140 0.573950 0.890710 -0.609508
O43   O     O_R   0.447860 0.426050 0.109290 -0.603793
O44   O     O_R   0.246490 0.736330 0.638080 -0.633448
O45   O     O_R   0.753510 0.263670 0.361920 -0.633935
O46   O     O_R   0.753510 0.736330 0.361920 -0.642323
O47   O     O_R   0.246490 0.263670 0.638080 -0.637001
O48   O     O_R   0.674170 0.186160 0.516270 -0.619916
Zn1   Zn    Zn3+2 0.792340 0.208750 0.507670 0.995062
Zn2   Zn    Zn3+2 0.494040 0.500000 0.919480 0.990523
Zn3   Zn    Zn3+2 0.005960 0.000000 0.080520 0.991644
Zn4   Zn    Zn3+2 0.994040 0.000000 0.919480 0.989264
Zn5   Zn    Zn3+2 0.207660 0.791250 0.492330 0.991636
Zn6   Zn    Zn3+2 0.207660 0.208750 0.492330 0.988617
Zn7   Zn    Zn3+2 0.792340 0.791250 0.507670 0.980907
Zn8   Zn    Zn3+2 0.292340 0.708750 0.507670 0.988652
Zn9   Zn    Zn3+2 0.707660 0.291250 0.492330 0.996471
Zn10  Zn    Zn3+2 0.707660 0.708750 0.492330 0.984826
Zn11  Zn    Zn3+2 0.292340 0.291250 0.507670 0.988149
Zn12  Zn    Zn3+2 0.505960 0.500000 0.080520 0.986754

loop_
_geom_bond_atom_site_label_1
_geom_bond_atom_site_label_2
_ccdc_geom_bond_type
O41   Zn2   S    
O26   Zn6   S    
O8    Zn6   S    
C91   C208  S    
C116  N6    T    
C26   H14   S    
O17   Zn11  S    
C209  O8    A    
C1    O18   A    
C179  H5    S    
C50   C59   A    
C52   C61   A    
C72   C75   A    
C193  C211  A    
C54   C63   A    
C58   C60   A    
C15   H23   S    
C44   C168  S    
C61   C63   A    
C26   C197  A    
C62   C64   A    
C42   C170  S    
C134  C143  A    
C50   C90   A    
C113  C122  S    
O29   Zn4   S    
C70   C74   A    
C35   C115  S    
C4    C12   A    
C93   C201  S    
C24   C85   A    
C32   C142  A    
C88   C97   A    
C162  O22   A    
C49   C69   A    
C43   O31   A    
C27   C198  A    
C39   C174  S    
C132  C211  A    
O33   Zn2   S    
C190  C199  A    
C11   C20   A    
C59   C106  S    
C103  N22   T    
C137  C146  A    
C61   C104  S    
O45   Zn9   S    
C86   C90   A    
C201  O48   A    
O12   Zn5   S    
C71   C73   A    
O10   Zn5   S    
C21   C192  A    
C179  C188  A    
O15   Zn9   S    
C110  N2    T    
C177  C186  A    
C43   O42   A    
C51   C66   A    
O30   Zn3   S    
C45   O40   A    
C1    O1    A    
C52   C72   A    
C181  C190  A    
C134  C155  A    
C54   C70   A    
C34   C144  A    
C16   C155  A    
O44   Zn8   S    
O24   Zn1   S    
C3    C138  A    
O19   Zn8   S    
C29   H17   S    
O4    Zn10  S    
C44   O43   A    
C201  O9    A    
C79   C85   A    
C175  C183  A    
C32   H20   S    
C203  O11   A    
C158  C211  A    
C66   C77   A    
C127  N17   T    
C112  O19   A    
C57   C78   A    
C12   C154  A    
C96   C109  S    
C8    C17   A    
C56   C59   A    
C104  N23   T    
C80   C88   A    
C44   O32   A    
C23   C194  A    
C102  N12   T    
C84   C93   A    
C48   C67   A    
C173  O45   A    
C34   H22   S    
C86   C95   A    
C194  C212  A    
C24   C77   A    
C5    C158  A    
C11   C165  A    
C2    C81   A    
C195  O26   A    
O3    Zn11  S    
C143  C152  A    
C197  C214  A    
C78   C87   A    
C181  H7    S    
C124  C139  A    
C151  O21   A    
C108  N27   T    
C174  C182  A    
C99   C114  S    
C1    C183  S    
C41   C171  S    
C133  C142  A    
C134  C213  A    
C184  O46   A    
C180  C189  A    
C95   C203  S    
O42   Zn2   S    
C69   C76   A    
C58   C107  S    
C85   C94   A    
C56   C108  S    
C68   C118  S    
C46   C82   A    
C172  C181  A    
C8    C128  S    
C29   C38   A    
C47   O41   A    
C28   H16   S    
O23   Zn6   S    
C91   C96   A    
C55   C64   A    
C106  N25   T    
C177  H3    S    
C63   C102  S    
C19   C152  A    
O9    Zn1   S    
C139  C148  A    
C28   C199  A    
C37   H25   S    
C191  C200  A    
C100  N1    T    
C112  C185  S    
C89   C209  S    
C165  C174  A    
C31   H19   S    
C90   C120  S    
C31   C141  A    
C14   H12   S    
C4    C157  A    
C3    C200  A    
C22   C193  A    
C180  H6    S    
O27   Zn3   S    
C136  C148  A    
C25   C196  A    
C145  C154  A    
C184  C190  S    
C164  C172  A    
C94   C204  S    
C82   C206  A    
C92   C202  S    
C3    C165  A    
C208  O7    A    
C132  C141  A    
C30   C139  A    
C83   C101  A    
C186  C194  A    
C22   H10   S    
C182  H8    S    
C170  C179  A    
O25   Zn7   S    
C140  C186  S    
C162  O44   A    
C130  N20   T    
C40   O39   A    
O16   Zn10  S    
O35   Zn12  S    
C117  N7    T    
C18   H29   S    
O38   Zn4   S    
C124  C210  A    
C28   C37   A    
C20   C150  A    
C50   C65   A    
C51   C79   A    
C109  N28   T    
O32   Zn2   S    
C202  O10   A    
C9    C18   A    
C5    C125  S    
C128  N18   T    
C51   C60   A    
C7    C127  S    
C19   H30   S    
O39   Zn3   S    
C161  C214  A    
C36   H24   S    
C187  C196  A    
C133  C156  A    
C73   C74   A    
O2    Zn8   S    
C88   C205  S    
C183  C192  A    
C43   C169  S    
C176  C185  A    
C33   C143  A    
C151  C187  S    
C25   H13   S    
C166  C175  A    
C65   C76   A    
C178  H4    S    
C49   C101  A    
C195  O47   A    
C135  C214  A    
C123  N14   T    
C168  C177  A    
C47   O35   A    
C9    C163  A    
O31   Zn12  S    
C208  O16   A    
C163  C215  A    
C164  C216  A    
C20   H31   S    
O40   Zn12  S    
C146  C155  A    
C203  O3    A    
C65   C67   A    
C79   C119  S    
C158  C167  A    
C160  C169  A    
C137  C152  A    
C37   C146  A    
C163  C171  A    
C93   C99   A    
C184  O25   A    
C136  C215  A    
C81   C89   A    
C176  H2    S    
C204  O13   A    
O28   Zn4   S    
O7    Zn7   S    
C198  C215  A    
C140  O23   A    
O43   Zn12  S    
C53   C73   A    
C92   C98   A    
O47   Zn11  S    
C6    C126  S    
C207  O15   A    
O21   Zn10  S    
C47   C166  S    
C53   C57   A    
O11   Zn6   S    
C7    C160  A    
C101  C121  S    
C159  C212  A    
O1    Zn1   S    
C78   C206  A    
C67   C77   A    
C10   C19   A    
C29   C200  A    
C114  N4    T    
C125  N15   T    
O20   Zn11  S    
C126  N16   T    
C30   H18   S    
C147  C156  A    
C5    C14   A    
C118  N8    T    
C121  N11   T    
C178  C187  A    
C175  H32   S    
C119  N9    T    
C137  C216  A    
C182  C191  A    
C12   H1    S    
C40   C172  S    
C57   C117  S    
O48   Zn9   S    
O22   Zn5   S    
C122  N13   T    
C27   C36   A    
C21   C30   A    
C13   C83   A    
C46   C116  S    
C23   C32   A    
C142  C150  A    
C45   O33   A    
C162  C188  S    
C188  C197  A    
C41   O29   A    
C38   C147  A    
C33   H21   S    
C82   C91   A    
O34   Zn7   S    
C64   C100  S    
O6    Zn1   S    
C48   C113  A    
C189  C198  A    
C68   C80   A    
C41   O36   A    
C84   C113  A    
C97   C110  S    
C124  C154  A    
C10   C130  S    
C6    C159  A    
C35   C81   A    
C95   C98   A    
C141  C149  A    
C138  C150  A    
C83   C92   A    
C42   O30   A    
C18   C148  A    
C8    C161  A    
C66   C69   A    
C204  O4    A    
C111  N3    T    
C173  O24   A    
C144  C153  A    
C159  C168  A    
C39   O27   A    
C205  O14   A    
C40   O28   A    
C107  N26   T    
C6    C15   A    
C26   C34   A    
C17   H28   S    
C115  N5    T    
C13   C86   A    
C55   C71   A    
C136  C145  A    
C52   C68   A    
C157  C210  A    
C2    C75   A    
C46   C54   A    
O13   Zn7   S    
C191  C195  S    
C38   H26   S    
C22   C31   A    
C35   C55   A    
C199  C216  A    
C202  O2    A    
C135  C149  A    
C49   C58   A    
C4    C123  S    
C89   C97   A    
O46   Zn10  S    
C53   C62   A    
C36   C145  A    
C131  N21   T    
C13   C76   A    
C138  C147  A    
O36   Zn3   S    
C192  C210  A    
C87   C96   A    
C132  C153  A    
C45   C167  S    
C87   C207  S    
C15   C156  A    
C161  C170  A    
C27   H15   S    
C135  C144  A    
C14   C153  A    
C171  C180  A    
C169  C178  A    
C62   C103  S    
C74   C206  A    
C48   C56   A    
C7    C16   A    
C10   C164  A    
C98   C111  S    
C205  O5    A    
C17   C149  A    
C185  C193  A    
C129  N19   T    
C157  C166  A    
C140  O20   A    
C23   H11   S    
O18   Zn9   S    
C9    C129  S    
C21   H9    S    
C24   C84   A    
C11   C131  S    
C207  O6    A    
C71   C75   A    
C196  C213  A    
C94   C99   A    
C105  N24   T    
C120  N10   T    
C160  C213  A    
C42   O37   A    
C173  C189  S    
O5    Zn5   S    
O37   Zn4   S    
C2    C80   A    
C16   H27   S    
C151  O34   A    
C25   C33   A    
C133  C212  A    
C209  O17   A    
C70   C72   A    
C112  O12   A    
C39   O38   A    
C60   C105  S    
O14   Zn8   S    
C167  C176  A    
