data_mof_unit_9039.cif
_audit_creation_date              2012-12-10T18:06:40-0500
_audit_creation_method            fapswitch 2.2
_symmetry_space_group_name_H-M    P1
_symmetry_Int_Tables_number       1
_space_group_crystal_system       triclinic
_cell_length_a                    12.55988
_cell_length_b                    13.592782
_cell_length_c                    15.747427
_cell_angle_alpha                 83.375885
_cell_angle_beta                  99.021352
_cell_angle_gamma                 93.138257
_cell_volume                      2635.63563103

loop_
_atom_site_label
_atom_site_type_symbol
_atom_type_description
_atom_site_fract_x
_atom_site_fract_y
_atom_site_fract_z
_atom_type_partial_charge
C1    C     C_R   0.448645 0.308628 0.512561 0.893385
C2    C     C_R   0.438236 0.509027 0.099019 0.094529
C3    C     C_R   0.336518 0.548458 0.063373 0.175244
C4    C     C_R   0.513367 0.491545 0.044603 0.065318
C5    C     C_R   0.480809 0.504428 0.953499 0.070541
C6    C     C_R   0.375142 0.537660 0.919882 -0.221449
C7    C     C_R   0.305269 0.560540 0.974117 -0.232336
C8    C     C_R   0.621430 0.466457 0.078433 -0.214458
C9    C     C_R   0.694293 0.451141 0.024275 -0.225071
C10   C     C_R   0.663237 0.460719 0.935152 0.170042
C11   C     C_R   0.556209 0.486083 0.899155 0.091636
C12   C     C_R   0.433683 0.510865 0.335970 0.895208
C13   C     C_R   0.738656 0.445831 0.881239 -0.193796
C14   C     C_R   0.708554 0.455069 0.791759 -0.201704
C15   C     C_R   0.528020 0.492296 0.809657 -0.257707
C16   C     C_R   0.736552 0.913273 0.517922 -0.196689
C17   C     C_R   0.592857 0.788940 0.506566 -0.043539
C18   C     C_R   0.328935 0.169737 0.553468 -0.128261
C19   C     C_R   0.302639 0.069928 0.570467 -0.127052
C20   C     C_R   0.375202 0.998618 0.564267 -0.195281
C21   C     C_R   0.478424 0.025699 0.541650 0.085886
C22   C     C_R   0.508543 0.127765 0.527145 0.099632
C23   C     C_R   0.555705 0.688855 0.494295 0.878249
C24   C     C_R   0.552657 0.953873 0.532136 0.080644
C25   C     C_R   0.661637 0.982561 0.525205 0.192211
C26   C     C_R   0.692892 0.080760 0.517373 -0.269612
C27   C     C_R   0.617052 0.150933 0.512100 -0.209481
C28   C     C_R   0.519614 0.855845 0.521347 -0.266417
C29   C     C_R   0.702075 0.816615 0.508357 -0.203086
C30   C     C_R   0.429192 0.200571 0.529142 -0.123661
C31   C     C_R   0.127917 0.637080 0.616035 -0.306578
C32   C     C_R   0.758505 0.377688 0.402234 -0.106877
C33   C     C_R   0.854055 0.346243 0.383446 -0.291770
C34   C     C_R   0.565113 0.486737 0.663333 0.860190
C35   C     C_R   0.953483 0.392598 0.413367 0.447685
C36   C     C_R   0.956090 0.468496 0.471662 -0.122254
C37   C     C_R   0.853817 0.493857 0.491053 0.174984
C38   C     C_R   0.049999 0.518492 0.514416 -0.001613
C39   C     C_R   0.038284 0.587871 0.573470 0.201975
C40   C     C_R   0.937530 0.606508 0.591443 -0.297866
C41   C     C_R   0.847518 0.559394 0.551576 -0.174439
C42   C     C_R   0.155731 0.502023 0.504275 0.013758
C43   C     C_R   0.229155 0.618233 0.599906 -0.011513
C44   C     C_R   0.395749 0.520553 0.242517 -0.068617
C45   C     C_R   0.602648 0.477843 0.756021 -0.051750
C46   C     C_R   0.267408 0.576149 0.117796 -0.193324
C47   C     C_R   0.298653 0.565366 0.207071 -0.195187
C48   C     C_R   0.461862 0.489022 0.188584 -0.242209
H1    H     H_    0.226668 0.588065 0.945949 0.146061
H2    H     H_    0.820703 0.427373 0.908382 0.143159
H3    H     H_    0.760436 0.764424 0.499887 0.173365
H4    H     H_    0.774793 0.103888 0.507708 0.157908
H5    H     H_    0.820355 0.934996 0.514891 0.145988
H6    H     H_    0.435863 0.831990 0.518534 0.162791
H7    H     H_    0.271504 0.223131 0.560968 0.200440
H8    H     H_    0.350186 0.922728 0.580802 0.130718
H9    H     H_    0.225023 0.047369 0.589584 0.149418
H10   H     H_    0.650833 0.220902 0.497571 0.189922
H11   H     H_    0.299859 0.655637 0.631420 0.132557
H12   H     H_    0.447112 0.506736 0.779843 0.162512
H13   H     H_    0.928038 0.657130 0.637652 0.152702
H14   H     H_    0.119600 0.689365 0.661046 0.143668
H15   H     H_    0.178596 0.450535 0.467475 0.250722
H16   H     H_    0.725721 0.361989 0.460759 0.210640
H17   H     H_    0.847049 0.291129 0.338566 0.217716
H18   H     H_    0.773016 0.573628 0.571153 0.214692
H19   H     H_    0.767389 0.443642 0.750835 0.162347
H20   H     H_    0.776033 0.432772 0.052506 0.162305
H21   H     H_    0.190612 0.608090 0.091152 0.147061
H22   H     H_    0.247411 0.591507 0.247993 0.197668
H23   H     H_    0.531173 0.447622 0.218199 0.162460
H24   H     H_    0.343886 0.550944 0.852010 0.143040
H25   H     H_    0.654469 0.461912 0.146261 0.160270
N1    N     N_R   0.239390 0.551900 0.544730 -0.131453
N2    N     N_R   0.759950 0.448600 0.455730 -0.206211
O1    O     O_R   0.374950 0.371210 0.521360 -0.601936
O2    O     O_R   0.542050 0.338030 0.492790 -0.660152
O3    O     O_R   0.368720 0.526070 0.390200 -0.589511
O4    O     O_R   0.535820 0.492890 0.361630 -0.604813
O5    O     O_R   0.457950 0.661970 0.507210 -0.628193
O6    O     O_R   0.625050 0.628790 0.478640 -0.639239
O7    O     O_R   0.464180 0.507110 0.638370 -0.629937
O8    O     O_R   0.631280 0.473930 0.609800 -0.653149
Zn1   Zn    Zn3+2 0.388420 0.522150 0.519080 0.975491
Zn2   Zn    Zn3+2 0.611580 0.477850 0.480920 0.929948
S1    S     S_3+6 0.062472 0.350323 0.368264 -0.027157
O9    O     O_2   0.134944 0.289699 0.436832 -0.346917
O10   O     O_2   0.019935 0.285812 0.298723 -0.310139
O11   O     O_3   0.131494 0.446405 0.322130 -0.604156
H26   H     H_    0.162309 0.419265 0.276262 0.389873

loop_
_geom_bond_atom_site_label_1
_geom_bond_atom_site_label_2
_ccdc_geom_bond_type
C1    O2    A    
C15   H12   S    
C35   C36   A    
C4    C8    A    
O1    Zn1   S    
C32   N2    A    
C33   H17   S    
C19   H9    S    
C6    H24   S    
C26   C27   A    
C17   C23   S    
C31   C43   A    
C36   C37   A    
C38   C42   A    
C3    C7    A    
C5    C6    A    
C35   S1    S    
S1    O10   D    
C12   O4    A    
C17   C29   A    
C18   C19   A    
C16   H5    S    
C8    H25   S    
C46   H21   S    
C11   C15   A    
N2    Zn2   S    
C19   C20   A    
C8    C9    A    
C12   O3    A    
C14   H19   S    
C18   C30   A    
C23   O5    A    
C23   O6    A    
C9    C10   A    
C44   C47   A    
C20   H8    S    
C43   N1    A    
C37   N2    A    
O2    Zn2   S    
C21   C22   A    
C17   C28   A    
C31   H14   S    
C14   C45   A    
C42   N1    A    
O5    Zn1   S    
C24   C25   A    
C7    H1    S    
C39   C40   A    
C28   H6    S    
S1    O9    D    
C2    C48   A    
C25   C26   A    
C10   C13   A    
C40   H13   S    
C2    C4    A    
C47   H22   S    
C26   H4    S    
C34   C45   S    
C32   H16   S    
C41   H18   S    
C18   H7    S    
C40   C41   A    
O8    Zn2   S    
O7    Zn1   S    
C22   C27   A    
C34   O8    A    
C15   C45   A    
C48   H23   S    
O4    Zn2   S    
C29   H3    S    
C16   C25   A    
C46   C47   A    
C22   C30   A    
C1    O1    A    
C24   C28   A    
N1    Zn1   S    
C4    C5    A    
S1    O11   S    
C5    C11   A    
C6    C7    A    
C43   H11   S    
C3    C46   A    
C32   C33   A    
C36   C38   A    
C2    C3    A    
C16   C29   A    
C9    H20   S    
C12   C44   S    
C38   C39   A    
C27   H10   S    
C1    C30   S    
C33   C35   A    
C31   C39   A    
C37   C41   A    
C10   C11   A    
C13   H2    S    
O3    Zn1   S    
C20   C21   A    
C21   C24   A    
C34   O7    A    
O11   H26   S    
C13   C14   A    
C42   H15   S    
O6    Zn2   S    
C44   C48   A    
