data_mof_unit_45054.cif
_audit_creation_date              2012-12-10T17:08:43-0500
_audit_creation_method            fapswitch 2.2
_symmetry_space_group_name_H-M    P1
_symmetry_Int_Tables_number       1
_space_group_crystal_system       triclinic
_cell_length_a                    27.808423
_cell_length_b                    11.02425
_cell_length_c                    9.814867
_cell_angle_alpha                 111.672445
_cell_angle_beta                  97.701592
_cell_angle_gamma                 90.987136
_cell_volume                      2763.71017804

loop_
_atom_site_label
_atom_site_type_symbol
_atom_type_description
_atom_site_fract_x
_atom_site_fract_y
_atom_site_fract_z
_atom_type_partial_charge
C1    C     C_R   0.496590 0.253448 0.439639 0.897865
C2    C     C_R   0.504549 0.746596 0.560218 0.900297
C3    C     C_R   0.102884 0.519108 0.517330 -0.060368
C4    C     C_R   0.897260 0.485152 0.484722 -0.060497
C5    C     C_R   0.133566 0.503450 0.636269 -0.047564
C6    C     C_R   0.866573 0.500699 0.365721 -0.047636
C7    C     C_R   0.112476 0.493539 0.755673 -0.010790
C8    C     C_R   0.887670 0.510787 0.246415 -0.010537
C9    C     C_R   0.123801 0.541438 0.404680 -0.015633
C10   C     C_R   0.876343 0.462652 0.597272 -0.015558
C11   C     C_R   0.355036 0.504033 0.507590 -0.075828
C12   C     C_R   0.644981 0.497046 0.492765 -0.075086
C13   C     C_R   0.978904 0.476237 0.612521 0.057877
C14   C     C_R   0.021245 0.528270 0.389669 0.057852
C15   C     C_R   0.969698 0.515876 0.379359 0.043647
C16   C     C_R   0.030450 0.488657 0.622846 0.043695
C17   C     C_R   0.948798 0.492387 0.492078 0.067007
C18   C     C_R   0.051350 0.512071 0.510086 0.067041
C19   C     C_R   0.956150 0.445686 0.717667 -0.208835
C20   C     C_R   0.044006 0.558742 0.284478 -0.208761
C21   C     C_R   0.906045 0.440308 0.710645 -0.154843
C22   C     C_R   0.094109 0.563912 0.291380 -0.154578
C23   C     C_R   0.407678 0.500975 0.502178 0.924007
C24   C     C_R   0.592325 0.499260 0.497891 0.917313
C25   C     C_R   0.061942 0.483625 0.745942 -0.272277
C26   C     C_R   0.938206 0.520917 0.256266 -0.272343
C27   C     C_2   0.495028 0.112662 0.403407 0.065131
C28   C     C_2   0.509337 0.887397 0.595847 0.064803
C29   C     C_2   0.511848 0.068888 0.509746 -0.183776
C30   C     C_2   0.509203 0.930264 0.484768 -0.186609
C31   C     C_2   0.504134 0.510701 0.081406 -0.043471
C32   C     C_2   0.495854 0.489343 0.918614 -0.042065
C33   C     C_R   0.183957 0.495022 0.628194 0.565889
C34   C     C_R   0.816160 0.508750 0.373587 0.565661
C35   C     C_R   0.174287 0.541662 0.407956 0.538287
C36   C     C_R   0.825844 0.462030 0.593765 0.537936
C37   C     C_R   0.286141 0.614415 0.615073 -0.168373
C38   C     C_R   0.714155 0.387870 0.385894 -0.171033
C39   C     C_R   0.336235 0.613849 0.611341 -0.084288
C40   C     C_R   0.664033 0.387615 0.389205 -0.081216
C41   C     C_R   0.322457 0.397694 0.408285 -0.071843
C42   C     C_R   0.677332 0.603869 0.592252 -0.068958
C43   C     C_R   0.272408 0.404875 0.411266 -0.172913
C44   C     C_R   0.727420 0.597490 0.589652 -0.174555
C45   C     C_R   0.254368 0.511850 0.514494 0.360874
C46   C     C_R   0.745709 0.490872 0.486654 0.360653
Cu1   Cu    Cu3+1 0.508480 0.521810 0.644910 1.038579
Cu2   Cu    Cu3+1 0.491520 0.478190 0.355090 1.041172
H1    H     H_    0.467617 0.416614 0.845409 0.166365
H2    H     H_    0.532356 0.583471 0.154631 0.159678
H3    H     H_    0.547744 0.623165 0.934732 0.214614
H4    H     H_    0.452279 0.376770 0.065247 0.218246
H5    H     H_    0.247079 0.325238 0.335576 0.134369
H6    H     H_    0.752585 0.677463 0.665497 0.134372
H7    H     H_    0.729239 0.305431 0.307643 0.141133
H8    H     H_    0.271257 0.697157 0.693504 0.141591
H9    H     H_    0.890648 0.418279 0.795278 0.184744
H10   H     H_    0.109509 0.585820 0.206676 0.184658
H11   H     H_    0.975783 0.423455 0.806748 0.136196
H12   H     H_    0.024382 0.581001 0.195405 0.136167
H13   H     H_    0.048337 0.478575 0.841528 0.120146
H14   H     H_    0.951814 0.526097 0.160743 0.120177
H15   H     H_    0.506159 0.860536 0.371439 0.186805
H16   H     H_    0.527292 0.137961 0.619042 0.190447
N1    N     N_R   0.203004 0.516613 0.517134 -0.469260
N2    N     N_R   0.797110 0.486869 0.484471 -0.468926
N3    N     N_2   0.478780 0.445430 0.137360 -0.272211
N4    N     N_2   0.521220 0.554570 0.862640 -0.275107
O1    O     O_R   0.504520 0.332330 0.577400 -0.618775
O2    O     O_R   0.495480 0.667670 0.422600 -0.618306
O3    O     O_R   0.490210 0.295500 0.332650 -0.505000
O4    O     O_R   0.509790 0.704500 0.667350 -0.505583
O5    O     O_R   0.437420 0.518430 0.622370 -0.567959
O6    O     O_R   0.562580 0.481570 0.377630 -0.570087
O7    O     O_R   0.423110 0.481600 0.377610 -0.554415
O8    O     O_R   0.576890 0.518400 0.622390 -0.558023
O9    O     O_2   0.213588 0.460248 0.725957 -0.488931
O10   O     O_2   0.786501 0.543393 0.275768 -0.490035
O11   O     O_2   0.805524 0.438070 0.699601 -0.503462
O12   O     O_2   0.194608 0.565386 0.301983 -0.502480
C47   C     C_2   0.338355 0.274914 0.302737 0.389269
H17   H     H_    0.312642 0.212036 0.208546 0.087468
O13   O     O_2   0.379053 0.239017 0.322411 -0.542506
C48   C     C_2   0.661171 0.726327 0.697727 0.381035
H18   H     H_    0.686773 0.789433 0.792086 0.087020
O14   O     O_2   0.620395 0.761740 0.677863 -0.552655
I1    I     I_    0.515572 0.015118 0.823411 -0.224001
I2    I     I_    0.463515 0.986977 0.184168 -0.219892
C49   C     C_2   0.140828 0.501892 0.898410 0.473207
H19   H     H_    0.129817 0.438666 0.952958 0.044782
O15   O     O_2   0.174237 0.585518 0.961431 -0.464168
C50   C     C_2   0.859331 0.502283 0.103604 0.472521
H20   H     H_    0.870306 0.565552 0.049060 0.044783
O16   O     O_2   0.825987 0.418477 0.040502 -0.465298
C51   C     C_2   0.634052 0.268232 0.285532 0.394919
H21   H     H_    0.647850 0.204581 0.187226 0.093293
O17   O     O_2   0.595165 0.235638 0.311068 -0.543019
C52   C     C_2   0.366480 0.732826 0.714744 0.404052
H22   H     H_    0.352944 0.796575 0.813512 0.096465
O18   O     O_2   0.405296 0.765008 0.688421 -0.533774

loop_
_geom_bond_atom_site_label_1
_geom_bond_atom_site_label_2
_ccdc_geom_bond_type
C27   C29   D    
C8    C26   A    
C14   C18   A    
C51   H21   S    
C24   O6    A    
C34   N2    A    
C47   H17   S    
C33   N1    A    
C31   N3    D    
C1    O3    A    
C19   C21   A    
C48   O14   D    
Cu1   O8    S    
C46   N2    S    
C36   N2    A    
C9    C22   A    
C35   N1    A    
C7    C49   S    
C35   O12   S    
C3    C18   A    
Cu1   O1    S    
C12   C42   A    
C37   H8    S    
C43   H5    S    
C38   H7    S    
C31   C32   S    
C5    C33   A    
C8    C50   S    
C49   O15   D    
C32   N4    D    
C29   H16   S    
C30   H15   S    
C41   C43   A    
Cu2   O7    S    
C42   C44   A    
C23   O5    A    
C2    O4    A    
C47   O13   D    
C44   C46   A    
C10   C21   A    
C32   H1    S    
C13   C19   A    
C14   C20   A    
C42   C48   S    
C48   H18   S    
Cu1   O5    S    
C4    C6    A    
C23   O7    A    
C5    C7    A    
C24   O8    A    
C15   C26   A    
C6    C8    A    
C19   H11   S    
C1    O1    A    
C6    C34   A    
C12   C40   A    
C21   H9    S    
C29   C30   S    
C3    C9    A    
Cu2   O6    S    
Cu1   Cu2   S    
C41   C47   S    
C28   I1    S    
C50   O16   D    
C25   H13   S    
C11   C39   A    
C43   C45   A    
H4    N3    S    
C4    C17   A    
C20   C22   A    
C52   O18   D    
C45   N1    S    
C20   H12   S    
C40   C51   S    
C4    C10   A    
C3    C5    A    
Cu1   N4    S    
C1    C27   S    
C16   C25   A    
C15   C17   A    
Cu2   O2    S    
C39   C52   S    
C36   O11   S    
C22   H10   S    
C10   C36   A    
C51   O17   D    
C12   C24   S    
C7    C25   A    
C13   C17   A    
C28   C30   D    
C26   H14   S    
C37   C39   A    
C34   O10   S    
C38   C40   A    
C33   O9    S    
C11   C23   S    
C50   H20   S    
C11   C41   A    
H3    N4    S    
Cu2   N3    S    
C27   I2    S    
Cu1   O4    S    
C38   C46   A    
C44   H6    S    
Cu2   O3    S    
C16   C18   A    
C52   H22   S    
C13   C16   A    
C9    C35   A    
C14   C15   A    
C2    C28   S    
C31   H2    S    
C49   H19   S    
C2    O2    A    
C37   C45   A    
