data_mof_unit_43249.cif
_audit_creation_date              2012-12-10T19:45:42-0500
_audit_creation_method            fapswitch 2.2
_symmetry_space_group_name_H-M    P1
_symmetry_Int_Tables_number       1
_space_group_crystal_system       triclinic
_cell_length_a                    10.854053
_cell_length_b                    14.674441
_cell_length_c                    14.795815
_cell_angle_alpha                 64.958417
_cell_angle_beta                  103.389889
_cell_angle_gamma                 102.80365
_cell_volume                      2056.55230009

loop_
_atom_site_label
_atom_site_type_symbol
_atom_type_description
_atom_site_fract_x
_atom_site_fract_y
_atom_site_fract_z
_atom_type_partial_charge
C1    C     C_R   0.477133 0.119834 0.312430 0.804954
C2    C     C_R   0.519715 0.880131 0.687484 0.805354
C3    C     C_R   0.870541 0.001093 0.495317 -0.082653
C4    C     C_R   0.129610 0.999368 0.504434 -0.081560
C5    C     C_R   0.907441 0.949336 0.446216 -0.000647
C6    C     C_R   0.092777 0.051459 0.553267 -0.000880
C7    C     C_R   0.456595 0.187166 0.205021 -0.085237
C8    C     C_R   0.518655 0.812417 0.794106 -0.079496
C9    C     C_R   0.399719 0.212574 0.028046 0.160085
C10   C     C_R   0.515030 0.785166 0.966971 0.155335
C11   C     C_R   0.420355 0.147747 0.130211 -0.239630
C12   C     C_R   0.527372 0.850944 0.867328 -0.259113
C13   C     C_R   0.470002 0.291819 0.177884 -0.261679
C14   C     C_R   0.499338 0.707537 0.820969 -0.254634
C15   C     C_R   0.445964 0.359125 0.076576 0.048493
C16   C     C_R   0.481257 0.639122 0.919283 0.041053
C17   C     C_R   0.415073 0.318788 0.000797 0.146947
C18   C     C_R   0.492841 0.678995 0.993701 0.161858
C19   C     C_R   0.456367 0.465782 0.048831 0.082822
C20   C     C_R   0.454362 0.532195 0.945660 0.081543
C21   C     C_R   0.422335 0.489603 0.872080 -0.237444
C22   C     C_R   0.465630 0.507943 0.120631 -0.246335
C23   C     C_R   0.262939 0.999228 0.502510 0.791058
C24   C     C_R   0.737106 0.000826 0.497498 0.791018
C25   C     C_R   0.401227 0.385296 0.899218 -0.218325
C26   C     C_R   0.481762 0.612186 0.093206 -0.206285
C27   C     C_R   0.709545 0.282406 0.670897 -0.324271
C28   C     C_R   0.291172 0.718008 0.328504 -0.324417
C29   C     C_R   0.677621 0.201437 0.640511 0.074342
C30   C     C_R   0.322883 0.798838 0.359109 0.073285
C31   C     C_R   0.520665 0.286299 0.507739 0.034217
C32   C     C_R   0.479072 0.713578 0.492370 0.031740
C33   C     C_R   0.548944 0.371733 0.534448 -0.020459
C34   C     C_R   0.451041 0.628301 0.465417 -0.020954
C35   C     C_R   0.644999 0.367364 0.618739 0.157594
C36   C     C_R   0.355397 0.632889 0.380833 0.159381
C37   C     C_R   0.484177 0.459452 0.482515 0.066116
C38   C     C_R   0.515815 0.540594 0.517319 0.061376
C39   C     C_R   0.611327 0.531445 0.602513 -0.246296
C40   C     C_R   0.388800 0.468669 0.397230 -0.250494
C41   C     C_R   0.674833 0.446888 0.651496 -0.204508
C42   C     C_R   0.325704 0.553440 0.347958 -0.214502
C43   C     C_R   0.354481 0.104211 0.751936 -0.113105
C44   C     C_R   0.641874 0.896667 0.249879 -0.118808
C45   C     C_R   0.266495 0.052068 0.698682 -0.101226
C46   C     C_R   0.731631 0.948871 0.302100 -0.092541
C47   C     C_R   0.184709 0.105276 0.611891 0.125802
C48   C     C_R   0.815456 0.895823 0.387417 0.123534
C49   C     C_R   0.189307 0.210457 0.581484 -0.160102
C50   C     C_R   0.811764 0.790899 0.416892 -0.162960
C51   C     C_R   0.276415 0.261948 0.635663 -0.154641
C52   C     C_R   0.723355 0.739408 0.363430 -0.144930
C53   C     C_R   0.360072 0.209115 0.719953 -0.097208
C54   C     C_R   0.637417 0.791968 0.280935 -0.101092
C55   C     C_R   0.963495 0.051996 0.547329 -0.238613
C56   C     C_R   0.036678 0.948671 0.452251 -0.238231
Cu1   Cu    Cu3+1 0.466270 0.918260 0.475690 0.938479
Cu2   Cu    Cu3+1 0.533730 0.081740 0.524310 0.939232
H1    H     H_    0.429392 0.249565 0.760371 0.152572
H2    H     H_    0.566706 0.751185 0.241821 0.153375
H3    H     H_    0.407978 0.534892 0.792089 0.145841
H4    H     H_    0.455805 0.462066 0.198545 0.143003
H5    H     H_    0.747622 0.443387 0.716479 0.145209
H6    H     H_    0.253315 0.557133 0.282705 0.146913
H7    H     H_    0.552794 0.718347 0.553428 0.121916
H8    H     H_    0.446591 0.281343 0.446939 0.121765
H9    H     H_    0.274687 0.865253 0.318059 0.121929
H10   H     H_    0.726098 0.135160 0.681395 0.122917
H11   H     H_    0.783270 0.278164 0.735464 0.138527
H12   H     H_    0.217883 0.722489 0.263633 0.139642
H13   H     H_    0.639553 0.588463 0.633869 0.135338
H14   H     H_    0.360498 0.411584 0.365965 0.132134
H15   H     H_    0.418378 0.063453 0.818022 0.116714
H16   H     H_    0.575346 0.937248 0.185742 0.121026
H17   H     H_    0.263223 0.970779 0.724037 0.107990
H18   H     H_    0.734017 0.029950 0.277645 0.105745
H19   H     H_    0.126406 0.252623 0.515259 0.132092
H20   H     H_    0.876091 0.748858 0.482056 0.131848
H21   H     H_    0.280190 0.343058 0.611572 0.143864
H22   H     H_    0.720001 0.658416 0.386968 0.145114
H23   H     H_    0.935547 0.090537 0.586281 0.158019
H24   H     H_    0.064617 0.910178 0.413247 0.158222
H25   H     H_    0.376258 0.357294 0.839425 0.164642
H26   H     H_    0.487055 0.640009 0.151257 0.173114
H27   H     H_    0.501044 0.680918 0.763789 0.152834
H28   H     H_    0.503305 0.319588 0.237259 0.157857
H29   H     H_    0.542631 0.932155 0.847333 0.150769
H30   H     H_    0.408479 0.066431 0.151160 0.145179
N1    N     N_R   0.584450 0.204570 0.560790 -0.176493
N2    N     N_R   0.415550 0.795430 0.439210 -0.175824
O1    O     O_R   0.455540 0.022090 0.338120 -0.591838
O2    O     O_R   0.544460 0.977910 0.661880 -0.590577
O3    O     O_R   0.512510 0.160150 0.379180 -0.591773
O4    O     O_R   0.487490 0.839850 0.620820 -0.592196
O5    O     O_R   0.291160 0.930970 0.479480 -0.588865
O6    O     O_R   0.708840 0.069030 0.520520 -0.588518
O7    O     O_R   0.348130 0.069020 0.520540 -0.573684
O8    O     O_R   0.651870 0.930980 0.479460 -0.572898
N3    N     N_3   0.363562 0.170878 0.952002 -0.628158
H31   H     H_    0.368221 0.092838 0.984016 0.207773
H32   H     H_    0.267722 0.179434 0.921704 0.216671
N4    N     N_3   0.523722 0.826750 0.040428 -0.642532
H33   H     H_    0.452997 0.873923 0.015766 0.209083
H34   H     H_    0.612670 0.871886 0.043082 0.221378

loop_
_geom_bond_atom_site_label_1
_geom_bond_atom_site_label_2
_ccdc_geom_bond_type
C43   H15   S    
C31   H8    S    
C27   C29   A    
C5    C56   A    
C36   C42   A    
C19   C20   A    
C18   C26   A    
C6    C55   A    
C30   N2    A    
C46   H18   S    
C53   H1    S    
C39   C41   A    
C54   H2    S    
C15   C19   A    
C23   O5    A    
C24   O8    A    
Cu2   O3    S    
C37   C40   A    
C24   O6    A    
C38   C39   A    
Cu2   O6    S    
C3    C55   A    
C43   C53   A    
C32   N2    A    
C44   C46   A    
C49   C51   A    
C13   H28   S    
C50   C52   A    
C31   C33   A    
C55   H23   S    
Cu1   O1    S    
C21   H3    S    
C30   H9    S    
C27   H11   S    
C16   C20   A    
C40   C42   A    
C9    N3    S    
C34   C38   A    
C4    C56   A    
C3    C24   S    
Cu2   O7    S    
C50   H20   S    
C29   N1    A    
C52   C54   A    
C45   C47   A    
C2    O2    A    
C5    C48   S    
C46   C48   A    
Cu1   N2    S    
C2    O4    A    
C19   C22   A    
C4    C6    A    
C6    C47   S    
C4    C23   S    
C27   C35   A    
C33   C37   A    
C51   C53   A    
C32   C34   A    
C7    C11   A    
C37   C38   A    
C22   H4    S    
C29   H10   S    
C9    C11   A    
N3    H31   S    
C10   N4    S    
C11   H30   S    
C8    C12   A    
C16   C18   A    
N4    H34   S    
C43   C45   A    
C10   C12   A    
C9    C17   A    
C23   O7    A    
Cu1   O4    S    
C13   C15   A    
C22   C26   A    
C14   C16   A    
C41   H5    S    
C42   H6    S    
C15   C17   A    
C21   C25   A    
C8    C14   A    
C40   H14   S    
C12   H29   S    
N3    H32   S    
C1    C7    S    
C28   H12   S    
C14   H27   S    
C44   H16   S    
C3    C5    A    
C56   H24   S    
C31   N1    A    
C47   C49   A    
C45   H17   S    
C17   C25   A    
C28   C30   A    
C26   H26   S    
Cu1   Cu2   S    
C10   C18   A    
Cu1   O8    S    
C1    O1    A    
C48   C50   A    
C33   C35   A    
C49   H19   S    
C34   C36   A    
N4    H33   S    
C35   C41   A    
Cu2   N1    S    
C51   H21   S    
C44   C54   A    
C7    C13   A    
C20   C21   A    
C28   C36   A    
C1    O3    A    
Cu1   O5    S    
C2    C8    S    
C25   H25   S    
C39   H13   S    
C52   H22   S    
Cu2   O2    S    
C32   H7    S    
