data_mof_unit_23367.cif
_audit_creation_date              2012-12-10T18:32:50-0500
_audit_creation_method            fapswitch 2.2
_symmetry_space_group_name_H-M    P1
_symmetry_Int_Tables_number       1
_space_group_crystal_system       triclinic
_cell_length_a                    15.110236
_cell_length_b                    15.25962
_cell_length_c                    15.74382
_cell_angle_alpha                 91.675457
_cell_angle_beta                  104.362078
_cell_angle_gamma                 82.438026
_cell_volume                      3486.0967177

loop_
_atom_site_label
_atom_site_type_symbol
_atom_type_description
_atom_site_fract_x
_atom_site_fract_y
_atom_site_fract_z
_atom_type_partial_charge
C1    C     C_R   0.441995 0.663152 0.488736 0.919979
C2    C     C_3   0.389180 0.530759 0.020572 0.790765
C3    C     C_3   0.491122 0.504974 0.080499 -0.280963
C4    C     C_3   0.525722 0.408177 0.054845 0.210505
C5    C     C_3   0.521036 0.401166 0.953602 0.915349
C6    C     C_1   0.491778 0.502397 0.172569 0.137482
C7    C     C_1   0.504191 0.499643 0.825909 0.110244
C8    C     C_1   0.503938 0.499911 0.750568 -0.161584
C9    C     C_R   0.406060 0.757368 0.495722 -0.192241
C10   C     C_R   0.591352 0.243798 0.538682 -0.297283
C11   C     C_R   0.279730 0.877559 0.484336 0.499803
C12   C     C_R   0.501279 0.500070 0.661398 0.886241
C13   C     C_R   0.312411 0.791117 0.462877 0.203566
C14   C     C_R   0.466769 0.813296 0.542334 -0.253914
C15   C     C_R   0.437718 0.902475 0.555810 -0.025347
C16   C     C_R   0.343056 0.935689 0.526285 -0.190938
C17   C     C_R   0.502838 0.960985 0.590042 0.009992
C18   C     C_R   0.476852 0.051809 0.575912 -0.070102
C19   C     C_R   0.382112 0.084798 0.562909 0.361155
C20   C     C_R   0.315117 0.026749 0.537095 0.445771
C21   C     C_R   0.593315 0.932321 0.637244 -0.242194
C22   C     C_R   0.661224 0.988349 0.652755 0.298191
C23   C     C_R   0.557702 0.337097 0.514449 0.895401
C24   C     C_R   0.640975 0.072609 0.612483 -0.126167
C25   C     C_R   0.546926 0.105222 0.576113 0.015339
C26   C     C_R   0.710261 0.125047 0.606245 0.466009
C27   C     C_R   0.685247 0.212220 0.573838 0.423080
C28   C     C_R   0.525118 0.187299 0.534451 -0.263350
C29   C     C_R   0.856697 0.574847 0.670333 0.142365
C30   C     C_R   0.762638 0.585662 0.630461 0.593005
C31   C     C_R   0.789998 0.517705 0.500775 -0.083993
C32   C     C_R   0.886271 0.520041 0.530376 -0.071358
C33   C     C_R   0.919807 0.549228 0.618589 -0.084513
C34   C     C_R   0.498811 0.499477 0.338415 0.863996
C35   C     C_R   0.950578 0.489721 0.478499 0.002792
C36   C     C_R   0.046732 0.488076 0.517946 0.022185
C37   C     C_R   0.075565 0.506633 0.607233 -0.180911
C38   C     C_R   0.015311 0.546344 0.653757 0.362222
C39   C     C_R   0.924410 0.459708 0.390015 0.497726
C40   C     C_R   0.992228 0.422691 0.348210 -0.197827
C41   C     C_R   0.085725 0.422188 0.387345 -0.119670
C42   C     C_R   0.113099 0.464528 0.468369 -0.111428
C43   C     C_R   0.151841 0.383699 0.343911 0.351408
C44   C     C_R   0.245038 0.395386 0.378615 0.503381
C45   C     C_3   0.401147 0.538605 0.924328 -0.010457
C46   C     C_R   0.204876 0.485813 0.493283 0.296932
C47   C     C_3   0.577289 0.558498 0.972387 0.742422
C48   C     C_3   0.559542 0.571204 0.067132 0.410136
C49   C     C_1   0.495018 0.500448 0.248650 -0.195101
C50   C     C_3   0.501450 0.500444 0.916874 -0.305972
H1    H     H_    0.455246 0.208281 0.498209 0.250865
H2    H     H_    0.538588 0.787614 0.563196 0.179417
H3    H     H_    0.388230 0.609152 0.907983 0.162770
H4    H     H_    0.610326 0.868007 0.666773 0.146881
H5    H     H_    0.970988 0.398920 0.281749 0.210858
H6    H     H_    0.758983 0.482439 0.444096 0.215228
H7    H     H_    0.146960 0.492639 0.642116 0.223628
H8    H     H_    0.476947 0.365674 0.070079 0.119697
N1    N     N_R   0.731690 0.552720 0.548990 -0.164844
N2    N     N_R   0.268300 0.447240 0.450950 -0.172601
O1    O     O_R   0.383120 0.605620 0.475300 -0.542286
O2    O     O_R   0.531890 0.639510 0.506740 -0.604977
O3    O     O_R   0.425580 0.483050 0.607130 -0.565952
O4    O     O_R   0.574360 0.516930 0.638570 -0.557956
O5    O     O_R   0.468110 0.360490 0.493260 -0.574442
O6    O     O_R   0.616880 0.394380 0.524700 -0.582115
O7    O     O_R   0.425640 0.483070 0.361430 -0.589301
O8    O     O_R   0.574420 0.516950 0.392870 -0.599678
Zn1   Zn    Zn3+2 0.400660 0.477370 0.479010 1.048918
Zn2   Zn    Zn3+2 0.599340 0.522630 0.520990 1.013746
O9    O     O_3   0.346715 0.615491 0.042411 -0.620616
C51   C     C_3   0.318483 0.619679 0.122102 -0.164483
H9    H     H_    0.316914 0.554837 0.151218 0.139668
H10   H     H_    0.247889 0.655952 0.109824 0.192657
H11   H     H_    0.364176 0.658043 0.171076 0.205278
Br1   Br    Br    0.303887 0.496966 0.829267 -0.412346
O10   O     O_3   0.335805 0.460726 0.026193 -0.657477
C52   C     C_3   0.238675 0.482732 0.998761 -0.093805
H12   H     H_    0.209907 0.430542 0.953751 0.211543
H13   H     H_    0.215269 0.547379 0.964361 0.229480
H14   H     H_    0.208526 0.482282 0.056176 0.128918
O11   O     O_3   0.617437 0.381239 0.104559 -0.508194
C53   C     C_3   0.623147 0.303621 0.153452 -0.259260
H15   H     H_    0.596199 0.248899 0.111028 0.149130
H16   H     H_    0.585953 0.316889 0.206123 0.130064
H17   H     H_    0.696489 0.281094 0.184622 0.178206
O12   O     O_3   0.223087 0.057913 0.528797 -0.566632
C54   C     C_3   0.188647 0.107208 0.450603 -0.183624
H18   H     H_    0.209050 0.072970 0.393534 0.152520
H19   H     H_    0.210539 0.174204 0.458662 0.180179
H20   H     H_    0.112321 0.115653 0.435709 0.172430
O13   O     O_3   0.752404 0.268041 0.584968 -0.545789
C55   C     C_3   0.782903 0.270095 0.507387 -0.228304
H21   H     H_    0.819422 0.328822 0.509754 0.179438
H22   H     H_    0.725478 0.275716 0.446887 0.109172
H23   H     H_    0.833649 0.211610 0.503777 0.164410
Br2   Br    Br    0.776044 0.945983 0.733676 -0.455085
O14   O     O_3   0.186938 0.907587 0.454959 -0.571338
C56   C     C_3   0.141303 0.882828 0.516895 -0.128938
H24   H     H_    0.169125 0.910716 0.582830 0.167702
H25   H     H_    0.145482 0.809720 0.521461 0.191930
H26   H     H_    0.067405 0.909784 0.495320 0.177152
Br3   Br    Br    0.228434 0.726635 0.379395 -0.442158
O15   O     O_3   0.353516 0.172569 0.578201 -0.617667
C57   C     C_3   0.373038 0.187208 0.669462 -0.229133
H27   H     H_    0.448512 0.179594 0.699272 0.150777
H28   H     H_    0.339193 0.142581 0.702500 0.168950
H29   H     H_    0.345211 0.256221 0.681245 0.212118
O16   O     O_3   0.802862 0.092643 0.630124 -0.531930
C58   C     C_3   0.824769 0.039259 0.561273 -0.215493
H30   H     H_    0.900817 0.026260 0.573078 0.199540
H31   H     H_    0.797430 0.071410 0.495794 0.099726
H32   H     H_    0.798450 0.974465 0.559368 0.181974
Br4   Br    Br    0.072587 0.610387 0.755477 -0.375015
Br5   Br    Br    0.236661 0.586533 0.566439 -0.425200
O17   O     O_3   0.314981 0.353342 0.343197 -0.596780
C59   C     C_3   0.299601 0.372911 0.252959 -0.161753
H33   H     H_    0.367250 0.370243 0.236785 0.157045
H34   H     H_    0.261592 0.440033 0.234538 0.147415
H35   H     H_    0.264091 0.321404 0.212156 0.196029
Br6   Br    Br    0.888457 0.566507 0.797074 -0.452439
O18   O     O_3   0.700468 0.612820 0.679673 -0.573834
C60   C     C_3   0.698400 0.704389 0.693563 -0.261327
H36   H     H_    0.637830 0.727468 0.719962 0.181396
H37   H     H_    0.691890 0.740746 0.631541 0.137188
H38   H     H_    0.760529 0.720194 0.743031 0.229186
O19   O     O_3   0.664514 0.504410 0.983910 -0.561696
C61   C     C_3   0.717598 0.522859 0.925600 0.040622
H39   H     H_    0.752072 0.582421 0.947613 0.207160
H40   H     H_    0.676496 0.531513 0.856803 0.152250
H41   H     H_    0.772241 0.466365 0.927054 0.172577
O20   O     O_3   0.834327 0.474652 0.340559 -0.579156
C62   C     C_3   0.802807 0.394135 0.307406 -0.290029
H42   H     H_    0.832981 0.336744 0.352142 0.090353
H43   H     H_    0.816630 0.380395 0.241945 0.224096
H44   H     H_    0.727147 0.401236 0.299087 0.215205
O21   O     O_3   0.124308 0.341514 0.264513 -0.606554
C63   C     C_3   0.126336 0.250931 0.280405 -0.344247
H45   H     H_    0.198007 0.219666 0.308741 0.175675
H46   H     H_    0.100756 0.218033 0.216940 0.213702
H47   H     H_    0.080236 0.239949 0.323243 0.150228
O22   O     O_3   0.586606 0.643192 0.938454 -0.601195
C64   C     C_3   0.509706 0.694664 0.884434 -0.271200
H48   H     H_    0.458536 0.722695 0.920454 0.209470
H49   H     H_    0.477767 0.661673 0.823555 0.156999
H50   H     H_    0.535043 0.752799 0.862215 0.203644
Br7   Br    Br    0.516854 0.693694 0.093817 -0.422696
Br8   Br    Br    0.677465 0.556071 0.157569 -0.274514
O23   O     O_3   0.446061 0.354545 0.910190 -0.600380
C65   C     C_3   0.455521 0.264742 0.935614 -0.311292
H51   H     H_    0.412195 0.257728 0.981919 0.183509
H52   H     H_    0.527346 0.235201 0.965040 0.172850
H53   H     H_    0.429129 0.225456 0.876520 0.183527
O24   O     O_3   0.607784 0.356636 0.943402 -0.553840
C66   C     C_3   0.608424 0.322003 0.858865 -0.237059
H54   H     H_    0.539923 0.323406 0.812037 0.171817
H55   H     H_    0.640539 0.252084 0.866141 0.183959
H56   H     H_    0.652176 0.358739 0.829450 0.173626

loop_
_geom_bond_atom_site_label_1
_geom_bond_atom_site_label_2
_ccdc_geom_bond_type
C10   C27   A    
C64   H50   S    
O12   C54   S    
C48   Br7   S    
C55   H21   S    
C66   H55   S    
C41   C42   A    
C36   C42   A    
C35   C36   A    
C9    C14   A    
C3    C6    S    
C1    O2    A    
C7    C8    T    
O10   C52   S    
O5    Zn1   S    
C25   C28   A    
C57   H28   S    
C47   O22   S    
C26   C27   A    
C29   C30   A    
C46   Br5   S    
C11   O14   S    
N2    Zn1   S    
C23   O6    A    
C36   C37   A    
C24   C26   A    
C59   H34   S    
C21   H4    S    
C12   O4    A    
C28   H1    S    
C52   H13   S    
C64   H48   S    
C60   H37   S    
C39   O20   S    
C10   C28   A    
C15   C16   A    
C20   O12   S    
C29   C33   A    
C3    C48   S    
C5    O23   S    
O17   C59   S    
O2    Zn2   S    
C64   H49   S    
C18   C19   A    
C42   C46   A    
C31   N1    A    
C9    C13   A    
C58   H30   S    
C14   H2    S    
O3    Zn1   S    
O20   C62   S    
C65   H53   S    
C29   Br6   S    
C62   H44   S    
O4    Zn2   S    
C31   H6    S    
C13   Br3   S    
C53   H16   S    
C8    C12   S    
C45   H3    S    
C55   H22   S    
C22   Br2   S    
C21   C22   A    
C61   H39   S    
C66   H56   S    
C41   C43   A    
C18   C25   A    
C51   H11   S    
O15   C57   S    
C47   C50   S    
C2    C45   S    
C57   H29   S    
O22   C64   S    
C32   C35   A    
C30   O18   S    
C60   H36   S    
C1    C9    S    
C24   C25   A    
C51   H10   S    
O16   C58   S    
C59   H35   S    
C34   O8    A    
C39   C40   A    
C12   O3    A    
C52   H12   S    
C51   H9    S    
C60   H38   S    
C17   C21   A    
C3    C4    S    
C1    O1    A    
O7    Zn1   S    
C35   C39   A    
C43   C44   A    
C37   C38   A    
C19   O15   S    
C47   C48   S    
C58   H32   S    
C54   H20   S    
C16   C20   A    
C40   H5    S    
C30   N1    A    
C53   H17   S    
C17   C18   A    
C27   O13   S    
C26   O16   S    
O24   C66   S    
C63   H46   S    
C40   C41   A    
C56   H25   S    
C54   H19   S    
O11   C53   S    
C55   H23   S    
C45   Br1   S    
C62   H42   S    
C22   C24   A    
C5    C50   S    
C53   H15   S    
C2    O9    S    
C61   H41   S    
O21   C63   S    
O1    Zn1   S    
C15   C17   A    
C34   C49   S    
C46   N2    A    
C65   H51   S    
C31   C32   A    
C7    C50   S    
C4    C5    S    
C63   H47   S    
C61   H40   S    
C34   O7    A    
C47   O19   S    
O19   C61   S    
C10   C23   S    
C57   H27   S    
C33   C38   A    
C56   H24   S    
C32   C33   A    
C23   O5    A    
C19   C20   A    
C2    C3    S    
O9    C51   S    
C2    O10   S    
C59   H33   S    
C11   C13   A    
C52   H14   S    
O6    Zn2   S    
C45   C50   S    
C44   N2    A    
C38   Br4   S    
C48   Br8   S    
O13   C55   S    
C43   O21   S    
C65   H52   S    
C6    C49   T    
C58   H31   S    
C11   C16   A    
C63   H45   S    
N1    Zn2   S    
C56   H26   S    
C4    O11   S    
C54   H18   S    
C44   O17   S    
O8    Zn2   S    
O14   C56   S    
C4    H8    S    
C66   H54   S    
C62   H43   S    
C14   C15   A    
O18   C60   S    
O23   C65   S    
C37   H7    S    
C5    O24   S    
