data_mof_unit_44951.cif
_audit_creation_date              2012-12-10T19:08:07-0500
_audit_creation_method            fapswitch 2.2
_symmetry_space_group_name_H-M    P1
_symmetry_Int_Tables_number       1
_space_group_crystal_system       triclinic
_cell_length_a                    9.036656
_cell_length_b                    10.958592
_cell_length_c                    9.685398
_cell_angle_alpha                 89.846723
_cell_angle_beta                  89.857728
_cell_angle_gamma                 92.712474
_cell_volume                      958.054214092

loop_
_atom_site_label
_atom_site_type_symbol
_atom_type_description
_atom_site_fract_x
_atom_site_fract_y
_atom_site_fract_z
_atom_type_partial_charge
C1    C     C_R   0.500182 0.263368 0.500355 0.805564
C2    C     C_R   0.496400 0.940820 0.370195 -0.032229
C3    C     C_R   0.498364 0.872218 0.495025 -0.120713
C4    C     C_R   0.499384 0.937967 0.618402 0.069302
C5    C     C_3   0.592317 0.930425 0.744935 0.034715
C6    C     C_3   0.596437 0.071946 0.746961 0.088392
C7    C     C_R   0.628305 0.514660 0.072397 0.251472
C8    C     C_R   0.379586 0.455085 0.075199 -0.005955
C9    C     C_R   0.379201 0.453637 0.926671 0.251757
C10   C     C_R   0.628945 0.512384 0.927452 0.278187
C11   C     C_3   0.751374 0.607588 0.921104 -0.446552
C12   C     C_R   0.221211 0.500247 0.500015 0.836937
C13   C     C_3   0.747781 0.612206 0.078621 -0.445266
C14   C     C_R   0.501297 0.737722 0.498899 0.847074
C15   C     C_R   0.778809 0.500403 0.499919 0.867438
C16   C     C_1   0.065733 0.500441 0.499999 -0.104898
C17   C     C_1   0.934264 0.500468 0.499827 -0.119038
C18   C     C_R   0.495342 0.063791 0.623037 0.004848
C19   C     C_R   0.495938 0.130941 0.500244 -0.155775
C20   C     C_R   0.492049 0.068177 0.374484 -0.167299
Cu1   Cu    Cu3+1 0.499990 0.499980 0.640670 1.036428
Cu2   Cu    Cu3+1 0.500010 0.500020 0.359330 0.971304
H1    H     H_    0.491976 0.118493 0.277929 0.202916
H2    H     H_    0.715992 0.691002 0.871789 0.219269
H3    H     H_    0.850342 0.579784 0.126760 0.241881
H4    H     H_    0.708496 0.699192 0.120219 0.239632
H5    H     H_    0.855247 0.571491 0.879240 0.234336
N1    N     N_R   0.500920 0.500930 0.147930 -0.248978
N2    N     N_R   0.500930 0.500890 0.852020 -0.216797
O1    O     O_R   0.500000 0.319640 0.618810 -0.545516
O2    O     O_R   0.500020 0.319680 0.381230 -0.611896
O3    O     O_R   0.288380 0.499980 0.618770 -0.554533
O4    O     O_R   0.288400 0.500020 0.381190 -0.590512
O5    O     O_R   0.499980 0.680320 0.618770 -0.542405
O6    O     O_R   0.500000 0.680360 0.381190 -0.615661
O7    O     O_R   0.711600 0.499980 0.618810 -0.560355
O8    O     O_R   0.711620 0.500020 0.381230 -0.575724
C21   C     C_2   0.516237 0.886687 0.233461 0.429195
H6    H     H_    0.441107 0.813740 0.197379 0.114880
O9    O     O_2   0.618467 0.924290 0.159863 -0.513853
I1    I     I_    0.449921 0.829628 0.888475 -0.312277
C22   C     C_2   0.744107 0.878987 0.727919 0.296092
H7    H     H_    0.819645 0.883319 0.814854 0.127542
O10   O     O_2   0.785703 0.836632 0.618822 -0.556801
I2    I     I_    0.503830 0.149133 0.930650 -0.240510
C23   C     C_2   0.744636 0.135212 0.709243 0.374657
H8    H     H_    0.799745 0.112269 0.613604 0.079890
O11   O     O_2   0.803426 0.212368 0.784418 -0.479849
C24   C     C_2   0.256314 0.390929 0.149055 0.504831
H9    H     H_    0.277816 0.314852 0.216680 0.082799
O12   O     O_2   0.129872 0.424419 0.137653 -0.538462
I3    I     I_    0.199653 0.342679 0.835364 -0.189484

loop_
_geom_bond_atom_site_label_1
_geom_bond_atom_site_label_2
_ccdc_geom_bond_type
C14   O5    A    
C7    C10   A    
C5    C22   S    
C6    I2    S    
C11   H5    S    
Cu1   O1    S    
C2    C21   S    
C19   C20   A    
C20   H1    S    
C9    N2    A    
C4    C18   A    
C7    C13   S    
C2    C3    A    
C12   O4    A    
Cu1   O7    S    
Cu2   N1    S    
Cu1   Cu2   S    
C12   O3    A    
C21   O9    D    
Cu2   O6    S    
C11   C13   S    
C10   N2    A    
C13   H3    S    
C21   H6    S    
C3    C14   S    
C22   O10   D    
C8    N1    A    
C1    O1    A    
C24   H9    S    
C9    I3    S    
C5    C6    S    
C6    C18   S    
Cu1   O3    S    
C23   O11   D    
C13   H4    S    
C1    C19   S    
C16   C17   T    
Cu2   O2    S    
C2    C20   A    
C3    C4    A    
C11   H2    S    
C1    O2    A    
C18   C19   A    
C10   C11   S    
C14   O6    A    
C15   C17   S    
Cu2   O4    S    
C5    I1    S    
C23   H8    S    
C8    C9    A    
Cu1   O5    S    
C6    C23   S    
C15   O7    A    
Cu2   O8    S    
Cu1   N2    S    
C8    C24   S    
C15   O8    A    
C7    N1    A    
C12   C16   S    
C22   H7    S    
C4    C5    S    
C24   O12   D    
