data_mof_unit_28253.cif
_audit_creation_date              2013-03-05T16:04:55-0500
_audit_creation_method            fapswitch 2.2
_symmetry_space_group_name_H-M    P1
_symmetry_Int_Tables_number       1
_space_group_crystal_system       triclinic
_cell_length_a                    8.852217
_cell_length_b                    15.268391
_cell_length_c                    19.135852
_cell_angle_alpha                 100.246331
_cell_angle_beta                  92.991495
_cell_angle_gamma                 94.830633
_cell_volume                      2530.14010014

loop_
_atom_site_label
_atom_site_type_symbol
_atom_site_description
_atom_site_fract_x
_atom_site_fract_y
_atom_site_fract_z
_atom_type_partial_charge
P1    P     P_3+3 0.061800 0.409390 0.339760 0.469731
O1    O     O_2   0.887710 0.436190 0.327560 -0.321384
O2    O     O_3   0.135370 0.443490 0.416520 -0.464577
O3    O     O_3   0.634420 0.609440 0.364670 -0.308542
O4    O     O_2   0.744236 0.530622 0.249164 -0.356031
O5    O     O_3   0.035947 0.290417 0.313880 -0.587362
O6    O     O_3   0.661067 0.686906 0.241426 -0.502268
C1    C     C_3   0.510200 0.799648 0.208382 -0.821624
H1    H     H_    0.435209 0.750899 0.169239 0.185198
P2    P     P_3+3 0.622760 0.718740 0.547830 0.552988
P3    P     P_3+3 0.097402 0.769938 0.386160 0.553274
O7    O     O_2   0.795290 0.730930 0.525800 -0.341598
O8    O     O_3   0.044470 0.660110 0.398750 -0.400158
O9    O     O_2   0.995045 0.829499 0.433382 -0.300216
O10   O     O_3   0.681246 0.765935 0.639282 -0.545799
O11   O     O_3   0.028666 0.773336 0.299189 -0.437223
C2    C     C_3   0.089456 0.705815 0.251849 0.493065
H2    H     H_    0.017467 0.641658 0.247826 0.123930
H3    H     H_    0.207033 0.695070 0.269390 -0.002192
C3    C     C_3   0.097830 0.732368 0.178528 -0.717199
H4    H     H_    0.152422 0.801612 0.184170 0.243738
C4    C     C_3   0.134594 0.788473 0.672727 -0.050731
C5    C     C_3   0.024552 0.812114 0.733603 -0.746649
H5    H     H_    0.923475 0.764687 0.716890 0.117283
Ba1   Ba    Ba6+2 0.843240 0.541620 0.463500 1.676840
C6    C     C_3   0.915061 0.247478 0.343192 0.310448
H6    H     H_    0.810415 0.276369 0.328087 0.126323
C7    C     C_3   0.892198 0.143638 0.309568 -0.651391
H7    H     H_    0.770158 0.128760 0.303984 0.175391
C8    C     C_3   0.590866 0.740785 0.692827 0.101332
H8    H     H_    0.471503 0.733744 0.672527 0.106043
C9    C     C_3   0.608591 0.816797 0.765902 -0.605492
P4    P     P_3+3 0.127890 0.590690 0.660240 0.543963
O12   O     O_2   0.301980 0.563840 0.672490 -0.295760
O13   O     O_3   0.054330 0.556590 0.583490 -0.343645
O14   O     O_3   0.555270 0.390630 0.635330 -0.355943
O15   O     O_3   0.206077 0.707312 0.673883 -0.612650
P5    P     P_3+3 0.095502 0.237226 0.626448 0.597408
O16   O     O_3   0.637720 0.384870 0.467990 -0.368831
O17   O     O_3   0.145220 0.339960 0.601250 -0.291958
O18   O     O_2   0.204525 0.184768 0.581133 -0.363659
O19   O     O_3   0.177556 0.227049 0.711906 -0.504628
Ba2   Ba    Ba6+2 0.346570 0.458460 0.536510 1.667822
P6    P     P_3+3 0.612075 0.586871 0.271653 0.539390
C10   C     C_3   0.566394 0.752896 0.268463 0.341182
H9    H     H_    0.463426 0.725559 0.291117 0.023969
H10   H     H_    0.439154 0.853003 0.229912 0.250070
O20   O     O_3   0.551980 0.615210 0.532020 -0.344140
C11   C     C_3   0.495933 0.224338 0.315663 0.092596
H11   H     H_    0.543065 0.290910 0.310643 0.157912
C12   C     C_3   0.510338 0.166377 0.240551 -0.847880
H12   H     H_    0.629763 0.174678 0.229140 0.219699
P7    P     P_3+3 0.570675 0.264723 0.460303 0.447936
O21   O     O_2   0.394410 0.269100 0.474240 -0.336470
O22   O     O_3   0.581043 0.199760 0.372541 -0.640144
H13   H     H_    0.170295 0.688384 0.145870 0.153482
C13   C     C_3   0.137664 0.283060 0.776045 0.173099
C14   C     C_3   0.184733 0.236521 0.839898 -0.652048
H14   H     H_    0.305619 0.230044 0.835862 0.189001
P8    P     P_3+3 0.597533 0.411327 0.727121 0.510611
C15   C     C_3   0.581018 0.240760 0.742059 0.143307
H15   H     H_    0.694900 0.256940 0.728194 0.175375
O23   O     O_2   0.490264 0.483069 0.748441 -0.285288
O24   O     O_3   0.514843 0.321528 0.764574 -0.589507
C16   C     C_3   0.591953 0.180601 0.802269 -0.441932
C17   C     C_R   0.986468 0.480270 0.055004 0.058595
C18   C     C_R   0.890946 0.439955 0.100120 0.008542
C19   C     C_R   0.734198 0.415952 0.074415 -0.042946
C20   C     C_R   0.684469 0.426721 0.005515 -0.137531
C21   C     C_R   0.782654 0.458572 0.959542 0.077515
C22   C     C_R   0.932592 0.487595 0.984065 0.031408
C23   C     C_R   0.731348 0.460819 0.889053 -0.123697
C24   C     C_R   0.830397 0.486525 0.839333 0.061270
C25   C     C_R   0.978887 0.524750 0.864333 0.026545
C26   C     C_R   0.027841 0.525131 0.937701 -0.011318
C27   C     C_R   0.786962 0.470388 0.765292 0.349713
C28   C     C_R   0.888095 0.499359 0.717634 -0.327108
C29   C     C_R   0.029696 0.548498 0.739638 0.155702
C30   C     C_R   0.078791 0.560439 0.816765 -0.024849
C31   C     C_R   0.137466 0.511155 0.079347 0.010738
C32   C     C_R   0.197508 0.503289 0.148923 0.046787
C33   C     C_R   0.106196 0.461695 0.195531 -0.155324
C34   C     C_R   0.958652 0.420909 0.165814 -0.078221
H16   H     H_    0.565742 0.410487 0.987163 0.176760
H17   H     H_    0.850970 0.486509 0.661646 0.151930
H18   H     H_    0.614647 0.438235 0.872600 0.160836
C35   C     C_R   0.220056 0.605224 0.850792 -0.104741
C36   C     C_R   0.260439 0.611727 0.924699 0.075866
C37   C     C_R   0.171651 0.563348 0.965500 0.015290
C38   C     C_R   0.227703 0.554729 0.034787 0.024704
C39   C     C_R   0.394409 0.662523 0.958479 -0.044384
C40   C     C_R   0.457613 0.645696 0.021629 -0.233358
C41   C     C_R   0.376053 0.590236 0.059279 0.115712
C42   C     C_R   0.352058 0.534994 0.169839 -0.032603
C43   C     C_R   0.439563 0.574316 0.122788 -0.272545
C44   C     C_R   0.418870 0.526056 0.236224 0.118524
C45   C     C_R   0.333607 0.479890 0.281030 -0.288779
C46   C     C_R   0.172702 0.455521 0.266648 0.194640
H19   H     H_    0.455976 0.713065 0.935321 0.220056
H20   H     H_    0.568617 0.678159 0.041955 0.162451
H21   H     H_    0.559274 0.593496 0.134339 0.209086
C47   C     C_R   0.709597 0.944052 0.533561 0.010777
C48   C     C_R   0.532239 0.799161 0.492453 0.199331
C49   C     C_R   0.395413 0.763359 0.451204 -0.445827
C50   C     C_R   0.304291 0.813654 0.414331 0.171696
C51   C     C_R   0.361783 0.900420 0.409241 -0.220013
C52   C     C_R   0.487541 0.944427 0.455799 -0.074974
C53   C     C_R   0.578742 0.894596 0.494871 0.107283
C54   C     C_R   0.633606 0.090683 0.509167 0.068611
C55   C     C_R   0.741010 0.039679 0.538648 0.152406
C56   C     C_R   0.662923 0.188998 0.518984 0.120890
C57   C     C_R   0.793222 0.229357 0.562458 -0.405859
C58   C     C_R   0.903669 0.179066 0.587878 0.387882
C59   C     C_R   0.877507 0.084999 0.574327 -0.229262
C60   C     C_R   0.499514 0.039916 0.474819 -0.206046
H22   H     H_    0.966485 0.047009 0.590523 0.200217
H23   H     H_    0.817877 0.301207 0.570091 0.146048
H24   H     H_    0.787885 0.907866 0.558985 0.217519
C61   C     C_2   0.654100 0.818170 0.327016 0.601326
H25   H     H_    0.652103 0.889558 0.330424 0.085469
O25   O     O_2   0.724892 0.790705 0.373427 -0.510975
C62   C     C_2   0.081492 0.801067 0.808234 1.057650
O26   O     O_2   0.030347 0.736998 0.831758 -0.640983
O27   O     O_R   0.170421 0.868067 0.856024 -0.681628
H26   H     H_    0.207837 0.922070 0.835985 0.376439
C63   C     C_2   0.968144 0.903924 0.737332 1.080458
O28   O     O_2   0.966056 0.954870 0.794117 -0.669818
O29   O     O_R   0.912277 0.929876 0.676197 -0.744452
H27   H     H_    0.886533 0.993393 0.684814 0.381107
C64   C     C_2   0.934872 0.268630 0.423215 0.482498
H28   H     H_    0.886916 0.326342 0.451421 0.038850
O30   O     O_2   0.018224 0.229115 0.456497 -0.617112
C65   C     C_2   0.938205 0.117394 0.232884 1.214287
O31   O     O_2   0.866858 0.142019 0.185076 -0.584129
O32   O     O_R   0.049966 0.060075 0.212577 -0.697403
H29   H     H_    0.089275 0.027225 0.249758 0.333644
C66   C     C_2   0.938837 0.078978 0.356032 0.633278
H30   H     H_    0.054019 0.063049 0.360438 0.089468
O33   O     O_2   0.845255 0.041107 0.387846 -0.600664
C67   C     C_2   0.628570 0.648888 0.701394 1.023966
O34   O     O_2   0.589933 0.585025 0.654475 -0.518962
O35   O     O_R   0.711884 0.633995 0.759901 -0.742741
H31   H     H_    0.818271 0.662188 0.761784 0.282684
C68   C     C_2   0.635497 0.838448 0.169581 0.826337
H32   H     H_    0.636129 0.818733 0.112360 -0.014386
O36   O     O_2   0.734304 0.894186 0.201111 -0.571233
C69   C     C_2   0.636506 0.909685 0.749987 0.698471
H33   H     H_    0.673505 0.963293 0.793726 0.008495
O37   O     O_2   0.610959 0.927515 0.691166 -0.475959
C70   C     C_2   0.726104 0.807301 0.825302 0.604747
H34   H     H_    0.820112 0.856214 0.841689 0.057840
O38   O     O_2   0.703448 0.754212 0.865365 -0.472112
C71   C     C_2   0.465247 0.824971 0.803691 0.670243
H35   H     H_    0.360054 0.807192 0.774664 -0.063539
O39   O     O_2   0.465799 0.859745 0.866606 -0.509218
C72   C     C_2   0.337052 0.225353 0.331618 1.187784
O40   O     O_2   0.250770 0.157585 0.322777 -0.697727
O41   O     O_R   0.296009 0.305051 0.365899 -0.799866
H36   H     H_    0.216583 0.295693 0.399994 0.390504
C73   C     C_2   0.464873 0.066211 0.233454 1.200405
O42   O     O_2   0.368167 0.028485 0.187596 -0.537860
O43   O     O_R   0.537320 0.013671 0.274786 -0.818784
H37   H     H_    0.580496 0.046500 0.322830 0.331032
C74   C     C_2   0.428885 0.202713 0.181226 1.195081
O44   O     O_2   0.451737 0.173372 0.119294 -0.484555
O45   O     O_R   0.327508 0.268026 0.196280 -0.847333
H38   H     H_    0.275032 0.282241 0.151874 0.350837
C75   C     C_2   0.227395 0.372387 0.785191 1.002554
O46   O     O_2   0.222940 0.414047 0.736678 -0.556493
O47   O     O_R   0.313987 0.407872 0.848842 -0.854031
H39   H     H_    0.368076 0.468739 0.850666 0.349726
C76   C     C_2   0.973766 0.301430 0.774396 0.833427
O48   O     O_2   0.921524 0.325887 0.722215 -0.691854
O49   O     O_R   0.884045 0.303540 0.832366 -0.851309
H40   H     H_    0.912589 0.266732 0.868656 0.272750
C77   C     C_2   0.175002 0.286607 0.915447 0.516723
H41   H     H_    0.121827 0.348548 0.925772 0.062146
O50   O     O_2   0.229437 0.258057 0.965917 -0.495073
C78   C     C_2   0.108604 0.143760 0.831156 0.732441
H42   H     H_    0.053054 0.120367 0.874582 0.059744
O51   O     O_2   0.111676 0.093102 0.774571 -0.502941
C79   C     C_2   0.506926 0.192528 0.672025 0.514026
H43   H     H_    0.451466 0.229859 0.637066 0.120588
O52   O     O_2   0.522004 0.113750 0.651019 -0.557285
C80   C     C_2   0.733222 0.131315 0.795553 0.598188
H44   H     H_    0.776630 0.102451 0.839552 0.072456
O53   O     O_2   0.800338 0.122929 0.741173 -0.615166
C81   C     C_2   0.461955 0.108365 0.797355 0.524197
H45   H     H_    0.378838 0.095099 0.752704 0.184408
O54   O     O_2   0.449135 0.062965 0.843687 -0.523707
C82   C     C_2   0.596787 0.237748 0.876398 0.678037
H46   H     H_    0.532050 0.295009 0.886028 0.066927
O55   O     O_2   0.664457 0.217239 0.927568 -0.549217
C83   C     C_2   0.611948 0.387398 0.117866 0.599438
H47   H     H_    0.621972 0.402589 0.174926 0.093158
O56   O     O_2   0.491943 0.349054 0.089372 -0.547599
C84   C     C_2   0.918532 0.331809 0.181717 0.625352
H48   H     H_    0.003763 0.284639 0.175780 0.076866
O57   O     O_2   0.797164 0.311107 0.204104 -0.616091
C85   C     C_2   0.335767 0.639402 0.810522 0.594687
H49   H     H_    0.305182 0.675174 0.772100 0.024215
O58   O     O_2   0.468620 0.630242 0.822958 -0.549892
C86   C     C_2   0.419687 0.460733 0.344551 0.701688
H50   H     H_    0.378115 0.471286 0.396436 0.106817
O59   O     O_2   0.547750 0.437766 0.340552 -0.566618
C87   C     C_2   0.340957 0.670548 0.444669 1.016394
O60   O     O_2   0.325462 0.624615 0.385738 -0.739170
O61   O     O_R   0.283893 0.639410 0.502656 -0.756597
H51   H     H_    0.215750 0.582530 0.487260 0.387793
C88   C     C_2   0.297158 0.946819 0.354142 0.513970
H52   H     H_    0.330863 0.016143 0.354993 0.105277
O62   O     O_2   0.215741 0.907602 0.303295 -0.578434
C89   C     C_2   0.353524 0.066925 0.498292 1.085522
O63   O     O_2   0.300055 0.035174 0.547212 -0.524372
O64   O     O_R   0.262446 0.109449 0.456384 -0.772849
H53   H     H_    0.152544 0.100220 0.467464 0.349816
C90   C     C_2   0.945476 0.726012 0.139200 0.731122
H54   H     H_    0.910834 0.783117 0.118059 0.040936
O65   O     O_2   0.863140 0.656042 0.127595 -0.610025
C91   C     C_2   0.261757 0.863876 0.674111 1.023232
O66   O     O_2   0.272006 0.932487 0.718339 -0.597955
O67   O     O_R   0.361643 0.858256 0.620116 -0.704430
H55   H     H_    0.345813 0.798184 0.587734 0.262069
C92   C     C_2   0.060432 0.783786 0.601201 1.060557
O68   O     O_2   0.036504 0.850806 0.576962 -0.603964
O69   O     O_R   0.052339 0.703550 0.556721 -0.702279
H56   H     H_    0.042776 0.713421 0.507790 0.375205

loop_
_geom_bond_atom_site_label_1
_geom_bond_atom_site_label_2
_geom_bond_distance
_ccdc_geom_bond_type
C83   O56   1.220576 D    
C35   C36   1.424475 A    
C18   C34   1.450821 A    
C63   O28   1.220652 D    
C24   C25   1.415330 A    
C11   C72   1.455467 S    
C69   H33   1.077164 S    
C3    H13   1.103690 S    
C92   O68   1.225654 D    
Ba1   Ba2   4.819387 S    
C91   O67   1.390454 S    
O3    Ba1   2.952985 S    
C80   H44   1.085131 S    
O32   H29   1.004686 S    
C13   C75   1.496617 S    
O5    C6    1.401755 S    
C89   O63   1.226554 D    
C86   O59   1.216731 D    
O2    Ba2   2.848330 S    
C6    H6    1.105664 S    
O61   H51   1.003539 S    
O10   C8    1.418176 S    
P8    O23   1.524674 D    
O6    C10   1.409694 S    
C7    H7    1.080787 S    
C69   O37   1.218620 D    
C67   O35   1.371764 S    
P5    O19   1.792045 S    
P2    O10   1.801052 S    
C54   C56   1.478164 A    
C8    H8    1.096396 S    
O49   H40   1.003199 S    
P3    O9    1.548039 D    
C87   O61   1.385000 S    
P4    C29   1.967427 S    
C80   O53   1.217456 D    
O11   C2    1.408946 S    
O47   H39   1.002957 S    
C84   H48   1.082683 S    
C51   C88   1.487236 S    
C12   C73   1.528450 S    
C2    C3    1.531862 S    
C60   C89   1.458219 S    
C81   O54   1.222837 D    
P1    O1    1.643021 D    
C3    C90   1.496911 S    
C84   O57   1.215209 D    
C79   H43   1.077924 S    
C49   C50   1.405673 A    
C2    H3    1.111200 S    
C19   C20   1.409918 A    
O17   Ba2   2.910331 S    
C56   C57   1.414205 A    
C1    H1    1.105568 S    
C11   C12   1.565537 S    
P3    C50   1.911363 S    
C52   C53   1.425652 A    
C47   C53   1.422810 A    
C14   C78   1.493756 S    
C49   C87   1.439353 S    
C9    C71   1.496319 S    
C34   C84   1.465158 S    
O13   Ba2   3.187766 S    
Ba2   O20   2.897969 S    
C55   C59   1.417733 A    
C90   O65   1.220419 D    
C15   H15   1.075636 S    
C6    C64   1.505474 S    
C23   C24   1.410669 A    
C13   C76   1.500526 S    
C10   C61   1.494355 S    
C75   O47   1.400896 S    
C17   C18   1.420151 A    
C16   C81   1.512492 S    
C28   H17   1.082580 S    
C41   C43   1.381646 A    
O29   H27   1.001951 S    
P1    Ba1   3.586284 S    
C74   O45   1.399398 S    
C33   C46   1.476099 A    
O8    Ba1   2.909726 S    
O67   H55   1.005975 S    
C35   C85   1.432042 S    
C45   C86   1.486961 S    
O19   C13   1.443991 S    
C30   C35   1.438025 A    
C91   O66   1.217579 D    
C76   O49   1.394969 S    
C45   C46   1.440966 A    
C5    C62   1.531985 S    
C62   O26   1.211561 D    
C89   O64   1.385861 S    
C16   C80   1.512460 S    
C22   C26   1.415686 A    
C8    C67   1.503987 S    
C25   C26   1.446394 A    
C7    C66   1.509403 S    
C7    C65   1.536362 S    
P4    Ba2   3.586831 S    
C16   C82   1.523940 S    
O2    Ba1   3.186921 S    
C27   C28   1.410970 A    
P5    O18   1.515039 D    
C68   O36   1.220734 D    
C39   C40   1.379663 A    
C9    C69   1.505899 S    
P5    C58   1.897116 S    
C26   C37   1.392071 A    
C29   C30   1.491409 A    
C85   H49   1.029153 S    
O16   Ba2   3.152875 S    
O3    P6    1.749204 S    
C90   H54   1.084191 S    
C28   C29   1.409095 A    
C4    O15   1.441136 S    
C4    C92   1.474086 S    
P8    C27   1.881958 S    
C32   C33   1.429139 A    
C82   H46   1.079273 S    
C92   O69   1.355841 S    
C81   H45   1.077099 S    
P1    O2    1.556842 S    
C73   O43   1.392767 S    
O41   H36   1.002268 S    
C15   O24   1.417229 S    
C64   O30   1.215179 D    
C18   C19   1.442428 A    
C82   O55   1.222743 D    
P6    C44   1.906427 S    
C8    C9    1.641961 S    
C15   C16   1.600135 S    
C21   C23   1.407844 A    
C65   O31   1.216256 D    
C66   O33   1.220018 D    
P3    O11   1.753007 S    
Ba2   O21   2.998604 S    
C59   H22   1.080884 S    
C17   C22   1.441562 A    
C36   C39   1.418626 A    
C5    H5    1.098118 S    
C52   C60   1.431968 A    
C44   C45   1.412309 A    
C3    H4    1.109441 S    
C2    H2    1.111084 S    
C15   C79   1.498111 S    
C9    C70   1.534854 S    
C12   C74   1.523959 S    
C1    C68   1.504734 S    
O6    P6    1.756253 S    
C67   O34   1.214168 D    
C42   C44   1.406780 A    
Ba1   O20   3.153720 S    
P2    C48   1.952632 S    
C48   C53   1.472366 A    
C61   O25   1.214903 D    
P2    O7    1.610017 D    
Ba1   O13   2.847738 S    
C5    C63   1.518372 S    
P2    Ba1   3.659502 S    
C75   O46   1.215922 D    
O4    P6    1.543302 D    
C88   H52   1.072291 S    
C42   C43   1.399249 A    
C88   O62   1.213071 D    
C25   C30   1.444631 A    
P2    O20   1.620526 S    
O45   H38   1.013087 S    
C24   C27   1.420915 A    
C70   O38   1.222598 D    
C47   C55   1.448050 A    
C71   O39   1.225937 D    
P7    O22   1.803184 S    
C62   O27   1.399615 S    
C48   C49   1.422715 A    
C21   C22   1.392925 A    
C76   O48   1.209924 D    
C40   H20   1.082592 S    
C38   C41   1.401275 A    
P4    O15   1.823743 S    
C58   C59   1.410282 A    
C50   C51   1.400378 A    
C4    C91   1.536577 S    
C74   O44   1.223733 D    
C63   O29   1.381211 S    
C87   O60   1.211892 D    
C14   H14   1.088399 S    
C4    C5    1.569811 S    
C14   C77   1.520863 S    
O12   Ba2   2.870576 S    
O69   H56   0.975020 S    
C31   C32   1.436428 A    
O14   P8    1.743310 S    
C47   H24   1.071056 S    
P1    C46   1.948005 S    
C23   H18   1.073632 S    
C61   H25   1.081984 S    
P7    O21   1.601534 D    
O43   H37   1.004825 S    
C17   C31   1.405966 A    
C66   H30   1.070498 S    
O7    Ba1   2.998285 S    
C6    C7    1.593147 S    
C70   H34   1.064603 S    
P8    O24   1.778949 S    
C57   H23   1.082497 S    
C68   H32   1.083180 S    
C39   H19   1.079327 S    
C73   O42   1.222048 D    
C72   O41   1.363240 S    
C64   H28   1.079672 S    
C37   C38   1.423322 A    
C1    H10   1.105836 S    
C12   H12   1.092129 S    
C20   H16   1.084435 S    
C11   O22   1.414365 S    
C54   C55   1.433057 A    
Ba1   O16   2.898513 S    
P5    O17   1.749748 S    
C32   C42   1.424301 A    
P3    O8    1.764296 S    
P7    C56   1.946720 S    
C13   C14   1.573887 S    
O16   P7    1.857581 S    
C77   O50   1.221296 D    
C40   C41   1.387711 A    
P4    O13   1.556646 S    
P4    O12   1.643421 D    
C83   H47   1.072479 S    
O1    Ba1   2.870021 S    
C57   C58   1.411323 A    
C1    C10   1.539777 S    
O64   H53   1.010133 S    
C31   C38   1.411103 A    
C20   C21   1.388055 A    
C79   O52   1.219337 D    
C54   C60   1.422740 A    
C77   H41   1.083162 S    
C78   H42   1.085626 S    
C10   H9    1.111068 S    
C72   O40   1.213977 D    
C36   C37   1.394427 A    
C85   O58   1.212276 D    
C11   H11   1.088105 S    
C51   C52   1.429004 A    
P1    O5    1.787592 S    
C65   O32   1.400233 S    
O35   H31   0.998087 S    
O14   Ba2   2.952273 S    
C19   C83   1.481877 S    
C86   H50   1.066959 S    
C33   C34   1.441023 A    
C71   H35   1.048398 S    
C43   H21   1.076032 S    
O27   H26   1.008150 S    
C78   O51   1.216606 D    
