data_mof_unit_64675.cif
_audit_creation_date              2012-12-10T19:40:12-0500
_audit_creation_method            fapswitch 2.2
_symmetry_space_group_name_H-M    P1
_symmetry_Int_Tables_number       1
_space_group_crystal_system       triclinic
_cell_length_a                    30.518103
_cell_length_b                    21.655939
_cell_length_c                    21.641099
_cell_angle_alpha                 89.865838
_cell_angle_beta                  134.870847
_cell_angle_gamma                 90.117709
_cell_volume                      10136.1812222

loop_
_atom_site_label
_atom_site_type_symbol
_atom_type_description
_atom_site_fract_x
_atom_site_fract_y
_atom_site_fract_z
_atom_type_partial_charge
C1    C     C_R   0.120004 0.499304 0.119741 0.885242
C2    C     C_3   0.417556 0.785716 0.007540 -0.546016
C3    C     C_R   0.998483 0.314531 0.998203 -0.027471
C4    C     C_R   0.498636 0.185477 0.998009 -0.032881
C5    C     C_R   0.501599 0.814509 0.001301 -0.032091
C6    C     C_3   0.914129 0.086450 0.128711 1.036415
C7    C     C_3   0.413733 0.413923 0.128751 1.034070
C8    C     C_R   0.029531 0.718381 0.979576 -0.171339
C9    C     C_R   0.959709 0.282416 0.918441 -0.178102
C10   C     C_R   0.460049 0.217753 0.918266 -0.177667
C11   C     C_R   0.539732 0.782421 0.997461 -0.179097
C12   C     C_R   0.029737 0.783107 0.979951 -0.173965
C13   C     C_R   0.217549 0.550175 0.239157 -0.075518
C14   C     C_R   0.959492 0.217686 0.918413 -0.143796
C15   C     C_R   0.459737 0.282490 0.918260 -0.144622
C16   C     C_R   0.539941 0.717686 0.997847 -0.170006
C17   C     C_R   0.000243 0.814933 0.998833 -0.080409
C18   C     C_R   0.999513 0.185437 0.998176 -0.095876
C19   C     C_R   0.499483 0.314578 0.998038 -0.096839
C20   C     C_R   0.500540 0.685412 0.999203 -0.089017
C21   C     C_R   0.972448 0.781345 0.017766 -0.010098
C22   C     C_R   0.037468 0.218943 0.074772 0.014634
C23   C     C_R   0.537323 0.280921 0.074609 0.015138
C24   C     C_R   0.717478 0.949568 0.238820 -0.078005
C25   C     C_R   0.463207 0.718868 0.001480 -0.007766
C26   C     C_R   0.185679 0.499830 0.183720 -0.038193
C27   C     C_R   0.685673 0.000147 0.183701 -0.037517
C28   C     C_R   0.217536 0.453668 0.183207 -0.175198
C29   C     C_R   0.717574 0.046572 0.183392 -0.175240
C30   C     C_R   0.281910 0.453663 0.247451 -0.103134
C31   C     C_R   0.781948 0.046551 0.247595 -0.103309
C32   C     C_R   0.313728 0.500920 0.309963 -0.123634
C33   C     C_R   0.620003 0.000674 0.119736 0.884289
C34   C     C_R   0.813720 0.999024 0.309869 -0.123385
C35   C     C_R   0.281061 0.551058 0.301169 0.020465
C36   C     C_R   0.780991 0.948680 0.300811 0.020460
C37   C     C_3   0.284195 0.580546 0.366578 1.151685
C38   C     C_3   0.784102 0.918617 0.366061 1.152046
C39   C     C_3   0.214024 0.579493 0.297932 -0.536506
C40   C     C_3   0.713931 0.919673 0.297438 -0.538114
C41   C     C_R   0.000337 0.620077 0.000227 0.884246
C42   C     C_R   0.999831 0.380046 0.999854 0.877825
C43   C     C_R   0.499832 0.119956 0.999734 0.880902
C44   C     C_3   0.938819 0.785635 0.044054 1.149992
C45   C     C_R   0.500240 0.880039 0.000262 0.882568
C46   C     C_R   0.780875 0.539052 0.816792 0.116584
C47   C     C_R   0.281703 0.043722 0.814985 0.102392
C48   C     C_R   0.814646 0.498443 0.814698 -0.081269
C49   C     C_R   0.313987 0.999872 0.813089 -0.090252
C50   C     C_R   0.782753 0.456348 0.745134 -0.192363
C51   C     C_R   0.282288 0.961301 0.740274 -0.186155
C52   C     C_R   0.717979 0.456163 0.680480 -0.187084
C53   C     C_R   0.217966 0.961208 0.675960 -0.189334
C54   C     C_R   0.685545 0.499358 0.684391 -0.089466
C55   C     C_3   0.085204 0.214796 0.171601 1.174153
C56   C     C_R   0.185996 0.001096 0.683727 -0.075861
C57   C     C_R   0.718967 0.540298 0.753394 0.107827
C58   C     C_R   0.218199 0.044818 0.750210 0.146321
C59   C     C_3   0.714112 0.592463 0.792991 -0.388085
C60   C     C_3   0.213506 0.059001 0.812888 -0.477291
C61   C     C_3   0.785354 0.591614 0.865216 -0.490340
C62   C     C_3   0.283667 0.057538 0.884475 -0.436166
C63   C     C_R   0.000250 0.999305 0.880145 0.898688
C64   C     C_R   0.500250 0.500632 0.880143 0.899556
C65   C     C_R   0.000006 0.880165 0.000011 0.873345
C66   C     C_3   0.584655 0.284886 0.171423 1.173060
C67   C     C_R   0.999954 0.119958 0.999808 0.907723
C68   C     C_R   0.499929 0.380045 0.999769 0.907763
C69   C     C_R   0.500053 0.619949 0.999914 0.869234
C70   C     C_R   0.880080 0.499991 0.880202 0.874831
C71   C     C_R   0.379871 0.999225 0.879937 0.871246
C72   C     C_R   0.999861 0.999825 0.119770 0.929534
C73   C     C_R   0.499858 0.500175 0.119768 0.924134
C74   C     C_R   0.499996 0.500107 0.380047 0.891097
C75   C     C_R   0.000050 0.000015 0.380100 0.891711
C76   C     C_R   0.379754 0.500063 0.379597 0.920369
C77   C     C_3   0.416440 0.714614 0.005188 1.167246
C78   C     C_R   0.879751 0.999909 0.379574 0.919387
C79   C     C_R   0.500540 0.499854 0.620719 0.948729
C80   C     C_R   0.000517 0.000035 0.620690 0.946308
C81   C     C_R   0.619968 0.499948 0.619783 0.863011
C82   C     C_R   0.120119 0.000098 0.620329 0.857959
C83   C     C_R   0.972669 0.047057 0.754621 -0.040854
C84   C     C_R   0.473081 0.452519 0.755283 -0.041099
C85   C     C_R   0.001874 0.999848 0.816020 -0.155956
C86   C     C_R   0.501889 0.500028 0.816039 -0.155425
C87   C     C_R   0.039804 0.957865 0.822316 -0.261267
C88   C     C_3   0.940035 0.714544 0.046370 -0.535320
C89   C     C_R   0.539550 0.542279 0.821874 -0.256993
C90   C     C_R   0.540179 0.542301 0.758159 0.628596
C91   C     C_R   0.040369 0.957786 0.758527 0.630580
C92   C     C_R   0.504379 0.498693 0.690489 -0.168436
C93   C     C_R   0.004190 0.001032 0.690290 -0.174241
C94   C     C_R   0.973974 0.719405 0.020309 -0.057302
C95   C     C_R   0.036032 0.280881 0.074820 -0.062499
C96   C     C_R   0.535981 0.218979 0.074622 -0.063034
C97   C     C_R   0.464668 0.780806 0.004399 -0.065120
C98   C     C_R   0.474864 0.451489 0.693611 -0.110749
C99   C     C_3   0.084069 0.285893 0.171725 -0.541749
C100  C     C_R   0.974375 0.048024 0.692879 -0.113427
C101  C     C_3   0.409999 0.428291 0.623750 -0.492068
C102  C     C_3   0.909353 0.070716 0.622788 -0.491381
C103  C     C_3   0.907212 0.068970 0.690747 1.174170
C104  C     C_3   0.407772 0.430101 0.691609 1.174047
C105  C     C_R   0.961880 0.037137 0.180905 -0.162095
C106  C     C_R   0.461546 0.463234 0.180764 -0.158167
C107  C     C_R   0.999965 0.998422 0.185350 -0.016945
C108  C     C_R   0.499914 0.501698 0.185295 -0.013098
C109  C     C_R   0.040005 0.958552 0.257468 -0.100295
C110  C     C_3   0.583609 0.213780 0.171517 -0.542636
C111  C     C_R   0.540063 0.541518 0.257327 -0.119742
C112  C     C_R   0.539869 0.541734 0.321886 -0.160993
C113  C     C_R   0.039906 0.958456 0.322116 -0.159002
C114  C     C_R   0.500980 0.500701 0.315510 -0.034081
C115  C     C_R   0.001221 0.999648 0.315746 -0.034745
C116  C     C_R   0.463047 0.461783 0.244311 -0.161762
C117  C     C_R   0.963485 0.038704 0.244549 -0.162218
C118  C     C_3   0.414977 0.412714 0.201153 1.009395
C119  C     C_3   0.915471 0.087771 0.201203 1.011124
C120  C     C_R   0.001330 0.685834 0.000550 -0.044971
F1    F     F_    0.574028 0.585465 0.761272 -0.660372
F2    F     F_    0.861549 0.067207 0.175263 -0.647126
F3    F     F_    0.936214 0.139701 0.122890 -0.598093
F4    F     F_    0.859004 0.065432 0.049143 -0.604445
F5    F     F_    0.358672 0.434912 0.049036 -0.604249
F6    F     F_    0.435785 0.360621 0.123267 -0.600065
F7    F     F_    0.880186 0.810414 0.979513 -0.632142
F8    F     F_    0.063306 0.187479 0.203391 -0.606660
F9    F     F_    0.562286 0.311809 0.202610 -0.608177
F10   F     F_    0.360792 0.690004 0.930128 -0.625671
F11   F     F_    0.973719 0.812763 0.124947 -0.672404
F12   F     F_    0.074614 0.914990 0.762211 -0.642204
F13   F     F_    0.140486 0.190302 0.205841 -0.642959
F14   F     F_    0.640065 0.309653 0.206272 -0.642754
F15   F     F_    0.439425 0.687318 0.081181 -0.660766
F16   F     F_    0.308825 0.639504 0.389034 -0.630597
F17   F     F_    0.311070 0.543228 0.437847 -0.679928
F18   F     F_    0.811038 0.955518 0.437552 -0.680280
F19   F     F_    0.808649 0.859672 0.388167 -0.631448
F20   F     F_    0.866118 0.025642 0.672993 -0.621501
F21   F     F_    0.901133 0.126659 0.711379 -0.672319
F22   F     F_    0.402045 0.372396 0.712916 -0.671737
F23   F     F_    0.366370 0.473134 0.673261 -0.619778
F24   F     F_    0.361040 0.433314 0.174999 -0.647198
F25   F     F_    0.437456 0.358298 0.248518 -0.605232
F26   F     F_    0.938040 0.142226 0.248292 -0.602891
H1    H     H_    0.051874 0.694089 0.964240 0.174293
H2    H     H_    0.307091 0.929450 0.735428 0.169134
H3    H     H_    0.693523 0.423351 0.627386 0.177251
H4    H     H_    0.193375 0.929442 0.621680 0.164868
H5    H     H_    0.070397 0.927351 0.263117 0.169818
H6    H     H_    0.570652 0.572551 0.263017 0.161130
H7    H     H_    0.969287 0.694822 0.112845 0.217609
H8    H     H_    0.127264 0.307744 0.197373 0.199249
H9    H     H_    0.626977 0.192139 0.197670 0.199988
H10   H     H_    0.437180 0.805353 0.070234 0.218232
H11   H     H_    0.192813 0.416339 0.136274 0.163351
H12   H     H_    0.929414 0.307108 0.856962 0.165043
H13   H     H_    0.692892 0.084100 0.136659 0.163453
H14   H     H_    0.306563 0.416289 0.249720 0.209507
H15   H     H_    0.806637 0.084117 0.250041 0.209310
H16   H     H_    0.692506 0.578187 0.815892 0.243274
H17   H     H_    0.694478 0.634694 0.751771 0.227085
H18   H     H_    0.191498 0.021080 0.817914 0.221536
H19   H     H_    0.194017 0.105712 0.801927 0.223634
H20   H     H_    0.805010 0.577525 0.930111 0.225389
H21   H     H_    0.806695 0.633042 0.864815 0.210575
H22   H     H_    0.302484 0.018637 0.931061 0.225678
H23   H     H_    0.429915 0.193184 0.856789 0.170959
H24   H     H_    0.304672 0.103379 0.914980 0.221381
H25   H     H_    0.066343 0.923550 0.873792 0.178671
H26   H     H_    0.565798 0.576850 0.872891 0.177680
H27   H     H_    0.408141 0.380781 0.602657 0.213268
H28   H     H_    0.378665 0.462113 0.569915 0.246737
H29   H     H_    0.878219 0.036625 0.569385 0.246945
H30   H     H_    0.907160 0.118190 0.601091 0.212176
H31   H     H_    0.052034 0.808029 0.964802 0.157086
H32   H     H_    0.929106 0.193102 0.856937 0.207485
H33   H     H_    0.429474 0.307207 0.856807 0.209628
H34   H     H_    0.569546 0.807136 0.995322 0.167605
H35   H     H_    0.569823 0.693112 0.995867 0.163007
H36   H     H_    0.570380 0.572872 0.376801 0.157023
H37   H     H_    0.070272 0.927210 0.377035 0.154705
H38   H     H_    0.893791 0.692932 0.994864 0.192611
H39   H     H_    0.065245 0.305505 0.196523 0.232242
H40   H     H_    0.564444 0.193856 0.195787 0.230596
H41   H     H_    0.374029 0.807492 0.947731 0.205176
H42   H     H_    0.192775 0.626180 0.274763 0.209746
H43   H     H_    0.194436 0.548091 0.314170 0.221826
H44   H     H_    0.694391 0.950747 0.313871 0.221945
H45   H     H_    0.692618 0.873009 0.273996 0.208596
H46   H     H_    0.807653 0.423654 0.741412 0.165520
O1    O     O_R   0.091640 0.500000 0.143360 -0.618375
O2    O     O_R   0.551700 0.500000 0.143310 -0.620082
O3    O     O_R   0.499940 0.551750 0.408310 -0.627766
O4    O     O_R   0.499940 0.448250 0.408310 -0.578958
O5    O     O_R   0.999940 0.051750 0.408310 -0.575933
O6    O     O_R   0.999940 0.948250 0.408310 -0.629484
O7    O     O_R   0.408380 0.551720 0.408370 -0.590182
O8    O     O_R   0.408380 0.448280 0.408370 -0.615896
O9    O     O_R   0.908380 0.051720 0.408370 -0.616253
O10   O     O_R   0.908380 0.948280 0.408370 -0.590498
O11   O     O_R   0.500050 0.551670 0.591650 -0.555577
O12   O     O_R   0.591640 1.000000 0.143360 -0.617901
O13   O     O_R   0.500050 0.448330 0.591650 -0.625125
O14   O     O_R   0.000050 0.051670 0.591650 -0.629733
O15   O     O_R   0.000050 0.948330 0.591650 -0.551887
O16   O     O_R   0.591610 0.551710 0.591590 -0.618922
O17   O     O_R   0.591610 0.448290 0.591590 -0.621430
O18   O     O_R   0.091610 0.051710 0.591590 -0.620302
O19   O     O_R   0.091610 0.948290 0.591590 -0.610679
O20   O     O_R   0.091570 0.500000 0.039860 -0.610242
O21   O     O_R   0.591570 0.000000 0.039860 -0.610759
O22   O     O_R   0.000030 0.591610 0.051750 -0.615489
O23   O     O_R   0.051710 0.908380 0.051700 -0.630243
O24   O     O_R   0.000030 0.408390 0.051750 -0.605037
O25   O     O_R   0.500030 0.091610 0.051750 -0.608848
O26   O     O_R   0.500030 0.908390 0.051750 -0.613094
O27   O     O_R   0.999970 0.591600 0.948260 -0.621654
O28   O     O_R   0.999970 0.408400 0.948260 -0.626020
O29   O     O_R   0.499970 0.091600 0.948260 -0.621626
O30   O     O_R   0.499970 0.908400 0.948260 -0.621675
O31   O     O_R   0.908410 0.500000 0.960140 -0.614862
O32   O     O_R   0.408410 1.000000 0.960140 -0.621370
O33   O     O_R   0.908350 0.500000 0.856640 -0.618845
O34   O     O_R   0.051710 0.091620 0.051700 -0.591081
O35   O     O_R   0.408350 1.000000 0.856640 -0.616871
O36   O     O_R   0.948280 1.000000 0.856590 -0.568615
O37   O     O_R   0.448280 0.500000 0.856590 -0.567433
O38   O     O_R   0.051720 1.000000 0.960100 -0.633313
O39   O     O_R   0.551720 0.500000 0.960100 -0.633439
O40   O     O_R   0.948270 0.908380 0.948190 -0.586692
O41   O     O_R   0.948270 0.091620 0.948190 -0.597697
O42   O     O_R   0.448270 0.408380 0.948190 -0.598256
O43   O     O_R   0.448270 0.591620 0.948190 -0.579261
O44   O     O_R   0.551710 0.408380 0.051700 -0.590344
O45   O     O_R   0.551710 0.591620 0.051700 -0.635768
O46   O     O_R   0.948260 0.000000 0.039800 -0.567672
O47   O     O_R   0.448260 0.500000 0.039800 -0.566509
O48   O     O_R   0.051700 1.000000 0.143310 -0.619754
Zn1   Zn    Zn3+2 0.000030 0.500000 0.069110 1.010277
Zn2   Zn    Zn3+2 0.500000 0.430940 0.499990 1.066820
Zn3   Zn    Zn3+2 1.000000 0.069060 0.499990 1.065245
Zn4   Zn    Zn3+2 1.000000 0.930940 0.499990 1.097572
Zn5   Zn    Zn3+2 0.500030 0.000000 0.069110 1.004994
Zn6   Zn    Zn3+2 0.999950 0.500000 0.930890 1.016488
Zn7   Zn    Zn3+2 0.499950 0.000000 0.930890 1.018256
Zn8   Zn    Zn3+2 0.930930 1.000000 0.930840 1.160079
Zn9   Zn    Zn3+2 0.430930 0.500000 0.930840 1.169633
Zn10  Zn    Zn3+2 0.069060 0.000000 0.069060 1.060034
Zn11  Zn    Zn3+2 0.569060 0.500000 0.069060 1.056588
Zn12  Zn    Zn3+2 0.500000 0.569060 0.499990 1.086490

loop_
_geom_bond_atom_site_label_1
_geom_bond_atom_site_label_2
_ccdc_geom_bond_type
C62   H22   S    
C31   H15   S    
C3    C42   S    
O48   Zn10  S    
C87   C91   A    
C27   C29   A    
C22   C95   A    
C14   C18   A    
C81   O17   A    
C111  C112  A    
C24   C27   A    
C6    F4    S    
O39   Zn11  S    
C111  H6    S    
C47   C62   S    
C112  C114  A    
C22   C55   S    
C92   C98   A    
C44   F7    S    
C113  H37   S    
C27   C33   S    
C119  F26   S    
C30   H14   S    
C80   O14   A    
C105  C107  A    
C8    C120  A    
C24   C36   A    
C83   C103  S    
O22   Zn1   S    
C25   C77   S    
C45   O30   A    
C51   H2    S    
C23   C66   S    
C43   O29   A    
O25   Zn5   S    
O18   Zn3   S    
C13   C35   A    
C104  F22   S    
C118  F24   S    
C10   C15   A    
C117  C119  S    
C64   O37   A    
C39   H43   S    
C95   C99   S    
C75   O6    A    
C88   H38   S    
O47   Zn9   S    
C20   C25   A    
C102  H30   S    
C74   C114  S    
C99   H8    S    
O24   Zn1   S    
C104  F23   S    
C23   C96   A    
O35   Zn7   S    
C60   C62   S    
C61   H20   S    
O16   Zn12  S    
C49   C51   A    
O21   Zn7   S    
C2    H41   S    
C110  H9    S    
C68   O44   A    
C24   C40   S    
C4    C96   A    
C94   C120  A    
C80   C93   S    
C67   O41   A    
O14   Zn3   S    
C2    C97   S    
C56   C58   A    
C52   H3    S    
C115  C117  A    
C12   C17   A    
O23   Zn10  S    
C50   C52   A    
C38   F19   S    
C70   O33   A    
C30   C32   A    
C64   O39   A    
C50   H46   S    
O12   Zn5   S    
C16   C20   A    
C66   F9    S    
C106  C108  A    
C48   C50   A    
C12   H31   S    
O10   Zn4   S    
C41   C120  S    
C37   F17   S    
C73   O2    A    
C63   C85   S    
C1    O20   A    
C45   O26   A    
C107  C109  A    
C7    C118  S    
C105  C117  A    
C101  H28   S    
C43   O25   A    
O1    Zn1   S    
C6    F3    S    
C103  F21   S    
O42   Zn9   S    
C64   C86   S    
C41   O27   A    
C21   C94   A    
C52   C54   A    
C58   C60   S    
C74   O4    A    
C85   C87   A    
C62   H24   S    
C46   C48   A    
C59   C61   S    
C101  H27   S    
C46   C61   S    
O26   Zn5   S    
C66   F14   S    
C59   H17   S    
C89   H26   S    
C29   H13   S    
C76   O8    A    
C42   O28   A    
C48   C70   S    
C33   O21   A    
C16   H35   S    
C73   C108  S    
C112  H36   S    
C91   F12   S    
O29   Zn7   S    
C67   O34   A    
O6    Zn4   S    
C18   C67   S    
C55   F13   S    
C96   C110  S    
C86   C89   A    
C7    F5    S    
C106  C116  A    
C10   H23   S    
C55   C99   S    
C15   C19   A    
C9    C14   A    
C32   C35   A    
C32   C76   S    
C3    C9    A    
C91   C93   A    
C21   C44   S    
O30   Zn7   S    
O32   Zn5   S    
O40   Zn8   S    
C90   C92   A    
C72   C107  S    
C8    C12   A    
C87   H25   S    
O3    Zn12  S    
C80   O15   A    
C72   O48   A    
C70   O31   A    
C38   F18   S    
O27   Zn6   S    
C19   C68   S    
C1    O1    A    
C66   C110  S    
C5    C11   A    
C93   C100  A    
C79   C92   S    
C14   H32   S    
C68   O42   A    
C63   O38   A    
C39   H42   S    
C78   O9    A    
C25   C97   A    
C17   C65   S    
C83   C85   A    
C5    C97   A    
C101  C104  S    
C79   O11   A    
C83   C100  A    
C81   O16   A    
C46   C57   A    
C1    C26   S    
C84   C104  S    
C90   F1    S    
C72   O46   A    
C13   C26   A    
C57   C59   S    
C75   C115  S    
O43   Zn9   S    
O44   Zn11  S    
C4    C10   A    
O13   Zn2   S    
O8    Zn2   S    
C6    C119  S    
C99   H39   S    
C31   C34   A    
C19   C23   A    
C100  C102  S    
C53   C56   A    
O33   Zn6   S    
O34   Zn10  S    
C73   O47   A    
O28   Zn6   S    
C74   O3    A    
C110  H40   S    
C2    H10   S    
C71   O32   A    
C65   O40   A    
C35   C37   S    
C18   C22   A    
C71   O35   A    
O19   Zn4   S    
O20   Zn6   S    
C119  F2    S    
C82   O18   A    
C78   O10   A    
C7    C106  S    
C84   C86   A    
C76   O7    A    
O17   Zn2   S    
C82   O19   A    
C75   O5    A    
C114  C116  A    
O41   Zn8   S    
C56   C82   S    
C63   O36   A    
O36   Zn8   S    
C4    C43   S    
C109  C113  A    
C47   C49   A    
C98   C101  S    
C33   O12   A    
C26   C28   A    
C60   H19   S    
O9    Zn3   S    
C108  C111  A    
C84   C98   A    
C88   H7    S    
C36   C38   S    
C15   H33   S    
C102  H29   S    
C37   C39   S    
C37   F16   S    
O38   Zn10  S    
O15   Zn4   S    
C34   C78   S    
C47   C58   A    
C38   C40   S    
C41   O22   A    
C53   H4    S    
C40   H45   S    
C5    C45   S    
C9    H12   S    
O31   Zn1   S    
C65   O23   A    
C28   C30   A    
C28   H11   S    
C60   H18   S    
C6    C105  S    
C116  C118  S    
C34   C36   A    
C77   F10   S    
C7    F6    S    
C69   O43   A    
C102  C103  S    
C20   C69   S    
C17   C21   A    
C13   C39   S    
C11   C16   A    
C42   O24   A    
C44   F11   S    
C51   C53   A    
C103  F20   S    
O11   Zn12  S    
C8    H1    S    
C118  F25   S    
O7    Zn12  S    
C109  H5    S    
C40   H44   S    
C55   F8    S    
O5    Zn3   S    
C29   C31   A    
C49   C71   S    
O4    Zn2   S    
C59   H16   S    
C88   C94   S    
C2    C77   S    
O2    Zn11  S    
O45   Zn11  S    
C3    C95   A    
C11   H34   S    
C77   F15   S    
C61   H21   S    
C89   C90   A    
C44   C88   S    
C69   O45   A    
C54   C81   S    
O37   Zn9   S    
C79   O13   A    
C113  C115  A    
C54   C57   A    
O46   Zn8   S    
