data_mof_unit_57001.cif
_audit_creation_date              2012-12-11T16:35:15-0500
_audit_creation_method            fapswitch 2.2
_symmetry_space_group_name_H-M    P1
_symmetry_Int_Tables_number       1
_space_group_crystal_system       triclinic
_cell_length_a                    6.997875
_cell_length_b                    17.489978
_cell_length_c                    19.685557
_cell_angle_alpha                 108.820131
_cell_angle_beta                  91.037335
_cell_angle_gamma                 90.583311
_cell_volume                      2279.85305194

loop_
_atom_site_label
_atom_site_type_symbol
_atom_type_description
_atom_site_fract_x
_atom_site_fract_y
_atom_site_fract_z
_atom_type_partial_charge
O1    O     O_R   0.505700 0.440210 0.561730 -0.516503
O2    O     O_R   0.169350 0.406300 0.412660 -0.565879
O3    O     O_R   0.005650 0.559790 0.438270 -0.519826
C1    C     C_R   0.338466 0.383740 0.384923 0.850956
O4    O     O_R   0.175560 0.430650 0.559600 -0.527192
O5    O     O_R   0.011900 0.584320 0.586250 -0.505861
C2    C     C_R   0.344129 0.415779 0.580896 0.828718
O6    O     O_R   0.499450 0.415680 0.413750 -0.525291
O7    O     O_3   0.341370 0.550390 0.508570 -0.342169
V1    V     V_3+5 0.063940 0.490650 0.498410 1.628128
O8    O     O_R   0.682570 0.593700 0.587340 -0.523995
C3    C     C_R   0.855312 0.617204 0.614422 0.848157
O9    O     O_R   0.676370 0.569350 0.440400 -0.519007
C4    C     C_R   0.843483 0.582634 0.417874 0.825494
V2    V     V_3+5 0.564750 0.509350 0.501590 1.683114
O10   O     O_3   0.837190 0.449610 0.491430 -0.384980
C5    C     C_R   0.954139 0.638976 0.250333 0.438595
C6    C     C_R   0.939629 0.593427 0.298055 0.211529
C7    C     C_R   0.849146 0.627143 0.365115 -0.299320
C8    C     C_R   0.765057 0.703877 0.381432 0.343203
C9    C     C_R   0.780712 0.748687 0.333880 0.382128
C10   C     C_R   0.873988 0.716264 0.268239 -0.057855
C11   C     C_R   0.730446 0.779110 0.181385 0.450952
C12   C     C_R   0.740974 0.840789 0.150398 0.384254
C13   C     C_R   0.917940 0.860141 0.126434 -0.377709
C14   C     C_R   0.082181 0.826576 0.148579 0.357939
C15   C     C_R   0.067277 0.794944 0.205787 0.471120
C16   C     C_R   0.890837 0.764050 0.218057 -0.150873
C17   C     C_R   0.803697 0.904702 0.746267 0.335817
C18   C     C_R   0.824140 0.923601 0.683114 0.282304
C19   C     C_R   0.906778 0.867127 0.623333 0.286258
C20   C     C_R   0.935488 0.787947 0.623532 0.321699
C21   C     C_R   0.890567 0.765120 0.685011 -0.146003
C22   C     C_R   0.859952 0.828079 0.750255 -0.163962
C23   C     C_R   0.881732 0.683251 0.684280 -0.026922
C24   C     C_R   0.898771 0.665979 0.750788 -0.105453
C25   C     C_R   0.891636 0.731582 0.817018 -0.092365
C26   C     C_R   0.886794 0.813172 0.816709 -0.044560
C27   C     C_R   0.928039 0.586128 0.754939 0.338756
C28   C     C_R   0.962678 0.574102 0.821187 0.374528
C29   C     C_R   0.930719 0.637078 0.884940 0.287547
C30   C     C_R   0.877739 0.712718 0.881896 0.223737
C31   C     C_R   0.382798 0.214015 0.377487 0.261950
C32   C     C_R   0.357085 0.132672 0.374523 0.251023
C33   C     C_R   0.322784 0.072718 0.307543 0.339727
C34   C     C_R   0.345056 0.092251 0.245078 -0.185632
C35   C     C_R   0.377122 0.172502 0.246419 -0.077945
C36   C     C_R   0.369293 0.235516 0.313442 -0.041788
C37   C     C_R   0.411309 0.189745 0.181830 -0.047637
C38   C     C_R   0.405375 0.272291 0.183278 -0.136332
C39   C     C_R   0.394905 0.336573 0.250439 -0.086467
C40   C     C_R   0.359799 0.317548 0.314908 -0.077328
C41   C     C_R   0.398285 0.293626 0.119447 0.309777
C42   C     C_R   0.436868 0.372574 0.120695 0.324544
C43   C     C_R   0.464837 0.434089 0.186843 0.161613
C44   C     C_R   0.422725 0.418358 0.250896 0.302804
H1    H     H_    0.327404 0.043539 0.195055 0.194305
C45   C     C_R   0.454610 0.362338 0.749888 0.454454
C46   C     C_R   0.429560 0.406859 0.702107 0.343818
C47   C     C_R   0.351678 0.369396 0.632274 -0.274040
C48   C     C_R   0.277809 0.288943 0.614124 0.338053
C49   C     C_R   0.302317 0.246043 0.662447 -0.121953
H2    H     H_    0.247816 0.184465 0.647729 0.186864
C50   C     C_R   0.393177 0.281001 0.729387 -0.107320
C51   C     C_R   0.241210 0.214092 0.809230 0.413462
C52   C     C_R   0.245131 0.153195 0.841479 0.341260
C53   C     C_R   0.418834 0.137105 0.871561 -0.347845
C54   C     C_R   0.584847 0.175411 0.857194 0.451225
C55   C     C_R   0.581954 0.206509 0.799468 0.417090
C56   C     C_R   0.406867 0.232555 0.779111 -0.212431
O11   O     O_R   0.273230 0.084330 0.086440 -0.536022
O12   O     O_R   0.596660 0.069390 0.940470 -0.507448
O13   O     O_R   0.760270 0.915710 0.913690 -0.522408
C57   C     C_R   0.427567 0.084149 0.918456 0.883223
O14   O     O_R   0.603330 0.093680 0.087390 -0.539331
O15   O     O_R   0.766990 0.940160 0.061660 -0.496889
C58   C     C_R   0.433485 0.119774 0.113154 0.744250
O16   O     O_R   0.266510 0.059870 0.938470 -0.501644
O17   O     O_3   0.431050 0.949630 0.991510 -0.367415
V3    V     V_3+5 0.708490 0.009340 0.001580 1.702345
O18   O     O_R   0.096270 0.930570 0.059390 -0.550427
C59   C     C_R   0.928478 0.914681 0.080735 0.825735
O19   O     O_R   0.089600 0.906290 0.912460 -0.553300
C60   C     C_R   0.916421 0.883189 0.884796 0.801194
V4    V     V_3+5 0.207670 0.990600 0.998190 1.635608
O20   O     O_3   0.935250 0.050360 0.008480 -0.345172
O21   O     O_3   0.042439 0.609237 0.184847 -0.570753
H3    H     H_    0.098878 0.556074 0.179677 0.367160
O22   O     O_3   0.704102 0.958491 0.799810 -0.589476
H4    H     H_    0.596234 0.927141 0.810370 0.279909
O23   O     O_3   0.759136 0.997442 0.681763 -0.583030
H5    H     H_    0.728364 0.993667 0.631467 0.318459
O24   O     O_3   0.962134 0.887302 0.564148 -0.552416
H6    H     H_    0.989481 0.946151 0.579083 0.324351
Cl1   Cl    Cl    0.073487 0.727748 0.552599 -0.526251
Cl2   Cl    Cl    0.923657 0.495567 0.681419 -0.547338
O25   O     O_3   0.013375 0.497724 0.821043 -0.537798
H7    H     H_    0.065487 0.500298 0.868736 0.388960
Cl3   Cl    Cl    0.739598 0.770980 0.953493 -0.575384
O26   O     O_3   0.526003 0.510776 0.190570 -0.620591
H8    H     H_    0.606252 0.506723 0.148628 0.350530
O27   O     O_3   0.438022 0.271973 0.441294 -0.667712
H9    H     H_    0.489902 0.245992 0.475380 0.338652
O28   O     O_3   0.367396 0.114049 0.437571 -0.615732
H10   H     H_    0.409183 0.057499 0.426676 0.339290
O29   O     O_3   0.010341 0.515862 0.276357 -0.635876
H11   H     H_    0.954472 0.484372 0.304982 0.291035
O30   O     O_3   0.270529 0.994283 0.300688 -0.575091
H12   H     H_    0.204562 0.993943 0.344678 0.338393
Cl4   Cl    Cl    0.285771 0.231657 0.040176 -0.545187
O31   O     O_3   0.434587 0.388365 0.056216 -0.548445
H13   H     H_    0.401150 0.445589 0.064967 0.356490
O32   O     O_3   0.416710 0.482172 0.314440 -0.634973
H14   H     H_    0.415732 0.534598 0.305274 0.357928
Cl5   Cl    Cl    0.554161 0.409679 0.836655 -0.377110
Cl6   Cl    Cl    0.473044 0.512329 0.733085 -0.549568
O33   O     O_3   0.179510 0.249321 0.550839 -0.601059
H15   H     H_    0.151388 0.286968 0.524115 0.315019
Cl7   Cl    Cl    0.067775 0.289178 0.833526 -0.368241
Cl8   Cl    Cl    0.641714 0.745635 0.462413 -0.463507
Cl9   Cl    Cl    0.048542 0.086316 0.826314 -0.503177
Cl10  Cl    Cl    0.769584 0.207872 0.922617 -0.372266
O34   O     O_3   0.748526 0.209107 0.764337 -0.548631
H16   H     H_    0.721216 0.223809 0.720659 0.321834
Cl11  Cl    Cl    0.693196 0.848256 0.358878 -0.436750
Cl12  Cl    Cl    0.547670 0.705373 0.153802 -0.394085
Cl13  Cl    Cl    0.560583 0.912535 0.171069 -0.520445
O35   O     O_3   0.249612 0.816290 0.111911 -0.532631
H17   H     H_    0.217682 0.805044 0.060335 0.343278
Cl14  Cl    Cl    0.261300 0.798638 0.264599 -0.408219
Cl15  Cl    Cl    0.936138 0.619664 0.968841 -0.436299

loop_
_geom_bond_atom_site_label_1
_geom_bond_atom_site_label_2
_ccdc_geom_bond_type
C41   Cl4   S    
C43   C44   A    
O24   H6    S    
C29   C30   A    
C42   C43   A    
O31   H13   S    
O17   V4    S    
C1    O6    A    
O35   H17   S    
C17   O22   S    
O25   H7    S    
C32   O28   S    
O34   H16   S    
C35   C37   A    
C41   C42   A    
C14   C15   A    
C25   C26   A    
C1    C40   S    
O19   C60   A    
C24   C25   A    
C39   C44   A    
C55   C56   A    
V4    O20   S    
C18   C19   A    
O29   H11   S    
C55   O34   S    
C51   C56   A    
O30   H12   S    
C6    C7    A    
C25   C30   A    
C49   C50   A    
O9    C4    A    
O11   V4    S    
O8    V2    S    
C7    C8    A    
C46   Cl6   S    
C8    Cl8   S    
C43   O26   S    
C12   Cl13  S    
V3    O20   S    
C11   C12   A    
O1    V2    S    
C50   C56   S    
O7    V1    S    
O13   C60   A    
C33   O30   S    
C52   C53   A    
C46   C47   A    
C22   C26   A    
C9    C10   A    
O27   H9    S    
O28   H10   S    
C21   C22   A    
C45   C50   A    
C38   C41   A    
C48   O33   S    
C39   C40   A    
C35   C36   A    
C12   C13   A    
O12   C57   A    
O15   C59   A    
O23   H5    S    
C29   Cl15  S    
C54   C55   A    
C38   C39   A    
C45   C46   A    
C19   O24   S    
C28   O25   S    
C17   C22   A    
O18   C59   A    
C53   C54   A    
C47   C48   A    
C23   C24   A    
O2    C1    A    
C31   C32   A    
C6    O29   S    
C17   C18   A    
O14   V3    S    
C19   C20   A    
C44   O32   S    
C49   H2    S    
C5    C6    A    
C51   Cl7   S    
C52   Cl9   S    
C53   C57   S    
C14   O35   S    
C11   C16   A    
C3    C23   S    
O14   C58   A    
O3    C4    A    
C11   Cl12  S    
O16   V4    S    
C28   C29   A    
O19   V4    S    
C51   C52   A    
O6    V2    S    
O9    V2    S    
C34   H1    S    
C45   Cl5   S    
C54   Cl10  S    
O2    V1    S    
C2    C47   S    
O11   C58   A    
C32   C33   A    
O4    C2    A    
O32   H14   S    
C31   C36   A    
C34   C35   A    
C26   C60   S    
O1    C2    A    
C4    C7    S    
C24   C27   A    
O15   V3    S    
C18   O23   S    
O5    V1    S    
O8    C3    A    
C5    C10   A    
C20   C21   A    
C13   C14   A    
C31   O27   S    
O4    V1    S    
O12   V3    S    
O3    V1    S    
V1    O10   S    
O33   H15   S    
O5    C3    A    
C13   C59   S    
O26   H8    S    
C21   C23   A    
O13   V3    S    
C37   C58   S    
C42   O31   S    
O7    V2    S    
C48   C49   A    
C27   Cl2   S    
C5    O21   S    
O17   V3    S    
C27   C28   A    
C33   C34   A    
C36   C40   A    
C20   Cl1   S    
C8    C9    A    
O21   H3    S    
C37   C38   A    
C57   O16   A    
C15   C16   A    
C15   Cl14  S    
C10   C16   S    
O22   H4    S    
C30   Cl3   S    
C9    Cl11  S    
O18   V4    S    
V2    O10   S    
