data_mof_unit_23503.cif
_audit_creation_date              2012-10-26T21:33:00-0400
_audit_creation_method            fapswitch 2.2
_symmetry_space_group_name_H-M    P1
_symmetry_Int_Tables_number       1
_space_group_crystal_system       triclinic
_cell_length_a                    28.364875
_cell_length_b                    18.385448
_cell_length_c                    17.030981
_cell_angle_alpha                 90.258339
_cell_angle_beta                  60.459755
_cell_angle_gamma                 90.243501
_cell_volume                      7727.04081949

loop_
_atom_site_label
_atom_site_type_symbol
_atom_type_description
_atom_site_fract_x
_atom_site_fract_y
_atom_site_fract_z
_atom_type_partial_charge
C1    C     C_R   0.703332 0.272758 0.675082 0.935263
C2    C     C_R   0.968703 0.636823 0.445201 -0.392003
C3    C     C_R   0.068999 0.895049 0.938244 0.931265
C4    C     C_R   0.577812 0.593990 0.929744 0.950953
C5    C     C_R   0.431803 0.394287 0.060909 0.924879
C6    C     C_R   0.422019 0.593687 0.070537 0.950516
C7    C     C_R   0.568892 0.394973 0.938332 0.924691
C8    C     C_R   0.560658 0.007692 0.465352 0.006724
C9    C     C_R   0.468467 0.007296 0.443694 0.012190
C10   C     C_R   0.057189 0.506874 0.477032 0.010139
C11   C     C_R   0.965450 0.507050 0.454450 0.009669
C12   C     C_R   0.531986 0.072506 0.474874 0.034519
C13   C     C_R   0.964391 0.377019 0.464029 -0.386371
C14   C     C_R   0.494920 0.942681 0.440488 0.047010
C15   C     C_R   0.491163 0.073539 0.449174 0.028292
C16   C     C_R   0.545883 0.945795 0.435401 0.043144
C17   C     C_R   0.026922 0.570772 0.491551 0.036356
C18   C     C_R   0.992387 0.442540 0.449111 0.045561
C19   C     C_R   0.986607 0.572711 0.465101 0.044609
C20   C     C_R   0.043147 0.445753 0.444501 0.041926
C21   C     C_R   0.633440 0.938111 0.471170 -0.007429
C22   C     C_R   0.397321 0.069808 0.430061 -0.007964
C23   C     C_R   0.388129 0.939303 0.467826 0.005187
C24   C     C_R   0.034297 0.627930 0.538305 -0.388584
C25   C     C_R   0.613402 0.065822 0.526410 0.007579
C26   C     C_R   0.132207 0.438393 0.475873 -0.010423
C27   C     C_R   0.896251 0.570253 0.436183 0.002031
C28   C     C_R   0.886775 0.439144 0.472012 0.003496
C29   C     C_R   0.111417 0.564971 0.535172 0.002099
C30   C     C_R   0.671954 0.936727 0.503797 -0.100969
C31   C     C_R   0.343997 0.066751 0.440426 -0.099415
C32   C     C_R   0.338064 0.937997 0.465494 -0.105229
C33   C     C_R   0.660129 0.063900 0.538149 -0.089537
C34   C     C_R   0.171621 0.436890 0.506230 -0.102130
C35   C     C_R   0.580655 0.887593 0.404521 -0.378578
C36   C     C_R   0.843968 0.566971 0.442174 -0.100981
C37   C     C_R   0.837680 0.438009 0.466792 -0.107040
C38   C     C_R   0.159599 0.563751 0.542304 -0.091439
C39   C     C_R   0.684839 0.999198 0.534177 -0.332424
C40   C     C_R   0.318314 0.001084 0.449379 -0.328256
C41   C     C_R   0.185087 0.499227 0.536081 -0.331463
C42   C     C_R   0.818740 0.501169 0.449045 -0.327865
C43   C     C_R   0.602900 0.004012 0.486933 -0.068227
C44   C     C_R   0.418362 0.005220 0.445117 -0.069557
C45   C     C_R   0.100548 0.503510 0.495535 -0.069253
C46   C     C_R   0.472920 0.137073 0.427820 -0.387355
C47   C     C_R   0.916506 0.505303 0.452218 -0.066796
C48   C     C_R   0.121861 0.379780 0.428137 0.486590
C49   C     C_R   0.928463 0.635371 0.418281 0.509768
C50   C     C_R   0.907965 0.378347 0.497060 0.517701
C51   C     C_R   0.074372 0.625144 0.565127 0.509927
C52   C     C_R   0.622978 0.878718 0.424565 0.485650
C53   C     C_R   0.429881 0.134611 0.407493 0.546753
C54   C     C_R   0.409600 0.879049 0.493075 0.516988
C55   C     C_R   0.577363 0.127065 0.551772 0.509841
C56   C     C_3   0.125676 0.256020 0.385828 0.101980
C57   C     C_R   0.466153 0.877455 0.458885 -0.385842
C58   C     C_3   0.148948 0.182568 0.388950 -0.726242
C59   C     C_3   0.954442 0.754402 0.358700 0.099541
C60   C     C_3   0.944361 0.813211 0.306352 -0.760999
C61   C     C_3   0.897869 0.278894 0.592672 0.052868
C62   C     C_3   0.855797 0.235483 0.671733 -0.738757
C63   C     C_3   0.044573 0.738726 0.639753 0.103142
C64   C     C_3   0.056645 0.795397 0.692788 -0.766750
C65   C     C_3   0.625592 0.754045 0.386586 0.102191
C66   C     C_3   0.647757 0.680671 0.393159 -0.725818
C67   C     C_3   0.449824 0.255221 0.345846 0.140716
C68   C     C_R   0.540057 0.130975 0.519069 -0.379667
C69   C     C_3   0.427454 0.302858 0.430433 -0.861178
C70   C     C_3   0.399749 0.780521 0.589826 0.050646
C71   C     C_3   0.357711 0.737806 0.669719 -0.735695
C72   C     C_3   0.547241 0.241409 0.624401 0.106892
C73   C     C_3   0.558720 0.297909 0.678423 -0.764343
C74   C     C_3   0.659312 0.381966 0.097674 0.147557
C75   C     C_3   0.612124 0.430762 0.159172 -0.756842
C76   C     C_3   0.374919 0.738856 0.882264 0.109780
C77   C     C_3   0.433200 0.714140 0.823382 -0.807359
C78   C     C_3   0.343339 0.384460 0.901180 0.167694
C79   C     C_R   0.703487 0.241011 0.971998 -0.257695
C80   C     C_3   0.391670 0.430326 0.836563 -0.746877
C81   C     C_3   0.626741 0.744057 0.125232 0.114862
C82   C     C_3   0.568814 0.721766 0.191570 -0.819727
C83   C     C_3   0.156971 0.883264 0.099970 0.164561
C84   C     C_3   0.108122 0.928644 0.163678 -0.758085
C85   C     C_3   0.872406 0.233702 0.884258 0.111728
C86   C     C_3   0.930589 0.208799 0.824878 -0.807700
C87   C     C_3   0.843243 0.883785 0.897720 0.166571
C88   C     C_3   0.892442 0.928781 0.834161 -0.751997
C89   C     C_3   0.126960 0.243338 0.124604 0.116508
C90   C     C_R   0.267731 0.716810 0.059821 -0.259720
C91   C     C_3   0.069152 0.220525 0.190880 -0.820477
C92   C     C_3   0.734826 0.096636 0.872105 0.137404
C93   C     C_3   0.755192 0.051558 0.786379 -0.838369
C94   C     C_3   0.165766 0.687018 0.239519 0.131165
C95   C     C_3   0.135636 0.695672 0.341211 -0.801520
C96   C     C_3   0.266332 0.102834 0.125313 0.130530
C97   C     C_3   0.237670 0.042014 0.192769 -0.837878
C98   C     C_3   0.836847 0.686089 0.760788 0.140680
C99   C     C_3   0.869657 0.694464 0.658955 -0.816416
C100  C     C_3   0.236448 0.601130 0.869184 0.131684
C101  C     C_R   0.294603 0.246239 0.029551 -0.282972
C102  C     C_3   0.258096 0.554360 0.784629 -0.833076
C103  C     C_3   0.648726 0.194543 0.245731 0.185172
C104  C     C_3   0.667431 0.147500 0.298456 -0.869027
C105  C     C_3   0.766538 0.602267 0.125186 0.128994
C106  C     C_3   0.738570 0.541080 0.192401 -0.838732
C107  C     C_3   0.337401 0.184798 0.760543 0.146314
C108  C     C_3   0.372185 0.193408 0.658958 -0.821097
C109  C     C_3   0.562744 0.208976 0.035849 0.081244
C110  C     C_3   0.515582 0.188017 0.126962 -0.795667
C111  C     C_3   0.300312 0.532992 0.092921 0.118852
C112  C     C_R   0.299795 0.735004 0.323464 0.912017
C113  C     C_R   0.732193 0.717614 0.940232 -0.257961
C114  C     C_3   0.253875 0.515608 0.075212 -0.911043
C115  C     C_3   0.426752 0.201555 0.959137 0.092229
C116  C     C_3   0.478403 0.181778 0.873440 -0.795435
C117  C     C_3   0.697956 0.533794 0.912588 0.117265
C118  C     C_3   0.743874 0.518510 0.932071 -0.905810
C119  C     C_3   0.072251 0.701848 0.036126 0.098566
C120  C     C_3   0.016882 0.683330 0.114797 -0.802877
C121  C     C_3   0.801750 0.027699 0.096471 0.119648
C122  C     C_3   0.751175 0.012415 0.089420 -0.903190
C123  C     C_3   0.925905 0.700995 0.968016 0.094906
C124  C     C_R   0.205441 0.744201 0.969793 -0.277253
C125  C     C_3   0.980986 0.680988 0.889736 -0.806122
C126  C     C_3   0.198420 0.033748 0.911808 0.117966
C127  C     C_3   0.244045 0.018046 0.931891 -0.904360
C128  C     C_R   0.765350 0.212276 0.062732 -0.234517
C129  C     C_R   0.794058 0.745573 0.030429 -0.278076
C130  C     C_R   0.232599 0.217250 0.939698 -0.259419
C131  C     C_R   0.751404 0.197582 0.932161 0.289251
C132  C     C_R   0.214561 0.745508 0.106941 0.280336
C133  C     C_R   0.246301 0.203823 0.070206 0.301922
C134  C     C_R   0.785715 0.745315 0.892759 0.273158
C135  C     C_R   0.253767 0.701583 0.929461 0.294627
C136  C     C_R   0.296317 0.273650 0.325071 0.933737
C137  C     C_R   0.712380 0.241341 0.109734 0.301048
C138  C     C_R   0.745823 0.703029 0.070610 0.301136
C139  C     C_R   0.286117 0.244885 0.891952 0.278353
C140  C     C_R   0.785574 0.195356 0.970259 0.396710
C141  C     C_R   0.187580 0.767966 0.060143 0.350260
C142  C     C_R   0.211956 0.202051 0.032594 0.416311
C143  C     C_R   0.812447 0.768701 0.939868 0.350881
C144  C     C_R   0.288086 0.700152 0.967267 0.413193
C145  C     C_R   0.685795 0.264774 0.062416 0.333628
C146  C     C_R   0.711475 0.702008 0.033043 0.418502
C147  C     C_R   0.700263 0.734912 0.676641 0.927286
C148  C     C_R   0.312843 0.268849 0.938783 0.352321
C149  C     C_R   0.623597 0.296687 0.956805 0.506542
C150  C     C_R   0.338776 0.645115 0.078760 0.528636
C151  C     C_R   0.376109 0.296619 0.043396 0.504001
C152  C     C_R   0.660880 0.645917 0.921856 0.528636
C153  C     C_R   0.124482 0.797408 0.955777 0.507451
C154  C     C_R   0.837307 0.142024 0.081039 0.525844
C155  C     C_R   0.874503 0.797921 0.045470 0.511801
C156  C     C_R   0.161032 0.145707 0.921708 0.528511
C157  C     C_R   0.608646 0.337929 0.902471 -0.209037
C158  C     C_R   0.203700 0.773491 0.674738 0.937358
C159  C     C_R   0.376500 0.642038 0.110486 -0.234110
C160  C     C_R   0.392531 0.336307 0.096825 -0.198518
C161  C     C_R   0.623417 0.642263 0.889763 -0.232117
C162  C     C_R   0.109239 0.838682 0.901936 -0.195802
C163  C     C_R   0.875813 0.140744 0.111268 -0.235525
C164  C     C_R   0.889767 0.839825 0.098959 -0.199381
C165  C     C_R   0.123492 0.142181 0.889738 -0.232306
C166  C     C_R   0.634373 0.328047 0.811105 -0.348378
C167  C     C_R   0.368194 0.681130 0.184925 -0.329565
C168  C     C_R   0.367778 0.324891 0.187987 -0.339695
C169  C     C_R   0.799676 0.234753 0.323484 0.912148
C170  C     C_R   0.632046 0.680620 0.814937 -0.330455
C171  C     C_R   0.135274 0.829710 0.810418 -0.353838
C172  C     C_R   0.867808 0.180628 0.184974 -0.331554
C173  C     C_R   0.863191 0.832203 0.190672 -0.355280
C174  C     C_R   0.132093 0.180601 0.814968 -0.330863
C175  C     C_R   0.679755 0.286342 0.770940 -0.088208
C176  C     C_R   0.323098 0.723830 0.227069 -0.092029
C177  C     C_R   0.319795 0.287915 0.229380 -0.088147
C178  C     C_R   0.677229 0.723411 0.772831 -0.096029
C179  C     C_R   0.180692 0.788160 0.770081 -0.088292
C180  C     C_R   0.795619 0.774699 0.325695 0.935056
C181  C     C_R   0.822493 0.222829 0.227363 -0.096363
C182  C     C_R   0.817578 0.790757 0.231007 -0.084409
C183  C     C_R   0.177315 0.223308 0.772785 -0.095733
C184  C     C_R   0.703945 0.262133 0.821435 -0.266396
C185  C     C_R   0.294539 0.743417 0.181449 -0.256786
C186  C     C_R   0.293632 0.268823 0.179765 -0.251455
C187  C     C_R   0.705930 0.743240 0.818337 -0.253904
C188  C     C_R   0.205407 0.764969 0.820015 -0.261092
C189  C     C_R   0.793189 0.241006 0.182560 -0.245395
C190  C     C_R   0.792274 0.768511 0.181188 -0.252274
C191  C     C_R   0.200280 0.234881 0.676634 0.927902
C192  C     C_R   0.206140 0.242972 0.818132 -0.253103
C193  C     C_R   0.676390 0.265707 0.917176 0.029865
C194  C     C_R   0.301236 0.702890 0.105930 0.052471
C195  C     C_R   0.322050 0.269682 0.083856 0.010240
C196  C     C_R   0.698794 0.703381 0.894182 0.059087
C197  C     C_R   0.177839 0.767953 0.915641 0.016474
C198  C     C_R   0.799245 0.199211 0.108330 0.065559
C199  C     C_R   0.820823 0.769825 0.085378 0.009343
C200  C     C_R   0.199064 0.203046 0.893877 0.057919
C201  C     C_R   0.691696 0.128891 0.532235 0.935492
C202  C     C_R   0.078796 0.388757 0.410120 -0.378476
C203  C     C_R   0.305915 0.872363 0.476012 0.906292
C204  C     C_R   0.309296 0.130321 0.461990 0.952480
C205  C     C_R   0.698623 0.871769 0.510828 0.926938
C206  C     C_R   0.191492 0.629047 0.533478 0.943593
C207  C     C_R   0.805837 0.372361 0.476189 0.907342
C208  C     C_R   0.809282 0.630311 0.462372 0.947915
C209  C     C_R   0.198412 0.371828 0.511720 0.933066
C210  C     C_R   0.077843 0.093950 0.929724 0.951545
C211  C     C_R   0.930609 0.895370 0.061985 0.930536
C212  C     C_R   0.921844 0.093321 0.070726 0.950289
H1    H     H_    0.716796 0.998448 0.551702 0.193799
H2    H     H_    0.495079 0.186460 0.421518 0.153284
H3    H     H_    0.811588 0.891396 0.877726 0.128607
H4    H     H_    0.881382 0.987286 0.841339 0.230114
H5    H     H_    0.925594 0.921260 0.850116 0.271995
H6    H     H_    0.907011 0.911555 0.763296 0.228734
H7    H     H_    0.126359 0.276787 0.070721 0.121273
H8    H     H_    0.142365 0.277048 0.161807 0.119050
H9    H     H_    0.068472 0.187556 0.245934 0.247785
H10   H     H_    0.043590 0.269514 0.220755 0.196364
H11   H     H_    0.052226 0.187748 0.155567 0.267819
H12   H     H_    0.692021 0.112123 0.895281 0.128436
H13   H     H_    0.485506 0.828456 0.463382 0.130500
H14   H     H_    0.736356 0.062296 0.924497 0.137911
H15   H     H_    0.797687 0.034313 0.762173 0.259660
H16   H     H_    0.729440 0.002383 0.800154 0.203087
H17   H     H_    0.753533 0.084177 0.732989 0.257406
H18   H     H_    0.198127 0.645797 0.222005 0.137084
H19   H     H_    0.136663 0.666699 0.218221 0.143039
H20   H     H_    0.123476 0.641078 0.371838 0.209243
H21   H     H_    0.162270 0.721103 0.364216 0.282343
H22   H     H_    0.099038 0.729843 0.362989 0.236643
H23   H     H_    0.302975 0.119096 0.128999 0.139021
H24   H     H_    0.512860 0.176407 0.535467 0.137032
H25   H     H_    0.279498 0.080390 0.056614 0.120454
H26   H     H_    0.199918 0.026338 0.192393 0.264526
H27   H     H_    0.264554 0.993782 0.174250 0.201354
H28   H     H_    0.227432 0.059961 0.261659 0.248265
H29   H     H_    0.805492 0.643501 0.775978 0.136042
H30   H     H_    0.864797 0.667880 0.785293 0.140961
H31   H     H_    0.902753 0.734686 0.640813 0.239529
H32   H     H_    0.887583 0.641181 0.628026 0.211062
H33   H     H_    0.843144 0.712958 0.632133 0.280025
H34   H     H_    0.194372 0.617676 0.888736 0.128955
H35   H     H_    0.620006 0.355017 0.770418 0.205903
H36   H     H_    0.235585 0.567575 0.924067 0.136455
H37   H     H_    0.299874 0.535998 0.764086 0.260139
H38   H     H_    0.231732 0.505887 0.798073 0.202766
H39   H     H_    0.258712 0.586133 0.728789 0.257209
H40   H     H_    0.641128 0.158819 0.199768 0.108606
H41   H     H_    0.609145 0.219231 0.294113 0.159599
H42   H     H_    0.668692 0.180129 0.352397 0.277220
H43   H     H_    0.639040 0.101346 0.329359 0.219146
H44   H     H_    0.708319 0.125233 0.252956 0.254783
H45   H     H_    0.802948 0.619462 0.129062 0.138033
H46   H     H_    0.393456 0.672360 0.215411 0.197752
H47   H     H_    0.780007 0.579851 0.056380 0.121121
H48   H     H_    0.701083 0.524346 0.191784 0.263826
H49   H     H_    0.766058 0.493501 0.173853 0.200899
H50   H     H_    0.727982 0.559180 0.261395 0.248212
H51   H     H_    0.306008 0.142719 0.773843 0.136013
H52   H     H_    0.364075 0.165838 0.787296 0.137735
H53   H     H_    0.404955 0.233617 0.643357 0.240842
H54   H     H_    0.390756 0.140368 0.627885 0.211092
H55   H     H_    0.346927 0.212232 0.629842 0.279856
H56   H     H_    0.594348 0.166079 0.015112 0.130519
H57   H     H_    0.384538 0.348110 0.227637 0.201891
H58   H     H_    0.547568 0.210462 0.986643 0.124117
H59   H     H_    0.529787 0.182970 0.176821 0.253367
H60   H     H_    0.498642 0.134861 0.121577 0.202743
H61   H     H_    0.483305 0.229784 0.149502 0.251150
H62   H     H_    0.282413 0.547778 0.165894 0.106292
H63   H     H_    0.324710 0.483145 0.082214 0.156244
H64   H     H_    0.269928 0.500802 0.003367 0.252960
H65   H     H_    0.229726 0.469395 0.118195 0.213631
H66   H     H_    0.227116 0.563646 0.090935 0.233750
H67   H     H_    0.393189 0.167733 0.962453 0.135240
H68   H     H_    0.606801 0.671458 0.784380 0.198080
H69   H     H_    0.432825 0.187889 0.017374 0.117713
H70   H     H_    0.473810 0.194045 0.813898 0.277688
H71   H     H_    0.486753 0.122821 0.873359 0.200793
H72   H     H_    0.512909 0.213137 0.869920 0.240026
H73   H     H_    0.716222 0.546199 0.839019 0.106219
H74   H     H_    0.673319 0.483708 0.925097 0.159257
H75   H     H_    0.727372 0.507953 0.005076 0.263500
H76   H     H_    0.767127 0.470229 0.892965 0.209669
H77   H     H_    0.771618 0.565988 0.912540 0.231798
H78   H     H_    0.102987 0.667211 0.040354 0.139644
H79   H     H_    0.120998 0.856958 0.769801 0.205670
H80   H     H_    0.071269 0.688074 0.972969 0.115735
H81   H     H_    0.016923 0.692044 0.179113 0.274542
H82   H     H_    0.007203 0.625357 0.110557 0.200313
H83   H     H_    0.985494 0.717892 0.112757 0.245554
H84   H     H_    0.788887 0.039750 0.168702 0.106275
H85   H     H_    0.826594 0.977599 0.078906 0.158936
H86   H     H_    0.762533 0.998278 0.018944 0.246110
H87   H     H_    0.728302 0.966293 0.134100 0.218119
H88   H     H_    0.724736 0.061138 0.110190 0.250228
H89   H     H_    0.894743 0.665931 0.965065 0.137534
H90   H     H_    0.893613 0.173017 0.214671 0.197776
H91   H     H_    0.926915 0.688964 0.031430 0.115993
H92   H     H_    0.980763 0.687793 0.825372 0.274810
H93   H     H_    0.990237 0.623328 0.895748 0.201848
H94   H     H_    0.012716 0.716161 0.890401 0.246170
H95   H     H_    0.217022 0.046691 0.838320 0.105946
H96   H     H_    0.173871 0.983704 0.923383 0.157066
H97   H     H_    0.227277 0.007475 0.004960 0.263012
H98   H     H_    0.267213 0.969664 0.892928 0.209686
H99   H     H_    0.271935 0.065361 0.912556 0.231094
H100  H     H_    0.877295 0.860120 0.231390 0.204210
H101  H     H_    0.279635 0.000029 0.450923 0.197294
H102  H     H_    0.106789 0.171549 0.784499 0.197977
H103  H     H_    0.744036 0.241265 0.783966 0.236155
H104  H     H_    0.264928 0.786401 0.209208 0.225622
H105  H     H_    0.251558 0.253862 0.217124 0.236100
H106  H     H_    0.735815 0.786063 0.790505 0.224831
H107  H     H_    0.245833 0.745201 0.782302 0.235315
H108  H     H_    0.763596 0.284008 0.210053 0.227676
H109  H     H_    0.750818 0.750834 0.218452 0.238613
H110  H     H_    0.236098 0.285708 0.790237 0.225205
H111  H     H_    0.127540 0.259054 0.319167 0.147179
H112  H     H_    0.218085 0.498559 0.551088 0.195474
H113  H     H_    0.082677 0.254091 0.441344 0.111342
H114  H     H_    0.147085 0.174726 0.454696 0.241137
H115  H     H_    0.123861 0.139068 0.382197 0.170543
H116  H     H_    0.190388 0.175950 0.331726 0.277826
H117  H     H_    0.998182 0.740087 0.319390 0.147682
H118  H     H_    0.944527 0.777940 0.425460 0.124800
H119  H     H_    0.906160 0.842194 0.351302 0.243889
H120  H     H_    0.977891 0.853604 0.280412 0.200690
H121  H     H_    0.942236 0.789113 0.248452 0.267249
H122  H     H_    0.924594 0.304821 0.615588 0.143083
H123  H     H_    0.780891 0.500059 0.447766 0.196414
H124  H     H_    0.921038 0.240242 0.536074 0.129280
H125  H     H_    0.829137 0.205873 0.651972 0.270056
H126  H     H_    0.876118 0.194986 0.693108 0.219890
H127  H     H_    0.831752 0.272851 0.728980 0.245886
H128  H     H_    0.000712 0.725097 0.679687 0.144707
H129  H     H_    0.053944 0.763946 0.574217 0.123685
H130  H     H_    0.092132 0.828588 0.646081 0.241650
H131  H     H_    0.021503 0.832554 0.728500 0.210731
H132  H     H_    0.064838 0.768877 0.743134 0.269785
H133  H     H_    0.628290 0.755600 0.319231 0.148952
H134  H     H_    0.071743 0.350788 0.368435 0.140008
H135  H     H_    0.582342 0.753509 0.441245 0.110793
H136  H     H_    0.644928 0.674336 0.459847 0.240448
H137  H     H_    0.622555 0.637065 0.386928 0.169488
H138  H     H_    0.689436 0.672741 0.337093 0.274601
H139  H     H_    0.445229 0.286834 0.294675 0.170382
H140  H     H_    0.494085 0.246074 0.315057 0.121925
H141  H     H_    0.427505 0.273883 0.487204 0.235323
H142  H     H_    0.452819 0.352527 0.415588 0.196564
H143  H     H_    0.385438 0.319651 0.451213 0.273595
H144  H     H_    0.426780 0.806728 0.611909 0.143413
H145  H     H_    0.989876 0.686167 0.443459 0.135482
H146  H     H_    0.422587 0.741366 0.533682 0.130134
H147  H     H_    0.330557 0.708361 0.650879 0.269805
H148  H     H_    0.378033 0.697273 0.691057 0.221260
H149  H     H_    0.334124 0.775610 0.726706 0.245549
H150  H     H_    0.502929 0.230128 0.661060 0.141333
H151  H     H_    0.559659 0.265765 0.557130 0.122172
H152  H     H_    0.595462 0.329533 0.632779 0.241369
H153  H     H_    0.524277 0.336510 0.711197 0.204199
H154  H     H_    0.564747 0.271531 0.731164 0.268916
H155  H     H_    0.674508 0.398806 0.026714 0.132184
H156  H     H_    0.983945 0.327791 0.467365 0.130235
H157  H     H_    0.691960 0.389763 0.115452 0.125365
H158  H     H_    0.598359 0.417609 0.230861 0.228337
H159  H     H_    0.625009 0.488654 0.146724 0.232491
H160  H     H_    0.577812 0.422624 0.146137 0.278107
H161  H     H_    0.372687 0.770824 0.939721 0.120251
H162  H     H_    0.363818 0.774607 0.841316 0.125576
H163  H     H_    0.437053 0.682117 0.765073 0.245903
H164  H     H_    0.460387 0.762243 0.797779 0.196516
H165  H     H_    0.445788 0.679847 0.863345 0.269266
H166  H     H_    0.330381 0.402329 0.971178 0.132774
H167  H     H_    0.005866 0.672218 0.558397 0.139535
H168  H     H_    0.309926 0.394065 0.885770 0.120437
H169  H     H_    0.403835 0.415645 0.765761 0.229510
H170  H     H_    0.380720 0.488881 0.847521 0.231831
H171  H     H_    0.426453 0.420871 0.847937 0.271203
H172  H     H_    0.626293 0.777846 0.071464 0.121737
H173  H     H_    0.642388 0.777295 0.162450 0.119508
H174  H     H_    0.567986 0.688455 0.246496 0.247847
H175  H     H_    0.543567 0.770984 0.221621 0.196862
H176  H     H_    0.551633 0.689498 0.156261 0.267481
H177  H     H_    0.171410 0.901861 0.029893 0.129515
H178  H     H_    0.573429 0.848536 0.364073 0.139645
H179  H     H_    0.189374 0.892539 0.118008 0.125896
H180  H     H_    0.094749 0.913550 0.234694 0.230407
H181  H     H_    0.119036 0.987289 0.154115 0.227698
H182  H     H_    0.074164 0.919137 0.150054 0.275104
H183  H     H_    0.870546 0.266042 0.941188 0.117582
H184  H     H_    0.861048 0.269169 0.843414 0.126443
H185  H     H_    0.934030 0.176150 0.767280 0.245451
H186  H     H_    0.957773 0.256829 0.798240 0.196009
H187  H     H_    0.943533 0.175066 0.864784 0.270372
H188  H     H_    0.827825 0.904165 0.967461 0.129359
O1    O     O_R   0.746490 0.236330 0.638080 -0.637261
O2    O     O_R   0.325830 0.813840 0.483730 -0.577367
O3    O     O_R   0.325830 0.186160 0.483730 -0.587125
O4    O     O_R   0.674170 0.813840 0.516270 -0.579094
O5    O     O_R   0.174170 0.686160 0.516270 -0.588886
O6    O     O_R   0.825830 0.313840 0.483730 -0.577758
O7    O     O_R   0.825830 0.686160 0.483730 -0.587678
O8    O     O_R   0.174170 0.313840 0.516270 -0.579638
O9    O     O_R   0.739960 0.127620 0.525000 -0.639482
O10   O     O_R   0.260040 0.872380 0.475000 -0.645533
O11   O     O_R   0.260040 0.127620 0.475000 -0.646714
O12   O     O_R   0.253510 0.763670 0.361920 -0.639952
O13   O     O_R   0.739960 0.872380 0.525000 -0.651512
O14   O     O_R   0.239960 0.627620 0.525000 -0.640179
O15   O     O_R   0.760040 0.372380 0.475000 -0.645484
O16   O     O_R   0.760040 0.627620 0.475000 -0.645013
O17   O     O_R   0.239960 0.372380 0.525000 -0.652693
O18   O     O_R   0.680700 0.294870 0.629350 -0.635858
O19   O     O_R   0.319300 0.705130 0.370650 -0.627287
O20   O     O_R   0.319300 0.294870 0.370650 -0.635191
O21   O     O_R   0.680700 0.705130 0.629350 -0.629138
O22   O     O_R   0.180700 0.794870 0.629350 -0.633857
O23   O     O_R   0.253510 0.236330 0.361920 -0.621533
O24   O     O_R   0.819300 0.205130 0.370650 -0.628211
O25   O     O_R   0.819300 0.794870 0.370650 -0.634285
O26   O     O_R   0.180700 0.205130 0.629350 -0.629322
O27   O     O_R   0.062020 0.072840 0.007170 -0.579812
O28   O     O_R   0.937980 0.927160 0.992830 -0.609985
O29   O     O_R   0.937980 0.072840 0.992830 -0.588098
O30   O     O_R   0.062020 0.927160 0.007170 -0.610169
O31   O     O_R   0.562020 0.572840 0.007170 -0.579623
O32   O     O_R   0.437980 0.427160 0.992830 -0.607501
O33   O     O_R   0.437980 0.572840 0.992830 -0.585852
O34   O     O_R   0.746490 0.763670 0.638080 -0.633844
O35   O     O_R   0.562020 0.427160 0.007170 -0.610407
O36   O     O_R   0.947860 0.073950 0.109290 -0.631991
O37   O     O_R   0.052140 0.926050 0.890710 -0.635886
O38   O     O_R   0.052140 0.073950 0.890710 -0.633691
O39   O     O_R   0.947860 0.926050 0.109290 -0.637244
O40   O     O_R   0.447860 0.573950 0.109290 -0.631201
O41   O     O_R   0.552140 0.426050 0.890710 -0.635191
O42   O     O_R   0.552140 0.573950 0.890710 -0.633846
O43   O     O_R   0.447860 0.426050 0.109290 -0.638088
O44   O     O_3   0.154312 0.316818 0.395630 -0.589069
O45   O     O_R   0.246490 0.736330 0.638080 -0.639181
O46   O     O_3   0.921802 0.692374 0.369812 -0.595487
O47   O     O_3   0.872204 0.332243 0.566894 -0.581452
O48   O     O_3   0.075998 0.675270 0.626291 -0.601498
O49   O     O_3   0.654574 0.814877 0.395300 -0.588925
O50   O     O_3   0.419881 0.189848 0.360947 -0.615687
O51   O     O_3   0.374006 0.833538 0.563805 -0.582441
O52   O     O_3   0.576037 0.176324 0.616168 -0.600680
O53   O     O_3   0.641340 0.309175 0.108766 -0.533030
O54   O     O_3   0.340835 0.677161 0.912915 -0.517076
O55   O     O_3   0.358713 0.310733 0.891007 -0.524754
O56   O     O_R   0.753510 0.263670 0.361920 -0.631463
O57   O     O_3   0.658265 0.680977 0.087826 -0.515311
O58   O     O_3   0.141587 0.809491 0.107666 -0.525599
O59   O     O_3   0.838255 0.172108 0.915920 -0.517288
O60   O     O_3   0.858574 0.810315 0.892762 -0.528250
O61   O     O_3   0.158870 0.180535 0.087411 -0.514972
O62   O     O_3   0.768057 0.158750 0.853275 -0.591448
O63   O     O_3   0.188020 0.754707 0.199392 -0.585336
O64   O     O_3   0.230850 0.162819 0.147062 -0.589990
O65   O     O_3   0.812485 0.753241 0.800074 -0.586437
O66   O     O_3   0.270477 0.662373 0.850766 -0.590304
O67   O     O_R   0.753510 0.736330 0.361920 -0.622266
O68   O     O_3   0.686596 0.251398 0.202192 -0.601513
O69   O     O_3   0.730329 0.661401 0.147028 -0.589059
O70   O     O_3   0.312937 0.252110 0.799156 -0.583232
O71   O     O_3   0.583471 0.277516 0.042336 -0.561798
O72   O     O_3   0.334222 0.586836 0.031273 -0.558309
O73   O     O_3   0.415657 0.276384 0.957712 -0.561127
O74   O     O_3   0.664112 0.588947 0.971745 -0.556919
O75   O     O_3   0.083935 0.776324 0.040291 -0.562574
O76   O     O_3   0.832970 0.082957 0.034362 -0.559381
O77   O     O_3   0.914976 0.775209 0.961663 -0.561832
O78   O     O_R   0.246490 0.263670 0.638080 -0.632857
O79   O     O_3   0.164360 0.088591 0.971307 -0.556544
O80   O     O_R   0.674170 0.186160 0.516270 -0.586675
Zn1   Zn    Zn3+2 0.792340 0.208750 0.507670 0.957381
Zn2   Zn    Zn3+2 0.494040 0.500000 0.919480 0.949472
Zn3   Zn    Zn3+2 0.005960 0.000000 0.080520 0.950857
Zn4   Zn    Zn3+2 0.994040 0.000000 0.919480 0.947147
Zn5   Zn    Zn3+2 0.207660 0.791250 0.492330 0.941724
Zn6   Zn    Zn3+2 0.207660 0.208750 0.492330 0.943203
Zn7   Zn    Zn3+2 0.792340 0.791250 0.507670 0.951018
Zn8   Zn    Zn3+2 0.292340 0.708750 0.507670 0.957612
Zn9   Zn    Zn3+2 0.707660 0.291250 0.492330 0.947318
Zn10  Zn    Zn3+2 0.707660 0.708750 0.492330 0.944394
Zn11  Zn    Zn3+2 0.292340 0.291250 0.507670 0.942483
Zn12  Zn    Zn3+2 0.505960 0.500000 0.080520 0.954399

loop_
_geom_bond_atom_site_label_1
_geom_bond_atom_site_label_2
_ccdc_geom_bond_type
C28   C47   A    
C126  C127  S    
C96   H25   S    
C36   C42   A    
C171  C179  A    
C117  O74   S    
C101  C148  A    
O2    Zn8   S    
C203  O2    A    
C3    O37   A    
C59   H118  S    
C13   C18   A    
C170  C178  A    
C66   H137  S    
C69   H143  S    
C123  H89   S    
C16   C35   A    
C78   O55   S    
C201  O9    A    
C184  C193  A    
C88   H5    S    
C86   H186  S    
C125  H94   S    
C71   H147  S    
C84   H180  S    
C131  C140  A    
C134  C143  A    
C125  H92   S    
C11   C47   A    
C7    O41   A    
C94   O63   S    
C10   C20   A    
C74   O53   S    
C148  O55   S    
C136  O23   A    
C170  H68   S    
C60   H119  S    
C76   H161  S    
C24   C51   A    
O21   Zn10  S    
C8    C16   A    
C76   O54   S    
C154  C163  A    
C205  O4    A    
C109  H56   S    
C78   H166  S    
C100  O66   S    
C180  C182  S    
C190  C199  A    
C127  H97   S    
O78   Zn11  S    
C153  O75   S    
C92   O62   S    
C150  C159  A    
C85   O59   S    
C114  H64   S    
C92   H12   S    
C95   H20   S    
C56   H113  S    
C112  O12   A    
O14   Zn8   S    
O24   Zn1   S    
C39   H1    S    
C59   O46   S    
C75   H160  S    
C124  C197  S    
C172  H90   S    
C177  C186  A    
C29   C45   A    
C180  O25   A    
C89   H7    S    
C209  O8    A    
C210  O38   A    
O42   Zn2   S    
C135  O66   S    
C186  H105  S    
C164  C173  A    
O30   Zn3   S    
O56   Zn9   S    
C108  H54   S    
C163  C172  A    
C118  H75   S    
C129  C143  A    
C173  C182  A    
C105  C106  S    
C14   C57   A    
C124  C135  A    
C2    C19   A    
C25   C55   A    
C72   C73   S    
C192  H110  S    
C7    C157  S    
C101  C133  A    
C87   H188  S    
C78   H168  S    
C85   H183  S    
O11   Zn6   S    
O67   Zn10  S    
C32   C203  S    
C9    C15   A    
C84   H182  S    
C126  H95   S    
C134  O65   S    
C168  H57   S    
C110  H60   S    
C30   C205  S    
O41   Zn2   S    
C46   C53   A    
C64   H130  S    
C70   H144  S    
C41   H112  S    
O4    Zn10  S    
C160  C168  A    
C62   H126  S    
C60   H121  S    
C98   H30   S    
C120  H82   S    
C169  O24   A    
C98   C99   S    
C158  O45   A    
C74   H155  S    
C4    C161  S    
C116  H71   S    
C81   O57   S    
C182  C190  A    
C2    H145  S    
C67   C69   S    
C74   H157  S    
C204  O3    A    
O3    Zn11  S    
C180  O67   A    
C119  O75   S    
C11   C18   A    
O28   Zn4   S    
C184  H103  S    
C61   H122  S    
C25   C43   A    
C75   H158  S    
C85   C86   S    
C12   C68   A    
C191  O78   A    
C158  O22   A    
C133  C142  A    
C156  C165  A    
O9    Zn1   S    
C34   C209  S    
C71   H149  S    
C67   H140  S    
C154  C198  A    
C78   C80   S    
C165  C210  S    
C5    O43   A    
C82   H176  S    
C115  C116  S    
C48   C202  A    
C106  H50   S    
C122  H87   S    
C36   C208  S    
C99   H32   S    
C112  O19   A    
C54   O51   S    
C3    C162  S    
C149  C193  A    
O33   Zn2   S    
C172  C181  A    
C150  C194  A    
C159  C167  A    
C109  O71   S    
C103  O68   S    
C107  C108  S    
C118  H77   S    
C73   H153  S    
C89   C91   S    
C65   O49   S    
C152  C161  A    
C57   H13   S    
C211  O28   A    
C192  C200  A    
O6    Zn1   S    
O16   Zn10  S    
C207  O15   A    
O22   Zn5   S    
C147  O34   A    
C58   H116  S    
C108  H53   S    
O37   Zn4   S    
C97   H27   S    
C139  C148  A    
C152  C196  A    
C102  H39   S    
C38   C41   A    
C165  C174  A    
C131  O62   S    
O1    Zn1   S    
C136  C177  S    
C64   H132  S    
C51   O48   S    
O25   Zn7   S    
C93   H15   S    
C83   C84   S    
C8    C12   A    
C5    C160  S    
C79   C131  A    
C10   C45   A    
C70   H146  S    
C129  C199  S    
C91   H10   S    
C203  O10   A    
C31   C204  S    
C70   C71   S    
C156  O79   S    
C80   H171  S    
C113  C196  S    
C124  C141  A    
C140  O59   S    
C80   H169  S    
C61   H124  S    
C117  H73   S    
C103  C104  S    
C155  C199  A    
C94   H18   S    
C29   C51   A    
C142  O61   S    
C27   C47   A    
C132  C141  A    
C1    C175  S    
C112  C176  S    
C56   O44   S    
C205  O13   A    
C70   O51   S    
O29   Zn4   S    
C152  O74   S    
C189  H108  S    
C163  C212  S    
C150  O72   S    
C82   H174  S    
O32   Zn2   S    
C59   H117  S    
C83   H179  S    
C79   C193  S    
C66   H138  S    
C69   H142  S    
C143  O60   S    
C128  C140  A    
C20   C202  A    
C117  C118  S    
C53   O50   S    
C149  C157  A    
C28   C37   A    
C138  C146  A    
C35   H178  S    
C96   H23   S    
C56   C58   S    
C86   H187  S    
C125  H93   S    
C61   C62   S    
C130  C142  A    
C128  C198  S    
C105  O69   S    
C13   C50   A    
C59   C60   S    
C212  O36   A    
C58   H114  S    
C15   C46   A    
C60   H120  S    
C76   H162  S    
C27   C49   A    
C25   C33   A    
C54   C57   A    
C87   C88   S    
C145  O53   S    
C187  C196  A    
C102  H37   S    
C116  H70   S    
C8    C43   A    
C185  C194  A    
C183  C192  A    
C55   C68   A    
C7    O35   A    
C176  C185  A    
C158  C179  S    
C115  H69   S    
C50   O47   S    
C107  O70   S    
C11   C19   A    
C166  C175  A    
C104  H43   S    
C23   C54   A    
C137  C145  A    
C1    O18   A    
C123  C125  S    
C75   H159  S    
C168  C177  A    
C31   C40   A    
C111  H62   S    
C151  C195  A    
C191  O26   A    
C114  H65   S    
O18   Zn9   S    
C181  C189  A    
O7    Zn7   S    
C121  H85   S    
C107  H52   S    
C95   H22   S    
C99   H33   S    
C56   H111  S    
C38   C206  S    
C118  H76   S    
C26   C48   A    
C90   C132  A    
C92   H14   S    
O20   Zn11  S    
C37   C207  S    
C202  H134  S    
C34   C41   A    
C188  H107  S    
C130  C139  A    
C6    C159  S    
O8    Zn6   S    
C83   H177  S    
C212  O29   A    
C144  O54   S    
C206  O5    A    
O39   Zn3   S    
C61   O47   S    
C115  O73   S    
C201  O80   A    
C23   C44   A    
C86   H185  S    
C119  H80   S    
C71   H148  S    
C138  O69   S    
C126  H96   S    
C109  H58   S    
C100  H36   S    
C110  H61   S    
C204  O11   A    
C1    O1    A    
C90   C194  S    
C12   C15   A    
C65   H133  S    
C169  C181  S    
C121  C122  S    
C178  C187  A    
C48   O44   S    
C13   H156  S    
C113  C134  A    
O10   Zn5   S    
C103  H41   S    
C96   O64   S    
C103  H40   S    
C139  O70   S    
C91   H11   S    
C74   C75   S    
C115  H67   S    
C127  H98   S    
C185  H104  S    
C105  H45   S    
C147  O21   A    
C89   O61   S    
O35   Zn12  S    
C174  C183  A    
C120  H81   S    
C208  O7    A    
C119  C120  S    
C179  C188  A    
C27   C36   A    
C21   C30   A    
O36   Zn3   S    
C153  C162  A    
C23   C32   A    
C42   H123  S    
C6    O33   A    
C109  C110  S    
C63   H129  S    
C89   H8    S    
C67   H139  S    
C188  C197  A    
O26   Zn6   S    
C92   C93   S    
C5    O32   A    
C111  C114  S    
C122  H88   S    
C99   H31   S    
C94   C95   S    
C4    O42   A    
C208  O16   A    
C141  O58   S    
C35   C52   A    
C62   H127  S    
C87   H3    S    
C126  O79   S    
C73   H152  S    
C10   C17   A    
C190  H109  S    
C154  O76   S    
C206  O14   A    
C24   H167  S    
C101  C195  S    
C6    O40   A    
C175  C184  A    
C189  C198  A    
C113  C146  A    
C149  O71   S    
C3    O30   A    
C81   H173  S    
C147  C178  S    
C9    C14   A    
C81   C82   S    
C79   C145  A    
C97   H26   S    
C85   H184  S    
C33   C39   A    
C169  O56   A    
C166  H35   S    
C119  H78   S    
C62   H125  S    
C72   H150  S    
C84   H181  S    
C81   H172  S    
C110  H59   S    
C121  O76   S    
C155  O77   S    
C153  C197  A    
C164  C211  S    
C87   O60   S    
C104  H42   S    
C136  O20   A    
C65   H135  S    
O40   Zn12  S    
C98   H29   S    
C68   H24   S    
C21   C43   A    
C28   C50   A    
C26   C34   A    
C22   C44   A    
C52   O49   S    
C88   H6    S    
C46   H2    S    
O17   Zn11  S    
C30   C39   A    
C40   H101  S    
C167  H46   S    
C111  H63   S    
C91   H9    S    
O43   Zn12  S    
C26   C45   A    
C63   H128  S    
C211  O39   A    
C105  H47   S    
C106  H48   S    
O15   Zn9   S    
C156  C200  A    
C80   H170  S    
C207  O6    A    
C130  C200  S    
O12   Zn5   S    
C94   H19   S    
C37   C42   A    
C22   C53   A    
C17   C24   A    
C77   H165  S    
C22   C31   A    
C129  C138  A    
C186  C195  A    
O45   Zn8   S    
C100  H34   S    
C76   C77   S    
C132  O63   S    
O19   Zn8   S    
O80   Zn9   S    
C210  O27   A    
C77   H163  S    
C82   H175  S    
C209  O17   A    
C106  H49   S    
C174  H102  S    
C63   C64   S    
C173  H100  S    
C122  H86   S    
C69   H141  S    
C29   C38   A    
C108  H55   S    
C123  H91   S    
C128  C137  A    
C72   O52   S    
C2    C49   A    
C77   H164  S    
C96   C97   S    
C100  C102  S    
C73   H154  S    
C133  O64   S    
C123  O77   S    
C161  C170  A    
C72   H151  S    
C135  C144  A    
O27   Zn3   S    
C65   C66   S    
C14   C16   A    
C58   H115  S    
C63   O48   S    
O13   Zn7   S    
O23   Zn6   S    
C93   H17   S    
C97   H28   S    
C9    C44   A    
C88   H4    S    
C102  H38   S    
C120  H83   S    
C4    O31   A    
C183  C191  S    
C157  C166  A    
C66   H136  S    
C151  O73   S    
C155  C164  A    
C146  O57   S    
C67   O50   S    
C127  H99   S    
C64   H131  S    
C104  H44   S    
O5    Zn5   S    
C151  C160  A    
C55   O52   S    
O34   Zn7   S    
C93   H16   S    
O38   Zn4   S    
C83   O58   S    
C33   C201  S    
C17   C19   A    
C18   C20   A    
C32   C40   A    
C98   O65   S    
C90   C144  A    
C116  H72   S    
C114  H66   S    
C137  O68   S    
C162  C171  A    
C111  O72   S    
O31   Zn12  S    
C121  H84   S    
C187  H106  S    
C107  H51   S    
C49   O46   S    
C95   H21   S    
C117  H74   S    
C21   C52   A    
C167  C176  A    
C171  H79   S    
