data_mof_unit_31011.cif
_audit_creation_date              2012-12-11T14:34:01-0500
_audit_creation_method            fapswitch 2.2
_symmetry_space_group_name_H-M    P1
_symmetry_Int_Tables_number       1
_space_group_crystal_system       triclinic
_cell_length_a                    14.154062
_cell_length_b                    14.096098
_cell_length_c                    27.121709
_cell_angle_alpha                 89.545571
_cell_angle_beta                  90.46283
_cell_angle_gamma                 119.508207
_cell_volume                      4709.12242981

loop_
_atom_site_label
_atom_site_type_symbol
_atom_type_description
_atom_site_fract_x
_atom_site_fract_y
_atom_site_fract_z
_atom_type_partial_charge
C1    C     C_R   0.235667 0.787160 0.568749 0.548051
C2    C     C_R   0.211813 0.445138 0.568165 0.552708
C3    C     C_R   0.554796 0.766000 0.568296 0.551267
C4    C     C_3   0.720462 0.767108 0.788111 0.125700
C5    C     C_3   0.268134 0.831492 0.798621 0.081522
C6    C     C_3   0.054735 0.323118 0.789030 0.106014
C7    C     C_3   0.730213 0.775196 0.730556 0.118663
C8    C     C_3   0.280302 0.825067 0.741405 0.068419
C9    C     C_3   0.052690 0.325342 0.731095 0.120994
C10   C     C_1   0.692467 0.853153 0.862611 0.070890
C11   C     C_1   0.147749 0.845644 0.862317 0.065900
C12   C     C_1   0.154957 0.307543 0.862643 0.055416
C13   C     C_1   0.644752 0.817080 0.656607 0.102127
C14   C     C_1   0.196189 0.818643 0.659391 0.133562
C15   C     C_1   0.170644 0.356136 0.656546 0.126386
C16   C     C_1   0.611673 0.799185 0.614622 0.119501
C17   C     C_1   0.208578 0.805646 0.616766 0.138169
C18   C     C_1   0.188354 0.388624 0.614526 0.137494
C19   C     C_R   0.106835 0.222985 0.087800 0.601492
C20   C     C_R   0.776941 0.883965 0.087790 0.603777
C21   C     C_R   0.116150 0.892922 0.087856 0.601129
C22   C     C_R   0.107198 0.222168 0.951816 0.569702
C23   C     C_R   0.778107 0.886368 0.951668 0.575396
C24   C     C_R   0.113401 0.893277 0.951389 0.574224
C25   C     C_R   0.649217 0.910986 0.366852 0.215351
C26   C     C_R   0.088484 0.742434 0.367751 0.216779
C27   C     C_R   0.259932 0.348733 0.367465 0.216380
C28   C     C_R   0.665137 0.924262 0.314983 0.014583
C29   C     C_R   0.075315 0.744240 0.315799 0.014540
C30   C     C_R   0.257663 0.333176 0.315611 0.014628
C31   C     C_R   0.690881 0.937957 0.210674 -0.021682
C32   C     C_R   0.062672 0.753699 0.211263 -0.021860
C33   C     C_R   0.246255 0.307814 0.211291 -0.021586
C34   C     C_R   0.231448 0.790400 0.433046 0.561133
C35   C     C_R   0.210247 0.441745 0.432853 0.562653
C36   C     C_R   0.558403 0.768611 0.432897 0.564491
C37   C     C_R   0.684526 0.019820 0.236883 -0.063764
C38   C     C_R   0.980519 0.667763 0.238087 -0.067124
C39   C     C_R   0.332548 0.311255 0.238376 -0.065577
C40   C     C_R   0.669392 0.013233 0.287775 0.247461
C41   C     C_R   0.986487 0.660557 0.289174 0.244917
C42   C     C_R   0.340816 0.326238 0.289290 0.246981
C43   C     C_R   0.710983 0.947498 0.159488 0.182999
C44   C     C_R   0.053619 0.763281 0.159868 0.182848
C45   C     C_R   0.235681 0.287460 0.160119 0.182101
C46   C     C_R   0.717173 0.863043 0.134554 0.019367
C47   C     C_R   0.137705 0.852469 0.134476 0.019108
C48   C     C_R   0.146692 0.283762 0.134351 0.019070
C49   C     C_R   0.661367 0.744912 0.364824 0.201656
C50   C     C_R   0.254269 0.917632 0.364475 0.201372
C51   C     C_R   0.084967 0.341846 0.363624 0.200478
C52   C     C_R   0.671530 0.752418 0.313688 0.008419
C53   C     C_R   0.247029 0.919425 0.313279 0.007207
C54   C     C_R   0.083074 0.332692 0.312478 0.007974
C55   C     C_R   0.671673 0.840844 0.288418 -0.046864
C56   C     C_R   0.158910 0.831997 0.288600 -0.047227
C57   C     C_R   0.169797 0.329830 0.288133 -0.046800
C58   C     C_R   0.675059 0.669282 0.287116 -0.066031
C59   C     C_R   0.330222 0.003988 0.286149 -0.068275
C60   C     C_R   0.998694 0.332708 0.285021 -0.068865
C61   C     C_R   0.675200 0.670738 0.236218 -0.082604
C62   C     C_R   0.329276 0.001185 0.235280 -0.082814
C63   C     C_R   0.000568 0.332976 0.234141 -0.082597
C64   C     C_R   0.678630 0.758734 0.210338 0.020003
C65   C     C_R   0.241628 0.917449 0.209956 0.019793
C66   C     C_R   0.083235 0.326228 0.209160 0.020832
C67   C     C_3   0.548911 0.767948 0.735712 0.067954
C68   C     C_3   0.073817 0.735899 0.730780 0.087518
C69   C     C_3   0.255538 0.440464 0.734881 0.099414
C70   C     C_R   0.680760 0.846187 0.236484 -0.016766
C71   C     C_R   0.154066 0.834414 0.236615 -0.017043
C72   C     C_R   0.166441 0.321001 0.236201 -0.016508
C73   C     C_R   0.685234 0.763128 0.158928 0.198600
C74   C     C_R   0.237405 0.918561 0.158524 0.199555
C75   C     C_R   0.080978 0.319033 0.157779 0.198657
C76   C     C_R   0.630596 0.812717 0.389470 0.004023
C77   C     C_R   0.186783 0.820267 0.389812 0.004669
C78   C     C_R   0.181849 0.369725 0.389251 0.004324
C79   C     C_3   0.722382 0.949871 0.726738 0.144112
C80   C     C_3   0.194829 0.940328 0.725666 0.143574
C81   C     C_3   0.172032 0.238199 0.726464 0.123714
C82   C     C_3   0.734352 0.957249 0.784279 0.161969
C83   C     C_3   0.175278 0.942906 0.782224 0.166166
C84   C     C_3   0.169734 0.229868 0.784112 0.143879
C85   C     C_1   0.724295 0.868050 0.904762 0.100541
C86   C     C_1   0.131612 0.860783 0.904247 0.097802
C87   C     C_1   0.139858 0.275838 0.904824 0.089631
C88   C     C_3   0.662943 0.828571 0.710692 -0.026270
C89   C     C_3   0.186128 0.829340 0.712739 -0.018287
C90   C     C_3   0.161044 0.338294 0.710644 -0.038545
C91   C     C_3   0.555617 0.786553 0.792534 -0.229834
C92   C     C_3   0.066998 0.735716 0.787578 -0.217354
C93   C     C_3   0.256328 0.432794 0.792096 -0.221654
C94   C     C_3   0.676026 0.841614 0.808558 -0.052912
C95   C     C_3   0.164506 0.839314 0.809129 -0.044566
C96   C     C_3   0.159382 0.323844 0.808503 -0.057289
Cr1   Cr    Cr6+3 0.164410 0.584450 0.499910 1.195621
Cr2   Cr    Cr6+3 0.415550 0.579960 0.499910 1.191469
Cr3   Cr    Cr6+3 0.420040 0.835590 0.499910 1.195728
Cr4   Cr    Cr6+3 0.155170 0.075460 0.019960 1.186119
Cr5   Cr    Cr6+3 0.924540 0.079710 0.019960 1.187654
Cr6   Cr    Cr6+3 0.920290 0.844830 0.019960 1.179297
O1    O     O_R   0.137150 0.468200 0.553200 -0.463025
O2    O     O_R   0.531800 0.668950 0.553200 -0.467746
O3    O     O_R   0.331050 0.862850 0.553200 -0.464662
O4    O     O_R   0.179100 0.982980 0.967000 -0.471815
O5    O     O_R   0.017020 0.196120 0.967000 -0.476197
O6    O     O_R   0.803880 0.820900 0.967000 -0.478083
O7    O     O_R   0.173970 0.688730 0.549930 -0.474651
O8    O     O_R   0.311270 0.485240 0.549930 -0.477018
O9    O     O_R   0.514760 0.826030 0.549930 -0.475837
O10   O     O_R   0.140110 0.470540 0.446010 -0.438260
O11   O     O_R   0.529460 0.669570 0.446010 -0.440142
O12   O     O_R   0.330430 0.859890 0.446010 -0.438175
O13   O     O_R   0.176710 0.690910 0.450560 -0.460946
O14   O     O_R   0.309090 0.485800 0.450560 -0.462238
O15   O     O_R   0.514200 0.823290 0.450560 -0.460854
O16   O     O_3   0.333333 0.666667 0.499990 -0.358713
O17   O     O_R   0.176750 0.985260 0.074180 -0.439811
O18   O     O_R   0.014740 0.191490 0.074180 -0.443066
O19   O     O_R   0.808510 0.823250 0.074180 -0.441807
O20   O     O_R   0.146100 0.172630 0.068980 -0.461982
O21   O     O_R   0.827370 0.973470 0.068980 -0.462415
O22   O     O_R   0.026530 0.853900 0.068980 -0.463085
O23   O     O_3   1.000000 0.000000 0.020040 -0.297942
O24   O     O_R   0.148270 0.170520 0.969620 -0.483872
O25   O     O_R   0.829480 0.977750 0.969620 -0.481984
O26   O     O_R   0.022250 0.851730 0.969620 -0.488748
H1    H     H_    0.518667 0.837545 0.801926 0.232106
H2    H     H_    0.989279 0.730044 0.798270 0.246001
H3    H     H_    0.334152 0.439325 0.804889 0.209869
Cl1   Cl    Cl    0.493367 0.626852 0.723575 -0.641953
Cl2   Cl    Cl    0.042338 0.603466 0.709411 -0.524203
Cl3   Cl    Cl    0.252074 0.560489 0.715837 -0.622617
H4    H     H_    0.507505 0.708296 0.812790 0.166892
H5    H     H_    0.065999 0.662205 0.803521 0.167333
H6    H     H_    0.251501 0.501649 0.809343 0.161815
Cl4   Cl    Cl    0.834829 0.776685 0.820408 -0.519224
Cl5   Cl    Cl    0.385666 0.939047 0.828853 -0.443367
Cl6   Cl    Cl    0.934771 0.216270 0.816361 -0.467869
Cl7   Cl    Cl    0.728955 0.064850 0.126819 -0.474045
Cl8   Cl    Cl    0.937362 0.664716 0.127514 -0.476382
Cl9   Cl    Cl    0.332772 0.265713 0.128590 -0.478961
Cl10  Cl    Cl    0.668405 0.018640 0.406364 -0.345801
Cl11  Cl    Cl    0.981286 0.657332 0.407897 -0.347200
Cl12  Cl    Cl    0.345857 0.326159 0.407946 -0.346593
H7    H     H_    0.689064 0.089730 0.217918 0.217510
H8    H     H_    0.910733 0.603308 0.219517 0.215867
H9    H     H_    0.396573 0.304420 0.220111 0.216162
Cl13  Cl    Cl    0.647623 0.116593 0.312187 -0.415015
Cl14  Cl    Cl    0.882410 0.538334 0.314728 -0.417986
Cl15  Cl    Cl    0.463654 0.344347 0.314898 -0.411377
Cl16  Cl    Cl    0.653242 0.643216 0.125132 -0.460987
Cl17  Cl    Cl    0.356787 0.003239 0.124247 -0.455759
Cl18  Cl    Cl    0.995402 0.353768 0.122783 -0.461392
H10   H     H_    0.676578 0.603827 0.217617 0.209352
H11   H     H_    0.396215 0.067750 0.216198 0.209947
H12   H     H_    0.934049 0.334323 0.214844 0.209611
H13   H     H_    0.673022 0.599591 0.305158 0.239089
H14   H     H_    0.399542 0.070947 0.303797 0.239394
H15   H     H_    0.932424 0.337117 0.302364 0.236957
H16   H     H_    0.493187 0.793273 0.719038 0.244317
H17   H     H_    0.008969 0.750119 0.715234 0.258327
H18   H     H_    0.330312 0.444334 0.721058 0.269552
Cl19  Cl    Cl    0.690669 0.653047 0.398080 -0.381371
Cl20  Cl    Cl    0.345816 0.037904 0.396859 -0.378357
Cl21  Cl    Cl    0.964695 0.314323 0.395584 -0.381403
H19   H     H_    0.805076 0.990218 0.710940 0.224534
H20   H     H_    0.278241 0.007277 0.717878 0.234427
H21   H     H_    0.101408 0.163387 0.711743 0.232488
Cl22  Cl    Cl    0.663237 0.025364 0.699583 -0.306920
Cl23  Cl    Cl    0.114263 0.973708 0.685329 -0.421494
Cl24  Cl    Cl    0.289268 0.241377 0.698745 -0.416752
Cl25  Cl    Cl    0.685569 0.042288 0.810972 -0.304471
Cl26  Cl    Cl    0.062517 0.961174 0.795523 -0.485543
Cl27  Cl    Cl    0.283124 0.221090 0.810134 -0.475115
H22   H     H_    0.822214 0.995078 0.793412 0.212189
H23   H     H_    0.246932 0.015170 0.797854 0.234724
H24   H     H_    0.095225 0.154515 0.794404 0.220163
H25   H     H_    0.697836 0.691667 0.715602 0.221093
H26   H     H_    0.276158 0.747046 0.733581 0.221708
H27   H     H_    0.044582 0.396708 0.719513 0.242443
Cl28  Cl    Cl    0.865832 0.842908 0.708373 -0.462094
Cl29  Cl    Cl    0.409725 0.926634 0.718145 -0.457951
Cl30  Cl    Cl    0.937625 0.212305 0.703142 -0.448826
H28   H     H_    0.658598 0.681297 0.796762 0.185714
H29   H     H_    0.258189 0.754833 0.815496 0.134321
H30   H     H_    0.057003 0.398895 0.802150 0.167278

loop_
_geom_bond_atom_site_label_1
_geom_bond_atom_site_label_2
_ccdc_geom_bond_type
C8    H26   S    
Cr5   O5    S    
C15   C18   T    
C61   H10   S    
C19   O20   A    
C69   Cl3   S    
Cr2   O8    S    
C83   Cl26  S    
C2    C18   S    
C33   C45   A    
C51   Cl21  S    
C67   Cl1   S    
C48   C75   A    
C69   H18   S    
Cr6   O23   S    
Cr3   O12   S    
C53   C59   A    
C10   C85   T    
C54   C60   A    
C25   C28   A    
C68   H17   S    
C67   C88   S    
Cr5   O21   S    
C31   C43   A    
C60   C63   A    
Cr4   O24   S    
C68   Cl2   S    
C37   C40   A    
C69   C93   S    
C58   H13   S    
C4    C7    S    
C34   C77   S    
C22   O24   A    
C28   C40   A    
C11   C86   T    
C4    H28   S    
C22   O5    A    
C30   C57   A    
C6    H30   S    
C80   C89   S    
C74   Cl17  S    
C84   C96   S    
C79   Cl22  S    
Cr1   O16   S    
C39   C42   A    
C20   O21   A    
C9    H27   S    
C36   C76   S    
C33   C72   A    
C1    O7    A    
C31   C70   A    
C66   C72   A    
C24   O26   A    
C82   Cl25  S    
C3    O9    A    
C82   H22   S    
C50   Cl20  S    
Cr5   O23   S    
C64   C73   A    
Cr6   O6    S    
C32   C38   A    
C79   H19   S    
Cr1   O13   S    
Cr6   O19   S    
C42   Cl15  S    
C5    H29   S    
C62   C65   A    
C44   C47   A    
C8    Cl29  S    
C58   C61   A    
C63   C66   A    
C83   C95   S    
C21   C47   S    
C27   C30   A    
C14   C17   T    
C92   H5    S    
C80   H20   S    
C6    C9    S    
C80   C83   S    
Cr6   O22   S    
C36   O11   A    
C79   C88   S    
C5    C95   S    
C28   C55   A    
C1    O3    A    
C5    Cl5   S    
C32   C71   A    
Cr3   O3    S    
C49   C76   A    
C26   C77   A    
Cr4   O23   S    
C50   C53   A    
C23   O6    A    
C38   C41   A    
C5    C8    S    
C3    O2    A    
Cr1   O10   S    
C19   C48   S    
Cr2   O11   S    
C34   O13   A    
C22   C87   S    
C27   C78   A    
C92   C95   S    
C65   C74   A    
C31   C37   A    
C81   Cl24  S    
C61   C64   A    
C92   H2    S    
C64   C70   A    
C14   C89   S    
C49   Cl19  S    
Cr5   O25   S    
Cr3   O15   S    
Cr1   O7    S    
C59   H14   S    
Cr2   O14   S    
C7    C88   S    
C49   C52   A    
Cr3   O9    S    
C67   C91   S    
C60   H15   S    
C32   C44   A    
C62   H11   S    
C40   Cl13  S    
C35   O14   A    
Cr4   O17   S    
C33   C39   A    
C81   H21   S    
C37   H7    S    
C84   Cl27  S    
C36   O15   A    
C38   H8    S    
C20   O19   A    
Cr1   O1    S    
C52   C58   A    
C83   H23   S    
C41   Cl14  S    
C81   C90   S    
C19   O18   A    
C93   C96   S    
C6    C96   S    
C4    C94   S    
C43   Cl7   S    
C25   Cl10  S    
C24   O4    A    
C80   Cl23  S    
C69   C90   S    
C50   C77   A    
C81   C84   S    
C23   O25   A    
C45   C48   A    
C11   C95   S    
C82   C94   S    
C2    O8    A    
C59   C62   A    
C12   C87   T    
C29   C41   A    
Cr5   O18   S    
Cr4   O4    S    
C30   C42   A    
C47   C74   A    
C9    C90   S    
C79   C82   S    
C52   C55   A    
C91   H1    S    
C29   C56   A    
C34   O12   A    
C39   H9    S    
C35   C78   S    
C9    Cl30  S    
C7    Cl28  S    
C51   C54   A    
C25   C76   A    
C21   O22   A    
C51   C78   A    
C21   O17   A    
C65   C71   A    
Cr3   O16   S    
C67   H16   S    
C15   C90   S    
C2    O1    A    
C27   Cl12  S    
Cr2   O2    S    
C66   C75   A    
C13   C88   S    
C68   C92   S    
C7    H25   S    
Cr4   O20   S    
C57   C72   A    
C6    Cl6   S    
C43   C46   A    
C53   C56   A    
C26   Cl11  S    
C55   C70   A    
C93   H6    S    
C35   O10   A    
C4    Cl4   S    
C75   Cl18  S    
C91   H4    S    
C1    C17   S    
C26   C29   A    
C44   Cl8   S    
C23   C85   S    
C13   C16   T    
C73   Cl16  S    
C45   Cl9   S    
C10   C94   S    
C84   H24   S    
C12   C96   S    
C8    C89   S    
C63   H12   S    
C68   C89   S    
C93   H3    S    
Cr6   O26   S    
C24   C86   S    
C46   C73   A    
C20   C46   S    
C3    C16   S    
C56   C71   A    
Cr2   O16   S    
C91   C94   S    
C54   C57   A    
