data_mof_unit_9326.cif
_audit_creation_date              2012-10-26T19:18:50-0400
_audit_creation_method            fapswitch 2.2
_symmetry_space_group_name_H-M    P1
_symmetry_Int_Tables_number       1
_space_group_crystal_system       triclinic
_cell_length_a                    9.725564
_cell_length_b                    10.934453
_cell_length_c                    15.565587
_cell_angle_alpha                 89.884288
_cell_angle_beta                  73.694869
_cell_angle_gamma                 90.317384
_cell_volume                      1588.69105829

loop_
_atom_site_label
_atom_site_type_symbol
_atom_type_description
_atom_site_fract_x
_atom_site_fract_y
_atom_site_fract_z
_atom_type_partial_charge
C1    C     C_R   0.999311 0.265470 0.501109 0.557207
C2    C     C_R   0.226962 0.516570 0.042879 0.050834
C3    C     C_R   0.325924 0.488645 0.091741 0.033257
C4    C     C_R   0.916819 0.498449 0.671905 0.547019
C5    C     C_R   0.081533 0.534106 0.087326 -0.141395
C6    C     C_R   0.032777 0.525846 0.180177 -0.138279
C7    C     C_R   0.274389 0.484208 0.185569 -0.137510
C8    C     C_2   0.886922 0.932423 0.501246 -0.157224
C9    C     C_2   0.005481 0.866638 0.494319 -0.120015
C10   C     C_2   0.888235 0.066412 0.497360 -0.160096
C11   C     C_2   0.999392 0.133477 0.505645 -0.116416
C12   C     C_R   0.669705 0.478432 0.905899 0.033495
C13   C     C_2   0.400923 0.428092 0.549940 0.045308
C14   C     C_2   0.550319 0.443103 0.559875 -0.004719
C15   C     C_R   0.000897 0.734560 0.498820 0.554124
C16   C     C_R   0.083207 0.500506 0.328033 0.544854
C17   C     C_R   0.870081 0.486603 0.769696 -0.001209
C18   C     C_R   0.129523 0.502448 0.229788 -0.002730
C19   C     C_R   0.912263 0.423515 0.908872 -0.143164
C20   C     C_R   0.963740 0.446540 0.817423 -0.140309
C21   C     C_R   0.725751 0.505838 0.814437 -0.134034
C22   C     C_3   0.440947 0.647034 0.387924 -0.249206
C23   C     C_R   0.766532 0.439262 0.953399 0.050682
C24   C     C_R   0.520857 0.488799 0.951210 0.033728
C25   C     C_R   0.473145 0.469689 0.045516 0.033117
C26   C     C_R   0.573717 0.430374 0.090114 -0.141170
C27   C     C_R   0.717083 0.414906 0.044621 -0.139128
C28   C     C_R   0.417753 0.514630 0.905091 -0.138969
C29   C     C_R   0.273908 0.527629 0.950226 -0.138580
Cu1   Cu    Cu3+1 0.138640 0.500020 0.499980 0.933618
Cu2   Cu    Cu3+1 0.861360 0.499980 0.500020 0.932047
H1    H     H_    0.789995 0.383766 0.081388 0.108701
H2    H     H_    0.345589 0.469956 0.226336 0.117226
H3    H     H_    0.920338 0.540800 0.213124 0.125581
H4    H     H_    0.198981 0.547846 0.912140 0.108535
H5    H     H_    0.985949 0.390914 0.944511 0.108622
H6    H     H_    0.075688 0.430278 0.783832 0.122649
H7    H     H_    0.659579 0.542925 0.775926 0.119781
H8    H     H_    0.545026 0.406936 0.160111 0.100061
H9    H     H_    0.443510 0.522516 0.833387 0.100196
H10   H     H_    0.363347 0.679042 0.525074 0.266749
H11   H     H_    0.523633 0.720448 0.372943 0.105138
H12   H     H_    0.005694 0.556011 0.050327 0.110934
H13   H     H_    0.343358 0.683017 0.373619 0.176828
H14   H     H_    0.482393 0.568156 0.343406 0.134913
H15   H     H_    0.784485 0.887152 0.508723 0.152386
H16   H     H_    0.110262 0.908148 0.483228 0.095082
H17   H     H_    0.793114 0.110528 0.488783 0.147873
H18   H     H_    0.093485 0.092936 0.517721 0.098986
H19   H     H_    0.335460 0.354094 0.586771 0.093642
H20   H     H_    0.573309 0.401597 0.617606 0.123776
H21   H     H_    0.636992 0.516179 0.439644 0.244041
N1    N     N_2   0.346430 0.498660 0.500980 -0.134624
N2    N     N_2   0.652550 0.498630 0.501000 -0.336979
N3    N     N_2   0.411849 0.611588 0.480939 -0.420356
O1    O     O_R   0.117050 0.321960 0.499980 -0.504179
O2    O     O_R   0.882890 0.321920 0.500020 -0.494360
O3    O     O_R   0.052910 0.500040 0.629810 -0.503378
O4    O     O_R   0.818750 0.499990 0.629840 -0.503802
O5    O     O_R   0.117110 0.678080 0.499980 -0.512090
O6    O     O_R   0.882950 0.678040 0.500020 -0.484822
O7    O     O_R   0.181250 0.500010 0.370160 -0.506270
O8    O     O_R   0.947090 0.499960 0.370190 -0.505978

loop_
_geom_bond_atom_site_label_1
_geom_bond_atom_site_label_2
_ccdc_geom_bond_type
C19   C23   A    
C17   C21   A    
C22   N3    S    
C11   H18   S    
C16   O8    A    
C23   C27   A    
C24   C28   A    
C15   O5    A    
Cu2   O6    S    
C3    C7    A    
C19   C20   A    
C1    C11   S    
Cu1   Cu2   S    
C7    C18   A    
Cu2   O2    S    
N1    N3    S    
C2    C3    A    
C15   O6    A    
C25   C26   A    
C13   C14   S    
C20   H6    S    
C7    H2    S    
C12   C23   A    
C26   C27   A    
C22   H11   S    
C16   O7    A    
C2    C29   A    
C4    C17   S    
Cu1   O3    S    
C4    O4    A    
C8    C10   S    
C28   C29   A    
C14   N2    D    
C1    O1    A    
H21   N2    S    
C9    H16   S    
C13   N1    D    
C19   H5    S    
Cu1   O7    S    
Cu2   N2    S    
C10   H17   S    
C5    C6    A    
C6    C18   A    
Cu1   N1    S    
C8    H15   S    
C26   H8    S    
C2    C5    A    
C10   C11   D    
C28   H9    S    
C4    O3    A    
C13   H19   S    
Cu2   O8    S    
C3    C25   A    
C17   C20   A    
C24   C25   A    
C14   H20   S    
C16   C18   S    
C22   H14   S    
Cu2   O4    S    
C29   H4    S    
C5    H12   S    
C22   H13   S    
C12   C24   A    
C27   H1    S    
C9    C15   S    
Cu1   O1    S    
C12   C21   A    
H10   N3    S    
C21   H7    S    
C6    H3    S    
Cu1   O5    S    
C8    C9    D    
C1    O2    A    
