data_mof_unit_58452.cif
_audit_creation_date              2012-12-11T14:38:29-0500
_audit_creation_method            fapswitch 2.2
_symmetry_space_group_name_H-M    P1
_symmetry_Int_Tables_number       1
_space_group_crystal_system       triclinic
_cell_length_a                    19.60999
_cell_length_b                    11.069982
_cell_length_c                    19.647445
_cell_angle_alpha                 90.0
_cell_angle_beta                  96.422489
_cell_angle_gamma                 89.999986
_cell_volume                      4238.34384505

loop_
_atom_site_label
_atom_site_type_symbol
_atom_type_description
_atom_site_fract_x
_atom_site_fract_y
_atom_site_fract_z
_atom_type_partial_charge
C1    C     C_R   0.723969 0.955423 0.360932 0.547095
C2    C     C_3   0.175772 0.484307 0.469685 -0.210112
C3    C     C_R   0.548023 0.704898 0.912511 -0.114246
C4    C     C_R   0.607617 0.773517 0.923002 -0.086640
C5    C     C_R   0.603971 0.899323 0.930592 -0.100611
C6    C     C_R   0.459370 0.958886 0.069606 0.038873
C7    C     C_R   0.519030 0.886858 0.082830 -0.033619
C8    C     C_R   0.515337 0.761848 0.091232 -0.109881
C9    C     C_R   0.451977 0.704897 0.087488 -0.114246
C10   C     C_R   0.392383 0.773515 0.076997 -0.086640
C11   C     C_R   0.396028 0.899322 0.069408 -0.100611
C12   C     C_R   0.040629 0.458886 0.930393 0.038873
C13   C     C_3   0.324227 0.984306 0.530315 -0.210112
C14   C     C_R   0.980969 0.386858 0.917171 -0.033618
C15   C     C_R   0.984663 0.261848 0.908768 -0.109881
C16   C     C_R   0.048022 0.204898 0.912510 -0.114246
C17   C     C_R   0.107616 0.273516 0.923001 -0.086640
C18   C     C_R   0.103971 0.399323 0.930591 -0.100611
C19   C     C_R   0.959371 0.458886 0.069606 0.038873
C20   C     C_R   0.019031 0.386858 0.082829 -0.033619
C21   C     C_R   0.015337 0.261848 0.091232 -0.109881
C22   C     C_R   0.951977 0.204898 0.087488 -0.114246
C23   C     C_R   0.892383 0.273517 0.076997 -0.086640
C24   C     C_3   0.675773 0.984307 0.469685 -0.210112
C25   C     C_R   0.896028 0.399323 0.069408 -0.100611
C26   C     C_3   0.763808 0.293160 0.553879 -0.262876
C27   C     C_3   0.236192 0.293160 0.446121 -0.262876
C28   C     C_3   0.263808 0.793160 0.553879 -0.262876
C29   C     C_3   0.736192 0.793160 0.446121 -0.262876
C30   C     C_3   0.763429 0.428512 0.566352 0.064595
C31   C     C_3   0.236571 0.428512 0.433648 0.064594
C32   C     C_3   0.263429 0.928512 0.566352 0.064594
C33   C     C_R   0.276031 0.955423 0.639068 0.547095
C34   C     C_3   0.736571 0.928512 0.433648 0.064594
C35   C     C_3   0.747209 0.393206 0.435007 0.052586
C36   C     C_3   0.252791 0.393206 0.564993 0.052585
C37   C     C_3   0.247209 0.893206 0.435007 0.052586
C38   C     C_3   0.752791 0.893206 0.564993 0.052585
C39   C     C_3   0.807854 0.479718 0.452039 -0.256633
C40   C     C_3   0.192146 0.479718 0.547960 -0.256633
C41   C     C_3   0.307854 0.979718 0.452039 -0.256633
C42   C     C_3   0.692146 0.979718 0.547960 -0.256633
C43   C     C_3   0.765150 0.275473 0.476894 -0.221498
C44   C     C_R   0.223969 0.455423 0.360932 0.547095
C45   C     C_3   0.234850 0.275473 0.523106 -0.221498
C46   C     C_3   0.265150 0.775473 0.476894 -0.221498
C47   C     C_3   0.734850 0.775473 0.523106 -0.221498
C48   C     C_3   0.490416 0.305103 0.961917 -0.257042
C49   C     C_3   0.509582 0.305103 0.038083 -0.257042
C50   C     C_3   0.990417 0.805103 0.961916 -0.257042
C51   C     C_3   0.009584 0.805103 0.038083 -0.257041
C52   C     C_3   0.420074 0.125699 0.983695 -0.251202
C53   C     C_3   0.579924 0.125700 0.016305 -0.251202
C54   C     C_3   0.920075 0.625700 0.983695 -0.251202
C55   C     C_R   0.776031 0.455423 0.639068 0.547095
C56   C     C_3   0.079925 0.625699 0.016304 -0.251202
C57   C     C_3   0.542124 0.097056 0.944303 -0.078886
C58   C     C_3   0.457875 0.097055 0.055697 -0.078887
C59   C     C_3   0.042124 0.597055 0.944303 -0.078886
C60   C     C_3   0.957876 0.597056 0.055697 -0.078886
C61   C     C_R   0.535876 0.180249 0.338524 0.545353
C62   C     C_R   0.464124 0.180249 0.661476 0.545353
C63   C     C_R   0.035876 0.680249 0.338524 0.545353
C64   C     C_R   0.964124 0.680249 0.661476 0.545353
C65   C     C_3   0.473028 0.173105 0.936326 0.046371
C66   C     C_3   0.681133 0.449535 0.457745 -0.233806
C67   C     C_3   0.526970 0.173105 0.063674 0.046371
C68   C     C_3   0.973029 0.673106 0.936326 0.046371
C69   C     C_3   0.026971 0.673105 0.063674 0.046371
C70   C     C_1   0.755336 0.410005 0.899702 -0.027640
C71   C     C_1   0.244664 0.410005 0.100298 -0.027640
C72   C     C_1   0.255336 0.910004 0.899702 -0.027640
C73   C     C_1   0.744664 0.910005 0.100298 -0.027640
C74   C     C_1   0.729644 0.357825 0.024761 -0.086452
C75   C     C_1   0.270356 0.357827 0.975239 -0.086452
C76   C     C_1   0.229643 0.857825 0.024761 -0.086452
C77   C     C_3   0.318867 0.449535 0.542255 -0.233807
C78   C     C_1   0.770356 0.857827 0.975239 -0.086452
C79   C     C_1   0.741000 0.383199 0.956098 -0.062993
C80   C     C_1   0.259000 0.383200 0.043902 -0.062993
C81   C     C_1   0.241000 0.883199 0.956098 -0.062993
C82   C     C_1   0.759000 0.883201 0.043902 -0.062993
C83   C     C_1   0.725178 0.337426 0.084678 -0.052256
C84   C     C_1   0.274821 0.337428 0.915322 -0.052257
C85   C     C_1   0.225178 0.837426 0.084678 -0.052256
C86   C     C_1   0.774821 0.837428 0.915322 -0.052257
C87   C     C_R   0.738701 0.360355 0.362085 0.550167
C88   C     C_3   0.181133 0.949535 0.457745 -0.233806
C89   C     C_R   0.261299 0.360355 0.637915 0.550167
C90   C     C_R   0.238701 0.860355 0.362085 0.550168
C91   C     C_R   0.761299 0.860355 0.637915 0.550167
C92   C     C_R   0.722872 0.952297 0.163872 0.527693
C93   C     C_R   0.277128 0.952297 0.836128 0.527693
C94   C     C_R   0.222872 0.452297 0.163872 0.527693
C95   C     C_R   0.777128 0.452297 0.836128 0.527693
C96   C     C_R   0.556511 0.181436 0.135808 0.523725
C97   C     C_R   0.443488 0.181436 0.864192 0.523724
C98   C     C_R   0.056512 0.681436 0.135808 0.523722
C99   C     C_3   0.818867 0.949535 0.542255 -0.233807
C100  C     C_R   0.943489 0.681436 0.864192 0.523724
C101  C     C_R   0.722126 0.310358 0.156136 0.545546
C102  C     C_R   0.277874 0.310358 0.843864 0.545544
C103  C     C_R   0.222126 0.810357 0.156136 0.545545
C104  C     C_R   0.777874 0.810358 0.843864 0.545544
C105  C     C_1   0.485495 0.172669 0.594350 -0.030910
C106  C     C_1   0.514505 0.172669 0.405650 -0.030910
C107  C     C_1   0.985495 0.672669 0.594350 -0.030910
C108  C     C_1   0.014505 0.672669 0.405650 -0.030910
C109  C     C_1   0.504293 0.169432 0.464889 -0.069055
C110  C     C_3   0.824227 0.484307 0.530315 -0.210112
C111  C     C_1   0.495707 0.169432 0.535111 -0.069055
C112  C     C_1   0.004293 0.669432 0.464889 -0.069055
C113  C     C_1   0.995707 0.669432 0.535111 -0.069055
C114  C     C_3   0.691124 0.472446 0.534970 -0.236647
C115  C     C_3   0.308876 0.472446 0.465030 -0.236647
C116  C     C_3   0.191124 0.972446 0.534970 -0.236647
C117  C     C_3   0.808876 0.972446 0.465030 -0.236647
C118  C     C_R   0.540629 0.958886 0.930394 0.038874
C119  C     C_R   0.480969 0.886858 0.917171 -0.033619
C120  C     C_R   0.484663 0.761848 0.908768 -0.109881
Cr1   Cr    Cr6+3 0.765780 0.160710 0.267420 1.006477
Cr2   Cr    Cr6+3 0.383970 0.323720 0.751490 1.006758
Cr3   Cr    Cr6+3 0.116030 0.823720 0.248510 1.006758
Cr4   Cr    Cr6+3 0.883970 0.823720 0.751490 1.006758
Cr5   Cr    Cr6+3 0.234220 0.160710 0.732580 1.006477
Cr6   Cr    Cr6+3 0.265780 0.660710 0.267420 1.006477
Cr7   Cr    Cr6+3 0.734220 0.660710 0.732580 1.006477
Cr8   Cr    Cr6+3 0.612200 0.009560 0.248850 1.008092
Cr9   Cr    Cr6+3 0.387800 0.009560 0.751150 1.008093
Cr10  Cr    Cr6+3 0.112200 0.509560 0.248850 1.008093
Cr11  Cr    Cr6+3 0.887800 0.509560 0.751150 1.008093
Cr12  Cr    Cr6+3 0.616030 0.323720 0.248510 1.006758
H1    H     H_    0.682258 0.566994 0.545978 0.132191
H2    H     H_    0.129041 0.428199 0.455993 0.139238
H3    H     H_    0.370959 0.928199 0.544006 0.139238
H4    H     H_    0.629041 0.928199 0.455993 0.139238
H5    H     H_    0.854064 0.448595 0.428826 0.131967
H6    H     H_    0.145936 0.448595 0.571174 0.131967
H7    H     H_    0.354064 0.948595 0.428826 0.131967
H8    H     H_    0.645936 0.948595 0.571174 0.131967
H9    H     H_    0.445909 0.367349 0.950078 0.139078
H10   H     H_    0.554089 0.367350 0.049922 0.139079
H11   H     H_    0.945910 0.867350 0.950078 0.139078
H12   H     H_    0.317742 0.566994 0.454022 0.132191
H13   H     H_    0.054091 0.867349 0.049922 0.139078
H14   H     H_    0.534155 0.342097 0.936686 0.145116
H15   H     H_    0.465843 0.342096 0.063314 0.145116
H16   H     H_    0.034157 0.842096 0.936686 0.145116
H17   H     H_    0.965845 0.842097 0.063314 0.145116
H18   H     H_    0.382259 0.198564 0.989875 0.102915
H19   H     H_    0.617740 0.198565 0.010125 0.102915
H20   H     H_    0.882260 0.698566 0.989875 0.102915
H21   H     H_    0.117741 0.698564 0.010124 0.102915
H22   H     H_    0.425567 0.135123 0.093744 0.124083
H23   H     H_    0.182258 0.066994 0.545978 0.132191
H24   H     H_    0.574432 0.135124 0.906256 0.124084
H25   H     H_    0.925568 0.635124 0.093744 0.124084
H26   H     H_    0.074432 0.635123 0.906256 0.124083
H27   H     H_    0.614347 0.053505 0.037678 0.091417
H28   H     H_    0.385652 0.053504 0.962321 0.091416
H29   H     H_    0.114347 0.553504 0.037678 0.091417
H30   H     H_    0.885652 0.553506 0.962322 0.091416
H31   H     H_    0.650373 0.423809 0.559252 0.117433
H32   H     H_    0.349627 0.423809 0.440748 0.117433
H33   H     H_    0.150373 0.923809 0.559252 0.117433
H34   H     H_    0.817742 0.066994 0.454022 0.132191
H35   H     H_    0.849627 0.923809 0.440748 0.117433
H36   H     H_    0.637031 0.386786 0.445714 0.144999
H37   H     H_    0.362969 0.386785 0.554286 0.144999
H38   H     H_    0.137031 0.886786 0.445714 0.144999
H39   H     H_    0.862969 0.886786 0.554286 0.144999
H40   H     H_    0.668547 0.535524 0.429945 0.117923
H41   H     H_    0.331453 0.535524 0.570055 0.117923
H42   H     H_    0.168547 0.035524 0.429945 0.117923
H43   H     H_    0.831453 0.035524 0.570055 0.117923
H44   H     H_    0.341852 0.074194 0.548648 0.107127
H45   H     H_    0.818681 0.250831 0.469370 0.132790
H46   H     H_    0.658147 0.074194 0.451352 0.107127
H47   H     H_    0.841853 0.574194 0.548648 0.107127
H48   H     H_    0.158147 0.574194 0.451352 0.107127
H49   H     H_    0.294603 0.068814 0.430478 0.111357
H50   H     H_    0.705396 0.068814 0.569522 0.111357
H51   H     H_    0.794603 0.568814 0.430478 0.111357
H52   H     H_    0.205396 0.568814 0.569522 0.111357
H53   H     H_    0.808964 0.248092 0.582530 0.128549
H54   H     H_    0.191036 0.248092 0.417470 0.128549
H55   H     H_    0.308964 0.748092 0.582530 0.128549
H56   H     H_    0.181319 0.250831 0.530630 0.132790
H57   H     H_    0.691036 0.748092 0.417470 0.128549
H58   H     H_    0.716724 0.254482 0.571198 0.109045
H59   H     H_    0.283276 0.254482 0.428802 0.109045
H60   H     H_    0.216724 0.754482 0.571198 0.109044
H61   H     H_    0.783276 0.754482 0.428802 0.109045
H62   H     H_    0.730746 0.203321 0.458050 0.124606
H63   H     H_    0.269254 0.203321 0.541950 0.124606
H64   H     H_    0.230746 0.703322 0.458050 0.124606
H65   H     H_    0.769254 0.703321 0.541950 0.124606
H66   H     H_    0.430803 0.923164 0.912389 0.152089
H67   H     H_    0.318681 0.750831 0.469370 0.132790
H68   H     H_    0.438053 0.709074 0.899560 0.120940
H69   H     H_    0.550969 0.607852 0.906642 0.112121
H70   H     H_    0.656379 0.727891 0.925210 0.136317
H71   H     H_    0.650543 0.951832 0.937338 0.121147
H72   H     H_    0.569197 0.923165 0.087612 0.152089
H73   H     H_    0.561947 0.709074 0.100440 0.120940
H74   H     H_    0.449031 0.607851 0.093358 0.112120
H75   H     H_    0.343621 0.727889 0.074789 0.136316
H76   H     H_    0.349457 0.951830 0.062662 0.121147
H77   H     H_    0.930802 0.423164 0.912389 0.152088
H78   H     H_    0.681319 0.750831 0.530630 0.132790
H79   H     H_    0.938053 0.209074 0.899560 0.120940
H80   H     H_    0.050968 0.107852 0.906641 0.112121
H81   H     H_    0.156378 0.227890 0.925208 0.136317
H82   H     H_    0.150543 0.451831 0.937336 0.121147
H83   H     H_    0.069197 0.423164 0.087612 0.152089
H84   H     H_    0.061947 0.209074 0.100440 0.120940
H85   H     H_    0.949031 0.107852 0.093358 0.112121
H86   H     H_    0.843621 0.227891 0.074789 0.136317
H87   H     H_    0.849457 0.451831 0.062662 0.121147
H88   H     H_    0.870959 0.428199 0.544006 0.139238
O1    O     O_R   0.783100 0.287550 0.345460 -0.525610
O2    O     O_R   0.454350 0.284910 0.836260 -0.529833
O3    O     O_R   0.045650 0.784910 0.163740 -0.529833
O4    O     O_R   0.954350 0.784910 0.836260 -0.529834
O5    O     O_R   0.677950 0.374280 0.185410 -0.496708
O6    O     O_R   0.322050 0.374280 0.814590 -0.496708
O7    O     O_R   0.177950 0.874280 0.185410 -0.496709
O8    O     O_R   0.822050 0.874280 0.814590 -0.496708
O9    O     O_3   0.664670 0.164660 0.254930 -0.287209
O10   O     O_3   0.335330 0.164660 0.745070 -0.287209
O11   O     O_3   0.164670 0.664660 0.254930 -0.287210
O12   O     O_R   0.216900 0.287550 0.654540 -0.525609
O13   O     O_3   0.835330 0.664660 0.745070 -0.287209
O14   O     O_R   0.760020 0.037400 0.337700 -0.512188
O15   O     O_R   0.239980 0.037400 0.662300 -0.512188
O16   O     O_R   0.260020 0.537400 0.337700 -0.512188
O17   O     O_R   0.739980 0.537400 0.662300 -0.512188
O18   O     O_R   0.666600 0.921990 0.332020 -0.521901
O19   O     O_R   0.333400 0.921990 0.667980 -0.521901
O20   O     O_R   0.166600 0.421990 0.332020 -0.521901
O21   O     O_R   0.833400 0.421990 0.667980 -0.521901
O22   O     O_R   0.557260 0.082670 0.312540 -0.490787
O23   O     O_R   0.283100 0.787550 0.345460 -0.525610
O24   O     O_R   0.442740 0.082670 0.687460 -0.490787
O25   O     O_R   0.057260 0.582670 0.312540 -0.490787
O26   O     O_R   0.942740 0.582670 0.687460 -0.490787
O27   O     O_R   0.548410 0.285740 0.316480 -0.509772
O28   O     O_R   0.451590 0.285740 0.683520 -0.509772
O29   O     O_R   0.048410 0.785740 0.316480 -0.509772
O30   O     O_R   0.951590 0.785740 0.683520 -0.509772
O31   O     O_R   0.680500 0.375040 0.327000 -0.501046
O32   O     O_R   0.319500 0.375040 0.673000 -0.501046
O33   O     O_R   0.180500 0.875040 0.327000 -0.501046
O34   O     O_R   0.716900 0.787550 0.654540 -0.525609
O35   O     O_R   0.819500 0.875040 0.673000 -0.501046
O36   O     O_R   0.780350 0.286720 0.192720 -0.500784
O37   O     O_R   0.219650 0.286720 0.807280 -0.500784
O38   O     O_R   0.280350 0.786720 0.192720 -0.500783
O39   O     O_R   0.719650 0.786720 0.807280 -0.500783
O40   O     O_R   0.757470 0.036630 0.196110 -0.509942
O41   O     O_R   0.242530 0.036630 0.803890 -0.509942
O42   O     O_R   0.257470 0.536630 0.196110 -0.509942
O43   O     O_R   0.742530 0.536630 0.803890 -0.509942
O44   O     O_R   0.663840 0.921160 0.179280 -0.532545
O45   O     O_R   0.554710 0.081900 0.170950 -0.504446
O46   O     O_R   0.336160 0.921160 0.820720 -0.532546
O47   O     O_R   0.163840 0.421160 0.179280 -0.532545
O48   O     O_R   0.836160 0.421160 0.820720 -0.532545
O49   O     O_R   0.445290 0.081900 0.829050 -0.504445
O50   O     O_R   0.054710 0.581900 0.170950 -0.504445
O51   O     O_R   0.945290 0.581900 0.829050 -0.504445
O52   O     O_R   0.545650 0.284910 0.163740 -0.529834

loop_
_geom_bond_atom_site_label_1
_geom_bond_atom_site_label_2
_ccdc_geom_bond_type
C36   C89   S    
C45   H63   S    
C13   H44   S    
C39   H5    S    
C98   O3    A    
C52   H28   S    
Cr8   O9    S    
C89   O32   A    
C21   H84   S    
Cr7   O34   S    
C84   C102  S    
C6    C58   S    
C13   C32   S    
C19   C20   A    
C74   C83   T    
Cr5   O12   S    
C86   C104  S    
Cr12  O9    S    
C13   C41   S    
C95   O48   A    
C7    C8    A    
C71   C94   S    
C54   C60   S    
C24   C42   S    
C98   O50   A    
C37   C88   S    
C87   O31   A    
C94   O47   A    
C28   C46   S    
C2    H2    S    
C2    H48   S    
C37   C90   S    
C29   C47   S    
C43   H62   S    
C55   O21   A    
C110  H47   S    
C66   H40   S    
Cr11  O26   S    
C61   O22   A    
C38   C42   S    
C76   C81   S    
C36   C77   S    
C109  C111  S    
Cr8   O22   S    
Cr10  O50   S    
C59   H26   S    
C38   C99   S    
C75   C84   T    
C96   O52   A    
C99   H39   S    
C51   H13   S    
C103  O7    A    
C15   C16   A    
Cr2   O6    S    
Cr5   O37   S    
C102  O6    A    
C88   H42   S    
C97   O2    A    
C49   H15   S    
Cr6   O42   S    
C101  O5    A    
C114  H31   S    
C115  H32   S    
C83   C101  S    
C118  C119  A    
C107  C113  T    
C116  H23   S    
C15   H79   S    
C58   H22   S    
C92   O40   A    
C12   C59   S    
C35   C87   S    
C39   C110  S    
Cr4   O4    S    
C41   H7    S    
C16   C17   A    
C48   H14   S    
C26   C43   S    
Cr4   O30   S    
Cr8   O45   S    
Cr1   O1    S    
C48   C65   S    
Cr6   O16   S    
C9    C10   A    
C1    O14   A    
C72   C81   T    
C33   O15   A    
Cr10  O11   S    
C69   C98   S    
C27   C45   S    
C34   C117  S    
C95   O43   A    
C105  C111  T    
C23   H86   S    
C21   C22   A    
Cr9   O19   S    
C13   H3    S    
C91   O34   A    
C41   H49   S    
C18   H82   S    
C27   H59   S    
Cr4   O35   S    
C17   H81   S    
C44   O20   A    
C31   C115  S    
C71   C80   T    
Cr4   O8    S    
Cr10  O25   S    
C1    C34   S    
C104  O8    A    
C93   O41   A    
Cr5   O15   S    
C26   H58   S    
C63   O25   A    
C57   H24   S    
C42   H50   S    
C53   H27   S    
C88   H38   S    
C31   C44   S    
Cr6   O38   S    
C27   C31   S    
C20   H83   S    
C28   C32   S    
C101  O36   A    
Cr1   O9    S    
C60   H25   S    
C30   C110  S    
Cr5   O10   S    
Cr11  O21   S    
C28   H55   S    
C6    C11   A    
C62   C105  S    
C53   C57   S    
C8    C9    A    
C54   H20   S    
Cr11  O48   S    
Cr1   O40   S    
C35   C66   S    
C50   C51   S    
C91   O35   A    
C42   H8    S    
C56   H29   S    
Cr11  O13   S    
C108  C112  T    
C40   H6    S    
C2    C31   S    
C104  O39   A    
C88   C116  S    
C35   C39   S    
C10   H75   S    
C68   C100  S    
Cr12  O52   S    
C7    H72   S    
C33   O19   A    
Cr2   O10   S    
C59   C68   S    
C99   C117  S    
C78   C82   S    
C62   O28   A    
Cr4   O13   S    
C16   H80   S    
C117  H34   S    
C54   C68   S    
Cr10  O20   S    
C49   H10   S    
C17   C18   A    
Cr7   O13   S    
Cr11  O51   S    
C36   C45   S    
Cr12  O27   S    
Cr3   O29   S    
C32   C116  S    
C62   O24   A    
C61   C106  S    
C51   H17   S    
C38   C47   S    
C92   O44   A    
C52   C58   S    
C64   O30   A    
Cr10  O47   S    
C52   H18   S    
C48   C49   S    
C94   O42   A    
C90   O33   A    
C12   C14   A    
C26   C30   S    
C106  C109  T    
C74   C79   S    
C24   H46   S    
C67   C96   S    
C3    H69   S    
C103  O38   A    
Cr7   O39   S    
C116  H33   S    
C25   H87   S    
Cr7   O17   S    
C61   O27   A    
C11   H76   S    
C72   C93   S    
Cr5   O41   S    
C3    C4    A    
C87   O1    A    
C73   C82   T    
Cr6   O23   S    
C36   C40   S    
C110  H88   S    
C50   H11   S    
C55   O17   A    
C64   C107  S    
Cr2   O28   S    
C23   C25   A    
C30   C114  S    
Cr9   O10   S    
C50   H16   S    
C96   O45   A    
C115  H12   S    
C43   H45   S    
C77   H41   S    
C66   C114  S    
C14   H77   S    
C63   O29   A    
C70   C79   T    
C22   C23   A    
C22   H85   S    
C47   H65   S    
C73   C92   S    
C57   C65   S    
C56   H21   S    
C29   C34   S    
C85   C103  S    
C24   H4    S    
C5    H71   S    
C119  C120  A    
C56   C59   S    
C45   H56   S    
C49   C67   S    
C6    C7    A    
C93   O46   A    
Cr9   O24   S    
C1    O18   A    
C54   H30   S    
C30   C55   S    
Cr1   O14   S    
C102  O37   A    
C66   H36   S    
C5    C118  A    
C9    H74   S    
C10   C11   A    
C32   C33   S    
C44   O16   A    
Cr6   O11   S    
C37   C46   S    
C35   C43   S    
C65   C97   S    
C77   C115  S    
C4    H70   S    
C78   C86   T    
C46   H67   S    
Cr3   O7    S    
C99   H43   S    
Cr3   O3    S    
C60   C69   S    
C117  H35   S    
C29   H61   S    
C4    C5    A    
C38   C91   S    
C26   H53   S    
C114  H1    S    
Cr7   O43   S    
C48   H9    S    
C70   C95   S    
C112  C113  S    
Cr8   O44   S    
C89   O12   A    
C37   C41   S    
C8    H73   S    
C53   C67   S    
C24   C34   S    
Cr3   O33   S    
C119  H66   S    
Cr9   O49   S    
C3    C120  A    
C52   C65   S    
C19   C25   A    
Cr2   O32   S    
C2    C40   S    
C58   C67   S    
C120  H68   S    
C75   C80   S    
Cr3   O11   S    
C20   C21   A    
C29   H57   S    
Cr12  O5    S    
C77   H37   S    
C56   C69   S    
Cr2   O2    S    
C47   H78   S    
C12   C18   A    
C46   H64   S    
C97   O49   A    
C100  O4    A    
C14   C15   A    
C28   H60   S    
C19   C60   S    
C64   O26   A    
C51   C69   S    
Cr1   O36   S    
C63   C108  S    
C90   O23   A    
C50   C68   S    
C76   C85   T    
C27   H54   S    
Cr8   O18   S    
C39   H51   S    
Cr9   O46   S    
Cr12  O31   S    
C53   H19   S    
C57   C118  S    
C40   H52   S    
C100  O51   A    
