data_mof_unit_37942.cif
_audit_creation_date              2012-12-10T19:48:57-0500
_audit_creation_method            fapswitch 2.2
_symmetry_space_group_name_H-M    P1
_symmetry_Int_Tables_number       1
_space_group_crystal_system       triclinic
_cell_length_a                    26.024341
_cell_length_b                    26.075769
_cell_length_c                    22.164946
_cell_angle_alpha                 89.762404
_cell_angle_beta                  54.35172
_cell_angle_gamma                 89.923678
_cell_volume                      12222.5425529

loop_
_atom_site_label
_atom_site_type_symbol
_atom_type_description
_atom_site_fract_x
_atom_site_fract_y
_atom_site_fract_z
_atom_type_partial_charge
C1    C     C_R   0.849586 0.750208 0.301124 0.833680
C2    C     C_R   0.849675 0.249674 0.301223 0.822711
C3    C     C_R   0.348874 0.249672 0.301042 0.819690
C4    C     C_R   0.348901 0.750465 0.301092 0.827173
C5    C     C_R   0.443755 0.725244 0.559205 -0.233170
C6    C     C_R   0.444507 0.275201 0.557287 -0.227612
C7    C     C_R   0.944210 0.225674 0.557867 -0.224457
C8    C     C_R   0.942284 0.768853 0.561969 -0.233014
C9    C     C_R   0.445414 0.747004 0.499775 -0.049981
C10   C     C_R   0.447406 0.255322 0.496349 -0.050032
C11   C     C_R   0.947694 0.244302 0.495830 -0.046652
C12   C     C_R   0.945910 0.753664 0.498640 -0.051991
C13   C     C_R   0.501774 0.767831 0.442073 -0.003267
C14   C     C_R   0.506288 0.241502 0.433173 -0.030729
C15   C     C_R   0.007074 0.256567 0.431646 -0.026826
C16   C     C_R   0.005044 0.742510 0.435193 -0.024461
C17   C     C_3   0.528794 0.794571 0.370489 -0.217562
C18   C     C_3   0.526328 0.198423 0.379298 -0.294958
C19   C     C_3   0.028592 0.298574 0.375128 -0.228238
C20   C     C_3   0.034374 0.720370 0.359925 -0.304595
C21   C     C_3   0.584828 0.806996 0.375368 0.361609
C22   C     C_3   0.581503 0.190464 0.386444 0.365472
C23   C     C_3   0.081645 0.307728 0.385641 0.368472
C24   C     C_3   0.094161 0.713941 0.359529 0.353764
C25   C     C_3   0.458643 0.753976 0.952783 0.193999
C26   C     C_3   0.460159 0.262749 0.953134 0.180464
C27   C     C_3   0.962451 0.240466 0.955452 0.195354
C28   C     C_3   0.964515 0.761050 0.955036 0.181232
C29   C     C_3   0.539518 0.809119 0.955218 -0.444751
C30   C     C_3   0.524880 0.188927 0.955130 -0.471749
C31   C     C_3   0.034046 0.307931 0.955449 -0.472328
C32   C     C_3   0.036354 0.692999 0.955572 -0.472544
C33   C     C_3   0.497094 0.811541 0.042884 0.457493
C34   C     C_3   0.489031 0.185744 0.041835 0.455033
C35   C     C_3   0.990900 0.310728 0.043040 0.461603
C36   C     C_3   0.002855 0.691517 0.042203 0.459282
C37   C     C_1   0.384840 0.754033 0.221987 -0.171680
C38   C     C_1   0.384477 0.246182 0.221969 -0.149799
C39   C     C_1   0.888729 0.250397 0.222106 -0.158421
C40   C     C_1   0.888888 0.748895 0.221916 -0.151313
C41   C     C_3   0.531298 0.757256 0.926049 0.165177
C42   C     C_3   0.529680 0.244897 0.926400 0.136177
C43   C     C_3   0.034183 0.253444 0.926347 0.169055
C44   C     C_3   0.035849 0.747754 0.926475 0.137589
C45   C     C_R   0.650719 0.749956 0.698828 0.819398
C46   C     C_R   0.650660 0.249785 0.698875 0.823772
C47   C     C_R   0.150699 0.249934 0.698818 0.820575
C48   C     C_R   0.150965 0.749989 0.698827 0.823435
C49   C     C_3   0.414401 0.751057 0.041909 -0.276040
C50   C     C_3   0.414579 0.254571 0.042262 -0.199340
C51   C     C_3   0.921424 0.234778 0.043686 -0.260032
C52   C     C_3   0.921079 0.751843 0.043731 -0.204646
C53   C     C_3   0.454831 0.760812 0.073494 0.148736
C54   C     C_3   0.453850 0.239384 0.073548 0.162599
C55   C     C_3   0.959898 0.255333 0.073865 0.162346
C56   C     C_3   0.962842 0.743042 0.073503 0.158807
C57   C     C_3   0.501842 0.714793 0.046065 -0.502746
C58   C     C_3   0.505460 0.281385 0.046587 -0.532417
C59   C     C_3   0.015643 0.216910 0.044812 -0.520231
C60   C     C_3   0.010739 0.788183 0.045169 -0.532078
C61   C     C_3   0.549044 0.713206 0.959840 -0.167121
C62   C     C_3   0.554387 0.281675 0.960750 -0.134896
C63   C     C_3   0.060646 0.215805 0.958245 -0.173136
C64   C     C_3   0.058759 0.788245 0.958994 -0.133080
C65   C     C_1   0.415288 0.757585 0.155425 -0.106988
C66   C     C_1   0.414510 0.242438 0.155481 -0.084606
C67   C     C_1   0.921043 0.252285 0.155467 -0.095972
C68   C     C_1   0.922450 0.745979 0.155290 -0.089169
C69   C     C_1   0.574534 0.754157 0.844533 -0.060377
C70   C     C_1   0.574094 0.246228 0.844674 -0.126560
C71   C     C_1   0.076064 0.251786 0.844686 -0.059057
C72   C     C_1   0.078337 0.748632 0.844693 -0.126753
C73   C     C_1   0.609715 0.751671 0.777941 -0.158887
C74   C     C_1   0.609679 0.247802 0.778035 -0.164934
C75   C     C_1   0.110399 0.250628 0.777983 -0.159606
C76   C     C_1   0.111896 0.749355 0.777979 -0.165907
C77   C     C_R   0.746153 0.974642 0.451133 0.014394
C78   C     C_R   0.752630 0.026247 0.445811 -0.000217
C79   C     C_R   0.246409 0.474641 0.450763 0.008563
C80   C     C_R   0.240573 0.526244 0.455988 0.014320
C81   C     C_R   0.753639 0.945754 0.498246 -0.091668
C82   C     C_R   0.757563 0.054542 0.495146 -0.082790
C83   C     C_R   0.256180 0.445710 0.495942 -0.091353
C84   C     C_R   0.251981 0.554499 0.499843 -0.080187
C85   C     C_R   0.765479 0.972890 0.544059 -0.220485
C86   C     C_R   0.766530 0.026890 0.543292 -0.224500
C87   C     C_R   0.268419 0.472916 0.541346 -0.223722
C88   C     C_R   0.267178 0.526922 0.542515 -0.221037
C89   C     C_R   0.749491 0.609991 0.498828 0.811199
C90   C     C_R   0.749611 0.390010 0.498829 0.808075
C91   C     C_R   0.249460 0.109962 0.499007 0.807376
C92   C     C_R   0.249614 0.889993 0.498506 0.810206
C93   C     C_3   0.733101 0.031041 0.394185 0.106506
C94   C     C_3   0.726493 0.970780 0.399529 0.124850
C95   C     C_3   0.216999 0.530676 0.408176 0.120802
C96   C     C_3   0.225435 0.470481 0.400665 0.104428
C97   C     C_R   0.801355 0.526521 0.478260 -0.015826
C98   C     C_R   0.801289 0.473562 0.479051 -0.014141
C99   C     C_R   0.301679 0.026428 0.476810 -0.018044
C100  C     C_R   0.301973 0.973453 0.476055 -0.013395
C101  C     C_R   0.747528 0.554094 0.498799 -0.147404
C102  C     C_R   0.747731 0.445901 0.498749 -0.149651
C103  C     C_R   0.247346 0.054017 0.499279 -0.147824
C104  C     C_R   0.247893 0.945868 0.497519 -0.149832
C105  C     C_R   0.691209 0.527025 0.522906 -0.074968
C106  C     C_R   0.691506 0.472813 0.522084 -0.071046
C107  C     C_R   0.190833 0.026911 0.524019 -0.073210
C108  C     C_R   0.191372 0.972727 0.522107 -0.071263
C109  C     C_3   0.866895 0.470361 0.408921 0.014410
C110  C     C_3   0.866442 0.529038 0.406887 0.034290
C111  C     C_3   0.366105 0.971498 0.403237 0.025294
C112  C     C_3   0.365997 0.030157 0.404704 0.025818
C113  C     C_R   0.750309 0.890121 0.499888 0.806433
C114  C     C_R   0.751693 0.109962 0.498858 0.810619
C115  C     C_R   0.251535 0.390103 0.498815 0.811598
C116  C     C_R   0.249967 0.609969 0.500345 0.803387
C117  C     C_R   0.890000 0.750602 0.499765 0.803804
C118  C     C_R   0.890530 0.249008 0.499119 0.796181
C119  C     C_R   0.390358 0.250834 0.499354 0.792362
C120  C     C_R   0.390074 0.749220 0.499717 0.814230
C121  C     C_R   0.609754 0.750615 0.500344 0.790589
C122  C     C_R   0.609721 0.249713 0.500280 0.794147
C123  C     C_R   0.109702 0.250198 0.500139 0.782092
C124  C     C_R   0.110377 0.750329 0.499156 0.792379
C125  C     C_R   0.553014 0.772628 0.443507 0.007493
C126  C     C_R   0.557388 0.236760 0.436392 0.033099
C127  C     C_R   0.058537 0.260794 0.434474 -0.004626
C128  C     C_R   0.057149 0.738922 0.435306 0.065824
C129  C     C_R   0.553868 0.750919 0.500679 -0.080935
C130  C     C_R   0.554588 0.251842 0.498672 -0.059116
C131  C     C_R   0.054710 0.247728 0.498218 -0.059743
C132  C     C_R   0.055290 0.751863 0.497772 -0.073208
C133  C     C_R   0.497790 0.726706 0.559186 -0.216596
C134  C     C_R   0.497923 0.273924 0.558049 -0.233765
C135  C     C_R   0.997498 0.227024 0.558762 -0.222195
C136  C     C_R   0.996650 0.768405 0.561256 -0.232663
H1    H     H_    0.495101 0.709910 0.605718 0.169001
H2    H     H_    0.493852 0.287878 0.606629 0.167229
H3    H     H_    0.992920 0.214482 0.608340 0.164435
H4    H     H_    0.992250 0.779451 0.611140 0.166339
H5    H     H_    0.528087 0.841888 0.933274 0.167828
H6    H     H_    0.501284 0.164488 0.937211 0.138417
H7    H     H_    0.021478 0.337648 0.930672 0.150493
H8    H     H_    0.013472 0.666209 0.939371 0.133647
H9    H     H_    0.543419 0.676693 0.939690 0.137967
H10   H     H_    0.554885 0.321070 0.941181 0.145594
H11   H     H_    0.060194 0.177209 0.939078 0.138827
H12   H     H_    0.056124 0.826619 0.939027 0.145372
H13   H     H_    0.475826 0.677750 0.066480 0.147596
H14   H     H_    0.483307 0.319834 0.065442 0.160009
H15   H     H_    0.997460 0.177470 0.065886 0.155569
H16   H     H_    0.985840 0.825446 0.063560 0.155451
H17   H     H_    0.398981 0.710722 0.058397 0.138163
H18   H     H_    0.394768 0.292157 0.066892 0.113669
H19   H     H_    0.916116 0.193397 0.057721 0.131980
H20   H     H_    0.895980 0.787970 0.068889 0.105934
H21   H     H_    0.527731 0.716960 0.071853 0.205122
H22   H     H_    0.528971 0.276050 0.074832 0.188469
H23   H     H_    0.041917 0.227082 0.068531 0.200704
H24   H     H_    0.035253 0.786141 0.072642 0.196181
H25   H     H_    0.772120 0.952737 0.581848 0.173239
H26   H     H_    0.772716 0.046677 0.581509 0.172445
H27   H     H_    0.277895 0.452764 0.576699 0.173032
H28   H     H_    0.276899 0.546752 0.577683 0.172094
H29   H     H_    0.400883 0.707873 0.605914 0.162601
H30   H     H_    0.400386 0.289255 0.605869 0.163533
H31   H     H_    0.899668 0.212814 0.607251 0.161704
H32   H     H_    0.897440 0.779647 0.612471 0.162446
H33   H     H_    0.868452 0.451406 0.362923 0.125917
H34   H     H_    0.866149 0.545153 0.360411 0.123340
H35   H     H_    0.364470 0.954835 0.358146 0.121906
H36   H     H_    0.365009 0.048807 0.360056 0.124582
H37   H     H_    0.500781 0.828290 0.375141 0.158145
H38   H     H_    0.491369 0.166667 0.402507 0.172515
H39   H     H_    0.993738 0.329966 0.393972 0.164542
H40   H     H_    0.011356 0.683779 0.362696 0.169738
H41   H     H_    0.589494 0.816412 0.930715 0.175284
H42   H     H_    0.571927 0.171284 0.926479 0.176703
H43   H     H_    0.082660 0.319172 0.933667 0.188996
H44   H     H_    0.084545 0.677266 0.925465 0.181275
O1    O     O_3   0.750020 0.750020 0.500000 -0.477202
O2    O     O_3   0.750020 0.249980 0.500000 -0.477257
O3    O     O_3   0.250020 0.250020 0.500000 -0.477438
O4    O     O_3   0.250020 0.749980 0.500000 -0.476513
O5    O     O_R   0.698170 0.634220 0.542990 -0.631585
O6    O     O_R   0.698170 0.365780 0.542990 -0.628953
O7    O     O_R   0.198170 0.134220 0.542990 -0.629661
O8    O     O_R   0.198170 0.865780 0.542990 -0.629011
O9    O     O_R   0.741140 0.865830 0.457020 -0.631602
O10   O     O_R   0.741140 0.134170 0.457020 -0.622986
O11   O     O_R   0.241140 0.365830 0.457020 -0.619758
O12   O     O_R   0.241140 0.634170 0.457020 -0.630308
O13   O     O_R   0.862350 0.719680 0.336040 -0.644839
O14   O     O_R   0.862350 0.280320 0.336040 -0.643129
O15   O     O_R   0.362350 0.219680 0.336040 -0.637488
O16   O     O_R   0.362350 0.780320 0.336040 -0.649611
O17   O     O_R   0.698420 0.780360 0.663960 -0.644065
O18   O     O_R   0.698420 0.219640 0.663960 -0.641295
O19   O     O_R   0.198420 0.280360 0.663960 -0.643398
O20   O     O_R   0.198420 0.719640 0.663960 -0.642386
O21   O     O_R   0.801620 0.780400 0.336040 -0.635293
O22   O     O_R   0.801620 0.219600 0.336040 -0.640151
O23   O     O_R   0.301620 0.280400 0.336040 -0.639372
O24   O     O_R   0.301620 0.719600 0.336040 -0.637293
O25   O     O_R   0.637700 0.719640 0.663960 -0.633638
O26   O     O_R   0.637700 0.280360 0.663960 -0.644124
O27   O     O_R   0.137700 0.219640 0.663960 -0.633595
O28   O     O_R   0.137700 0.780360 0.663960 -0.643300
O29   O     O_R   0.801870 0.634220 0.457010 -0.649749
O30   O     O_R   0.801870 0.365780 0.457010 -0.655803
O31   O     O_R   0.301870 0.134220 0.457010 -0.652048
O32   O     O_R   0.301870 0.865780 0.457010 -0.654133
O33   O     O_R   0.758890 0.865820 0.542980 -0.651158
O34   O     O_R   0.758890 0.134180 0.542980 -0.655624
O35   O     O_R   0.258890 0.365820 0.542980 -0.653913
O36   O     O_R   0.258890 0.634180 0.542980 -0.652122
O37   O     O_R   0.887320 0.719660 0.457000 -0.644229
O38   O     O_R   0.887320 0.280340 0.457000 -0.650702
O39   O     O_R   0.387320 0.219660 0.457000 -0.647531
O40   O     O_R   0.387320 0.780340 0.457000 -0.651805
O41   O     O_R   0.655700 0.780400 0.457020 -0.670304
O42   O     O_R   0.655700 0.219600 0.457020 -0.635899
O43   O     O_R   0.155700 0.280400 0.457020 -0.661595
O44   O     O_R   0.155700 0.719600 0.457020 -0.642759
O45   O     O_R   0.844340 0.780370 0.542980 -0.651709
O46   O     O_R   0.844340 0.219630 0.542980 -0.648679
O47   O     O_R   0.344340 0.280370 0.542980 -0.650029
O48   O     O_R   0.344340 0.719630 0.542980 -0.650461
O49   O     O_R   0.612730 0.719670 0.543000 -0.631399
O50   O     O_R   0.612730 0.280330 0.543000 -0.640528
O51   O     O_R   0.112730 0.219670 0.543000 -0.630961
O52   O     O_R   0.112730 0.780330 0.543000 -0.638267
Zn1   Zn    Zn3+2 0.675940 0.706640 0.561420 0.973883
Zn2   Zn    Zn3+2 0.675940 0.293360 0.561420 0.965319
Zn3   Zn    Zn3+2 0.175940 0.206640 0.561420 0.976160
Zn4   Zn    Zn3+2 0.175940 0.793360 0.561420 0.962879
Zn5   Zn    Zn3+2 0.824100 0.706650 0.438580 0.949508
Zn6   Zn    Zn3+2 0.824100 0.293350 0.438580 0.947165
Zn7   Zn    Zn3+2 0.324100 0.206650 0.438580 0.948545
Zn8   Zn    Zn3+2 0.324100 0.793350 0.438580 0.941774
Zn9   Zn    Zn3+2 0.762700 0.793390 0.561410 0.953000
Zn10  Zn    Zn3+2 0.762700 0.206610 0.561410 0.953166
Zn11  Zn    Zn3+2 0.262700 0.293390 0.561410 0.951865
Zn12  Zn    Zn3+2 0.262700 0.706610 0.561410 0.956519
Zn13  Zn    Zn3+2 0.737340 0.793410 0.438590 0.953492
Zn14  Zn    Zn3+2 0.737340 0.206590 0.438590 0.959436
Zn15  Zn    Zn3+2 0.237340 0.293410 0.438590 0.956689
Zn16  Zn    Zn3+2 0.237340 0.706590 0.438590 0.957868
N1    N     N_2   0.457058 0.857411 0.067734 -0.326394
H45   H     H_    0.431043 0.860671 0.046761 0.213675
C137  C     C_3   0.483895 0.906814 0.064977 -0.833015
H46   H     H_    0.447334 0.937019 0.084440 0.233591
H47   H     H_    0.524129 0.916292 0.007195 0.237106
H48   H     H_    0.498958 0.907485 0.102589 0.262446
N2    N     N_2   0.445663 0.141632 0.070384 -0.317570
H49   H     H_    0.464496 0.109267 0.037769 0.217850
C138  C     C_3   0.406521 0.129136 0.149052 -0.787058
H50   H     H_    0.361959 0.151420 0.177874 0.257591
H51   H     H_    0.431631 0.136114 0.174986 0.247421
H52   H     H_    0.392998 0.087965 0.156953 0.220762
N3    N     N_2   0.941939 0.350392 0.068741 -0.323365
H53   H     H_    0.943632 0.372539 0.029025 0.211120
C139  C     C_3   0.919643 0.379694 0.135488 -0.841349
H54   H     H_    0.873061 0.396957 0.156374 0.227424
H55   H     H_    0.952731 0.411519 0.123013 0.257004
H56   H     H_    0.913597 0.355157 0.180134 0.253261
N4    N     N_2   0.962431 0.645613 0.074565 -0.307894
H57   H     H_    0.973835 0.616261 0.037666 0.205276
C140  C     C_3   0.944360 0.624855 0.145421 -0.785627
H58   H     H_    0.899276 0.603407 0.171523 0.238837
H59   H     H_    0.937577 0.654756 0.184471 0.253807
H60   H     H_    0.981045 0.597841 0.136889 0.233074
N5    N     N_2   0.534170 0.812553 0.074008 -0.288271
H61   H     H_    0.507401 0.819711 0.130287 0.227304
C141  C     C_3   0.597714 0.833398 0.034679 -0.819173
H62   H     H_    0.609392 0.841302 0.074639 0.234055
H63   H     H_    0.602558 0.869677 0.005592 0.242406
H64   H     H_    0.632412 0.804882 0.994718 0.262406
N6    N     N_2   0.535367 0.178250 0.058803 -0.287918
H65   H     H_    0.520450 0.190762 0.110629 0.233608
C142  C     C_3   0.568087 0.129413 0.041457 -0.829176
H66   H     H_    0.540210 0.102410 0.088876 0.242871
H67   H     H_    0.614704 0.135629 0.031248 0.239665
H68   H     H_    0.576387 0.111253 0.991395 0.232558
N7    N     N_2   0.031110 0.323262 0.067771 -0.286123
H69   H     H_    0.013633 0.314118 0.121849 0.235846
C143  C     C_3   0.070028 0.369264 0.040155 -0.841019
H70   H     H_    0.062017 0.391931 0.087272 0.230745
H71   H     H_    0.059177 0.394102 0.008077 0.248780
H72   H     H_    0.120610 0.358080 0.003873 0.245108
N8    N     N_2   0.050667 0.690391 0.057743 -0.282402
H73   H     H_    0.033918 0.699779 0.111423 0.228473
C144  C     C_3   0.097089 0.649353 0.027473 -0.827693
H74   H     H_    0.107935 0.638708 0.067534 0.229856
H75   H     H_    0.141644 0.662624 0.975685 0.249778
H76   H     H_    0.080001 0.614614 0.015387 0.240960
C145  C     C_R   0.617745 0.707505 0.936133 0.180205
C146  C     C_R   0.630222 0.666522 0.967877 -0.178175
C147  C     C_R   0.690650 0.658378 0.950107 -0.129983
C148  C     C_R   0.740581 0.690084 0.898734 -0.102095
C149  C     C_R   0.730270 0.729519 0.864362 -0.156241
C150  C     C_R   0.669848 0.737991 0.882035 -0.162968
H77   H     H_    0.592634 0.640710 0.007249 0.114782
H78   H     H_    0.698754 0.627244 0.976065 0.122550
H79   H     H_    0.787425 0.683729 0.884885 0.119563
H80   H     H_    0.769374 0.753565 0.823468 0.129251
H81   H     H_    0.665998 0.768373 0.852049 0.132961
C151  C     C_R   0.622169 0.275681 0.939486 0.186914
C152  C     C_R   0.666451 0.238369 0.890410 -0.099885
C153  C     C_R   0.726039 0.234955 0.876777 -0.165029
C154  C     C_R   0.743362 0.269104 0.910236 -0.114751
C155  C     C_R   0.701625 0.307567 0.956224 -0.139241
C156  C     C_R   0.642125 0.311278 0.969881 -0.209105
H82   H     H_    0.657382 0.212081 0.860547 0.129345
H83   H     H_    0.759112 0.205853 0.839624 0.124711
H84   H     H_    0.789449 0.266191 0.899703 0.124669
H85   H     H_    0.715320 0.334592 0.981427 0.132229
H86   H     H_    0.610842 0.341759 0.005596 0.123311
C157  C     C_R   0.130467 0.219347 0.931031 0.178393
C158  C     C_R   0.151371 0.182762 0.959568 -0.195380
C159  C     C_R   0.214015 0.181836 0.936669 -0.139427
C160  C     C_R   0.257713 0.216676 0.883508 -0.107971
C161  C     C_R   0.238842 0.252510 0.853331 -0.150426
C162  C     C_R   0.176191 0.253804 0.876170 -0.138927
H87   H     H_    0.118831 0.154504 0.999911 0.120759
H88   H     H_    0.228782 0.153698 0.959714 0.127036
H89   H     H_    0.306448 0.215483 0.864759 0.121892
H90   H     H_    0.273134 0.279075 0.811249 0.126948
H91   H     H_    0.165950 0.281418 0.848471 0.128714
C163  C     C_R   0.127315 0.786578 0.936164 0.197185
C164  C     C_R   0.174172 0.751290 0.885628 -0.124869
C165  C     C_R   0.234452 0.751714 0.870412 -0.166312
C166  C     C_R   0.249834 0.787783 0.903749 -0.111379
C167  C     C_R   0.205414 0.824376 0.951128 -0.144459
C168  C     C_R   0.145255 0.824306 0.966246 -0.194394
H92   H     H_    0.166285 0.723388 0.856391 0.131324
H93   H     H_    0.269478 0.723997 0.832330 0.124579
H94   H     H_    0.296427 0.787783 0.892108 0.123663
H95   H     H_    0.217556 0.852909 0.976223 0.131295
H96   H     H_    0.111976 0.853564 0.002737 0.118212
C169  C     C_R   0.444619 0.705766 0.921570 0.132749
C170  C     C_R   0.447562 0.654796 0.942347 -0.216629
C171  C     C_R   0.437161 0.612279 0.912563 -0.120196
C172  C     C_R   0.420445 0.618963 0.863849 -0.109557
C173  C     C_R   0.411529 0.668197 0.847298 -0.157975
C174  C     C_R   0.421841 0.710831 0.876974 -0.144898
H97   H     H_    0.454640 0.646485 0.984541 0.109172
H98   H     H_    0.440781 0.573937 0.928701 0.118836
H99   H     H_    0.412049 0.585974 0.841199 0.110302
H100  H     H_    0.395277 0.673449 0.812484 0.118527
H101  H     H_    0.408810 0.747264 0.866597 0.156128
C175  C     C_R   0.464200 0.319391 0.925537 0.129831
C176  C     C_R   0.448409 0.363714 0.970077 -0.210028
C177  C     C_R   0.454140 0.412961 0.941514 -0.131590
C178  C     C_R   0.476489 0.419755 0.867691 -0.120233
C179  C     C_R   0.493480 0.377266 0.822050 -0.146981
C180  C     C_R   0.487592 0.327986 0.850293 -0.111337
H102  H     H_    0.433488 0.362206 0.026283 0.107059
H103  H     H_    0.441803 0.446088 0.976781 0.120133
H104  H     H_    0.481117 0.457958 0.845716 0.114942
H105  H     H_    0.511426 0.382381 0.764453 0.132510
H106  H     H_    0.501176 0.296355 0.812482 0.143018
C181  C     C_R   0.955991 0.189522 0.922145 0.130082
C182  C     C_R   0.969925 0.140566 0.937699 -0.216766
C183  C     C_R   0.965829 0.095733 0.906368 -0.121570
C184  C     C_R   0.944800 0.097686 0.861396 -0.111294
C185  C     C_R   0.925210 0.144194 0.850360 -0.161075
C186  C     C_R   0.929162 0.189119 0.881615 -0.141578
H107  H     H_    0.980409 0.135162 0.977557 0.105270
H108  H     H_    0.977586 0.059116 0.918597 0.120314
H109  H     H_    0.941282 0.062863 0.837589 0.108579
H110  H     H_    0.905512 0.145385 0.818769 0.117474
H111  H     H_    0.907996 0.222597 0.875997 0.157792
C187  C     C_R   0.963225 0.817195 0.929077 0.129312
C188  C     C_R   0.943369 0.861454 0.974688 -0.205330
C189  C     C_R   0.945234 0.910243 0.947004 -0.127465
C190  C     C_R   0.967299 0.916731 0.873243 -0.123823
C191  C     C_R   0.987653 0.874376 0.826798 -0.145366
C192  C     C_R   0.985693 0.825523 0.854082 -0.115909
H112  H     H_    0.927863 0.860569 0.031173 0.108349
H113  H     H_    0.930028 0.943320 0.982954 0.125621
H114  H     H_    0.968922 0.954611 0.852003 0.113249
H115  H     H_    0.005140 0.879275 0.769310 0.131872
H116  H     H_    0.001478 0.793958 0.815729 0.142958
N9    N     N_2   0.673437 0.059008 0.427483 -0.258849
H117  H     H_    0.657168 0.061349 0.394918 0.209459
C193  C     C_3   0.623110 0.057212 0.506736 -0.683510
H118  H     H_    0.582209 0.035438 0.516769 0.215579
H119  H     H_    0.608120 0.096872 0.527460 0.239221
H120  H     H_    0.637083 0.038817 0.540145 0.231030
N10   N     N_2   0.660891 0.954335 0.435602 -0.289917
H121  H     H_    0.639436 0.962642 0.409692 0.209344
C194  C     C_3   0.623152 0.928796 0.507336 -0.739615
H122  H     H_    0.572444 0.937119 0.534199 0.211885
H123  H     H_    0.633361 0.943123 0.546219 0.229230
H124  H     H_    0.630189 0.886763 0.500175 0.264174
N11   N     N_2   0.150717 0.546582 0.448568 -0.278143
H125  H     H_    0.124655 0.529212 0.432988 0.211349
C195  C     C_3   0.114947 0.566380 0.523774 -0.751938
H126  H     H_    0.063910 0.567502 0.547006 0.211416
H127  H     H_    0.129894 0.606065 0.523772 0.255675
H128  H     H_    0.120082 0.541668 0.560749 0.234017
N12   N     N_2   0.166905 0.440990 0.433414 -0.277454
H129  H     H_    0.149009 0.441392 0.402421 0.206292
C196  C     C_3   0.118257 0.438303 0.513251 -0.731299
H130  H     H_    0.076726 0.461620 0.528210 0.223813
H131  H     H_    0.134246 0.451601 0.547015 0.235819
H132  H     H_    0.102860 0.397951 0.529548 0.233371
C197  C     C_R   0.784253 0.052700 0.317220 0.103269
C198  C     C_R   0.774937 0.050809 0.260717 -0.178346
C199  C     C_R   0.819540 0.071690 0.190535 -0.125012
C200  C     C_R   0.874000 0.095045 0.175704 -0.107018
C201  C     C_R   0.884068 0.097426 0.230952 -0.134460
C202  C     C_R   0.839760 0.076366 0.301174 -0.101252
H133  H     H_    0.732731 0.033414 0.271104 0.101828
H134  H     H_    0.811637 0.070033 0.147742 0.125630
H135  H     H_    0.908408 0.111232 0.121392 0.105952
H136  H     H_    0.926277 0.115714 0.219395 0.115516
H137  H     H_    0.849240 0.079038 0.342467 0.105208
C203  C     C_R   0.773547 0.940439 0.328574 0.140935
C204  C     C_R   0.833497 0.925404 0.309917 -0.117570
C205  C     C_R   0.874120 0.895565 0.247286 -0.120483
C206  C     C_R   0.856660 0.881351 0.201138 -0.094561
C207  C     C_R   0.799309 0.897785 0.216328 -0.138831
C208  C     C_R   0.757715 0.926783 0.279810 -0.156363
H138  H     H_    0.849349 0.936076 0.343641 0.100654
H139  H     H_    0.919188 0.883329 0.234587 0.112671
H140  H     H_    0.887639 0.857656 0.153575 0.103677
H141  H     H_    0.787152 0.887810 0.178774 0.121642
H142  H     H_    0.713366 0.938621 0.290310 0.101275
C209  C     C_R   0.260181 0.562083 0.336685 0.148311
C210  C     C_R   0.237396 0.578909 0.295796 -0.128732
C211  C     C_R   0.275624 0.607822 0.230875 -0.157564
C212  C     C_R   0.337344 0.620180 0.205319 -0.094170
C213  C     C_R   0.361293 0.603085 0.244091 -0.115100
C214  C     C_R   0.323374 0.573958 0.308928 -0.117346
H143  H     H_    0.190164 0.569226 0.313450 0.118538
H144  H     H_    0.257275 0.620720 0.200382 0.129957
H145  H     H_    0.366710 0.642702 0.155205 0.113087
H146  H     H_    0.409399 0.612367 0.223816 0.112195
H147  H     H_    0.343807 0.560816 0.336966 0.104019
C215  C     C_R   0.277150 0.451493 0.322449 0.105802
C216  C     C_R   0.335091 0.431280 0.303929 -0.102234
C217  C     C_R   0.382575 0.417285 0.231001 -0.142765
C218  C     C_R   0.373246 0.423210 0.175528 -0.118639
C219  C     C_R   0.315802 0.441873 0.193013 -0.120337
C220  C     C_R   0.267955 0.455726 0.265979 -0.184539
H148  H     H_    0.344738 0.426916 0.344913 0.106738
H149  H     H_    0.427062 0.402449 0.217289 0.113094
H150  H     H_    0.410894 0.413799 0.118966 0.107351
H151  H     H_    0.308553 0.446119 0.149872 0.125593
H152  H     H_    0.224062 0.470735 0.278134 0.110014
C221  C     C_R   0.633815 0.554327 0.540714 0.174142
C222  C     C_R   0.628465 0.568773 0.483521 -0.163677
C223  C     C_R   0.572802 0.591499 0.500513 -0.119979
C224  C     C_R   0.522296 0.599718 0.574538 -0.103993
C225  C     C_R   0.527826 0.586329 0.631647 -0.139855
C226  C     C_R   0.583434 0.563689 0.614898 -0.090148
H153  H     H_    0.666958 0.561688 0.426093 0.107476
H154  H     H_    0.568557 0.602273 0.456377 0.121377
H155  H     H_    0.478824 0.616424 0.587671 0.123736
H156  H     H_    0.488821 0.593069 0.688889 0.119025
H157  H     H_    0.587027 0.552843 0.659532 0.109944
C227  C     C_R   0.635254 0.445503 0.536455 0.184596
C228  C     C_R   0.580726 0.439537 0.609265 -0.102566
C229  C     C_R   0.526428 0.417192 0.621893 -0.155073
C230  C     C_R   0.526463 0.400359 0.562101 -0.092537
C231  C     C_R   0.581082 0.405035 0.489628 -0.122618
C232  C     C_R   0.635355 0.427679 0.476699 -0.163541
H158  H     H_    0.580073 0.452880 0.655908 0.104005
H159  H     H_    0.484108 0.413358 0.677948 0.115040
H160  H     H_    0.484097 0.383779 0.571950 0.128973
H161  H     H_    0.581114 0.391632 0.443454 0.119690
H162  H     H_    0.677080 0.432077 0.420256 0.102006
C233  C     C_R   0.132832 0.054225 0.543883 0.173639
C234  C     C_R   0.126064 0.069520 0.488073 -0.161116
C235  C     C_R   0.070102 0.092876 0.507009 -0.116743
C236  C     C_R   0.020692 0.100843 0.581600 -0.101332
C237  C     C_R   0.027571 0.086409 0.637324 -0.139675
C238  C     C_R   0.083503 0.063209 0.618646 -0.094468
H163  H     H_    0.163759 0.062770 0.430213 0.107895
H164  H     H_    0.064803 0.104408 0.463944 0.124167
H165  H     H_    0.977012 0.118133 0.596260 0.124224
H166  H     H_    0.989369 0.092827 0.694980 0.119332
H167  H     H_    0.088194 0.051738 0.662240 0.111425
C239  C     C_R   0.135207 0.945284 0.536309 0.182141
C240  C     C_R   0.080664 0.938913 0.609033 -0.101512
C241  C     C_R   0.027194 0.914999 0.621458 -0.150975
C242  C     C_R   0.028088 0.896920 0.561586 -0.087679
C243  C     C_R   0.082652 0.902200 0.489193 -0.126103
C244  C     C_R   0.136063 0.926446 0.476455 -0.164615
H168  H     H_    0.079489 0.952760 0.655813 0.104634
H169  H     H_    0.984915 0.910714 0.677447 0.113829
H170  H     H_    0.986454 0.878871 0.571306 0.131041
H171  H     H_    0.083380 0.887832 0.442948 0.118768
H172  H     H_    0.177867 0.930958 0.420089 0.101797
N13   N     N_2   0.910928 0.448912 0.422518 -0.245026
H173  H     H_    0.892513 0.419221 0.460581 0.242981
C245  C     C_3   0.972646 0.436714 0.356320 -0.785750
H174  H     H_    0.004852 0.426010 0.371825 0.241332
H175  H     H_    0.993202 0.470245 0.318338 0.253485
H176  H     H_    0.968940 0.403979 0.327110 0.226063
N14   N     N_2   0.912188 0.552886 0.415768 -0.237990
H177  H     H_    0.893601 0.571593 0.465391 0.241987
C246  C     C_3   0.961909 0.581461 0.351927 -0.793350
H178  H     H_    0.000510 0.589254 0.358041 0.231699
H179  H     H_    0.943052 0.618433 0.347439 0.257220
H180  H     H_    0.981982 0.559205 0.300117 0.228256
N15   N     N_2   0.413323 0.948259 0.410146 -0.239745
H181  H     H_    0.395755 0.922624 0.453582 0.241482
C247  C     C_3   0.468615 0.928966 0.341483 -0.782732
H182  H     H_    0.506736 0.921470 0.348629 0.248612
H183  H     H_    0.486463 0.957259 0.295846 0.237190
H184  H     H_    0.456759 0.892755 0.325900 0.227569
N16   N     N_2   0.412213 0.051974 0.414334 -0.239466
H185  H     H_    0.393838 0.076280 0.459077 0.240373
C248  C     C_3   0.468313 0.072615 0.347530 -0.776075
H186  H     H_    0.505334 0.078722 0.356909 0.221792
H187  H     H_    0.457175 0.109825 0.332974 0.244025
H188  H     H_    0.487176 0.045789 0.300376 0.237282
C249  C     C_R   0.540504 0.756321 0.311788 0.162784
C250  C     C_R   0.570025 0.708458 0.301927 -0.109535
C251  C     C_R   0.579125 0.674037 0.248359 -0.159898
C252  C     C_R   0.558346 0.686450 0.204617 -0.114643
C253  C     C_R   0.528456 0.733284 0.214496 -0.138130
C254  C     C_R   0.519724 0.768153 0.267419 -0.144347
H189  H     H_    0.585972 0.697586 0.335656 0.120885
H190  H     H_    0.601947 0.637576 0.241115 0.117285
H191  H     H_    0.565065 0.659703 0.163353 0.118396
H192  H     H_    0.511680 0.742426 0.181411 0.137345
H193  H     H_    0.496407 0.804235 0.273974 0.129878
C255  C     C_R   0.545133 0.213961 0.302862 0.177765
C256  C     C_R   0.529213 0.261980 0.288538 -0.112839
C257  C     C_R   0.547826 0.274398 0.216980 -0.186408
C258  C     C_R   0.582280 0.239208 0.159373 -0.155637
C259  C     C_R   0.596231 0.190904 0.173630 -0.152204
C260  C     C_R   0.577557 0.178227 0.244956 -0.131120
H194  H     H_    0.502742 0.289985 0.332137 0.113305
H195  H     H_    0.536255 0.311548 0.205967 0.123373
H196  H     H_    0.598552 0.249348 0.103554 0.151991
H197  H     H_    0.622526 0.163512 0.129151 0.130114
H198  H     H_    0.589391 0.140781 0.254869 0.124705
C261  C     C_R   0.051255 0.279725 0.298232 0.199201
C262  C     C_R   0.052723 0.227296 0.281449 -0.151651
C263  C     C_R   0.076937 0.212046 0.209048 -0.178104
C264  C     C_R   0.100159 0.248576 0.152620 -0.108694
C265  C     C_R   0.097909 0.300527 0.168764 -0.149477
C266  C     C_R   0.072794 0.316071 0.241211 -0.135370
H199  H     H_    0.036149 0.197884 0.323509 0.118786
H200  H     H_    0.078460 0.171770 0.196490 0.120821
H201  H     H_    0.120016 0.236658 0.096376 0.142612
H202  H     H_    0.115977 0.328821 0.125021 0.143891
H203  H     H_    0.071263 0.356558 0.252530 0.115961
C267  C     C_R   0.040381 0.756344 0.301932 0.161943
C268  C     C_R   0.011663 0.805129 0.319657 -0.135348
C269  C     C_R   0.017330 0.836106 0.264425 -0.168723
C270  C     C_R   0.051526 0.818973 0.191174 -0.133520
C271  C     C_R   0.080026 0.770722 0.172977 -0.178862
C272  C     C_R   0.074286 0.739454 0.228024 -0.134064
H204  H     H_    0.984861 0.819587 0.375788 0.116038
H205  H     H_    0.995197 0.873502 0.278477 0.120021
H206  H     H_    0.056039 0.843168 0.148537 0.117168
H207  H     H_    0.106787 0.757615 0.116094 0.146785
H208  H     H_    0.096485 0.702040 0.213053 0.123476
N17   N     N_2   0.645876 0.789090 0.312070 -0.328065
H209  H     H_    0.678563 0.783360 0.323559 0.238893
C273  C     C_3   0.671268 0.818097 0.244124 -0.795229
H210  H     H_    0.714511 0.799594 0.197257 0.235583
H211  H     H_    0.682763 0.857737 0.250254 0.233821
H212  H     H_    0.636991 0.820094 0.229823 0.255837
N18   N     N_2   0.644180 0.199765 0.317461 -0.316477
H213  H     H_    0.657499 0.237731 0.304487 0.219625
C274  C     C_3   0.695609 0.165025 0.295815 -0.690357
H214  H     H_    0.739857 0.179338 0.244289 0.243231
H215  H     H_    0.685321 0.126656 0.283814 0.206299
H216  H     H_    0.703121 0.162047 0.340095 0.292522
N19   N     N_2   0.145543 0.301201 0.318268 -0.317580
H217  H     H_    0.174496 0.277465 0.323506 0.231456
C275  C     C_3   0.177655 0.346749 0.274409 -0.801260
H218  H     H_    0.210341 0.336287 0.215069 0.239064
H219  H     H_    0.205178 0.364175 0.292839 0.255393
H220  H     H_    0.143734 0.375536 0.279863 0.241452
N20   N     N_2   0.148898 0.743742 0.302256 -0.327855
H221  H     H_    0.139650 0.781397 0.297214 0.218191
C276  C     C_3   0.206839 0.738453 0.296809 -0.673493
H222  H     H_    0.209032 0.768299 0.330832 0.214649
H223  H     H_    0.247684 0.743378 0.238238 0.240894
H224  H     H_    0.211416 0.699926 0.314501 0.289844
N21   N     N_2   0.587254 0.860766 0.392629 -0.302756
H225  H     H_    0.628211 0.869712 0.387482 0.254146
C277  C     C_3   0.531824 0.883916 0.458139 -0.836287
H226  H     H_    0.538327 0.926058 0.455826 0.242381
H227  H     H_    0.524865 0.868488 0.509189 0.245465
H228  H     H_    0.488252 0.877151 0.461577 0.246551
N22   N     N_2   0.575800 0.141374 0.422530 -0.275705
H229  H     H_    0.582830 0.110662 0.389341 0.207202
C278  C     C_3   0.521860 0.132895 0.499115 -0.804245
H230  H     H_    0.516177 0.091350 0.512219 0.226567
H231  H     H_    0.476946 0.146163 0.509395 0.235229
H232  H     H_    0.529252 0.152674 0.537635 0.245819
N23   N     N_2   0.074828 0.354786 0.425510 -0.303868
H233  H     H_    0.112538 0.359847 0.428254 0.271737
C279  C     C_3   0.015275 0.367151 0.495715 -0.837661
H234  H     H_    0.014292 0.408712 0.506519 0.244448
H235  H     H_    0.010681 0.345635 0.541929 0.242649
H236  H     H_    0.973577 0.359155 0.495758 0.246837
N24   N     N_2   0.109203 0.659825 0.358693 -0.285044
H237  H     H_    0.124700 0.642113 0.309277 0.212366
C280  C     C_3   0.065707 0.628618 0.423590 -0.795015
H238  H     H_    0.076226 0.587566 0.409305 0.223704
H239  H     H_    0.015904 0.634710 0.443861 0.229281
H240  H     H_    0.070562 0.638059 0.468724 0.272672
C281  C     C_R   0.348455 0.776282 0.079450 0.115664
C282  C     C_R   0.309067 0.758309 0.059489 -0.147447
C283  C     C_R   0.250019 0.780256 0.088638 -0.130906
C284  C     C_R   0.228067 0.819990 0.139784 -0.099523
C285  C     C_R   0.264645 0.837053 0.162949 -0.167207
C286  C     C_R   0.323724 0.815052 0.134141 -0.181233
H241  H     H_    0.323615 0.726806 0.021422 0.139668
H242  H     H_    0.221266 0.766223 0.071529 0.134900
H243  H     H_    0.182249 0.836933 0.162512 0.138774
H244  H     H_    0.246790 0.866955 0.204277 0.126206
H245  H     H_    0.348224 0.828657 0.156617 0.162439
C287  C     C_R   0.353993 0.221684 0.075859 0.187418
C288  C     C_R   0.295677 0.241543 0.136132 -0.203675
C289  C     C_R   0.239404 0.214048 0.167437 -0.125381
C290  C     C_R   0.240016 0.165901 0.140104 -0.120863
C291  C     C_R   0.296938 0.145090 0.081407 -0.189070
C292  C     C_R   0.353296 0.172504 0.049601 -0.044147
H246  H     H_    0.293738 0.278479 0.159350 0.135744
H247  H     H_    0.195139 0.230029 0.212940 0.167810
H248  H     H_    0.196374 0.144708 0.164441 0.123032
H249  H     H_    0.297443 0.107696 0.060055 0.124589
H250  H     H_    0.395743 0.155057 0.003472 0.138080
C293  C     C_R   0.850817 0.248878 0.083589 0.140594
C294  C     C_R   0.814848 0.220304 0.066422 -0.165816
C295  C     C_R   0.752025 0.232738 0.096909 -0.121118
C296  C     C_R   0.722831 0.272846 0.147370 -0.100540
C297  C     C_R   0.756113 0.299892 0.168265 -0.194532
C298  C     C_R   0.819201 0.287923 0.137159 -0.130363
H251  H     H_    0.834998 0.187856 0.029609 0.139378
H252  H     H_    0.726155 0.211055 0.081261 0.135240
H253  H     H_    0.674228 0.282606 0.171292 0.152225
H254  H     H_    0.732905 0.330170 0.208987 0.124062
H255  H     H_    0.841261 0.309033 0.157302 0.175085
C299  C     C_R   0.865372 0.712968 0.078722 0.200959
C300  C     C_R   0.808020 0.725895 0.146808 -0.192152
C301  C     C_R   0.756776 0.691991 0.182909 -0.125463
C302  C     C_R   0.761398 0.644377 0.151940 -0.114429
C303  C     C_R   0.817565 0.630309 0.085320 -0.178583
C304  C     C_R   0.869150 0.663864 0.049359 -0.060664
H256  H     H_    0.803528 0.762042 0.173284 0.130330
H257  H     H_    0.713571 0.702430 0.235381 0.148122
H258  H     H_    0.721709 0.618145 0.179970 0.113477
H259  H     H_    0.821441 0.593043 0.061668 0.121762
H260  H     H_    0.911625 0.650419 0.998962 0.126763
N25   N     N_2   0.442376 0.801164 0.929297 -0.309429
H261  H     H_    0.419934 0.830410 0.966768 0.233051
C305  C     C_3   0.478976 0.820548 0.853258 -0.846500
H262  H     H_    0.447410 0.843363 0.845094 0.234600
H263  H     H_    0.499414 0.789519 0.811601 0.255635
H264  H     H_    0.517492 0.846245 0.842121 0.239716
N26   N     N_2   0.437628 0.230152 0.918755 -0.326143
H265  H     H_    0.470837 0.211671 0.869974 0.218828
C306  C     C_3   0.381484 0.245022 0.923330 -0.801852
H266  H     H_    0.354162 0.210124 0.930349 0.237815
H267  H     H_    0.394995 0.264487 0.871380 0.225712
H268  H     H_    0.350580 0.271011 0.970872 0.260654
N27   N     N_2   0.936285 0.284069 0.937944 -0.301662
H269  H     H_    0.914596 0.312753 0.976888 0.241207
C307  C     C_3   0.965808 0.304213 0.863060 -0.852015
H270  H     H_    0.928433 0.319976 0.858714 0.235843
H271  H     H_    0.991606 0.274548 0.819794 0.257770
H272  H     H_    0.998885 0.335928 0.850743 0.235853
N28   N     N_2   0.943557 0.726165 0.921170 -0.327715
H273  H     H_    0.977481 0.708982 0.871525 0.219324
C308  C     C_3   0.885164 0.737033 0.928647 -0.799970
H274  H     H_    0.862030 0.700375 0.931931 0.236373
H275  H     H_    0.895302 0.758481 0.879475 0.230337
H276  H     H_    0.851750 0.759706 0.979326 0.257442

loop_
_geom_bond_atom_site_label_1
_geom_bond_atom_site_label_2
_ccdc_geom_bond_type
C99   C103  A    
C273  H210  S    
N2    C138  S    
C133  H1    S    
N27   H269  S    
C114  O10   A    
C55   C59   S    
O11   Zn15  S    
C276  H222  S    
O5    Zn1   S    
N8    H73   S    
C2    O22   A    
C27   C181  S    
C116  O36   A    
C193  H120  S    
C43   C63   S    
C156  H86   S    
C149  C150  A    
C44   C64   S    
C142  H68   S    
C135  H3    S    
C296  C297  A    
C253  H192  S    
O30   Zn6   S    
C49   H17   S    
C203  C204  A    
C305  H263  S    
C95   N11   S    
C170  H97   S    
C26   C50   S    
C287  C292  A    
O1    Zn13  S    
C46   O18   A    
C245  H174  S    
C94   C203  S    
C100  C104  A    
C52   C299  S    
C139  H55   S    
C225  C226  A    
O39   Zn7   S    
C9    C13   A    
C8    H32   S    
C138  H52   S    
C172  H99   S    
C11   C15   A    
C167  H95   S    
C12   C16   A    
O1    Zn9   S    
C227  C228  A    
C245  H175  S    
C252  H191  S    
C70   C74   T    
C45   O25   A    
C145  C150  A    
C143  H71   S    
C117  O37   A    
C185  H110  S    
O47   Zn11  S    
C109  N13   S    
O28   Zn4   S    
C136  H4    S    
C13   C125  A    
C278  H231  S    
C116  O12   A    
C98   C109  S    
C29   H41   S    
C263  H200  S    
C101  C105  A    
O4    Zn16  S    
C266  H203  S    
C130  C134  A    
C284  C285  A    
N25   C305  S    
C17   H37   S    
C212  C213  A    
N14   C246  S    
C207  H141  S    
O21   Zn13  S    
C163  C164  A    
C161  C162  A    
C300  C301  A    
C121  O49   A    
C25   C41   S    
N15   C247  S    
C170  C171  A    
C90   O6    A    
C270  C271  A    
C123  O43   A    
C274  H214  S    
C28   C44   S    
O18   Zn10  S    
C274  H216  S    
C19   C23   S    
C249  C254  A    
C211  C212  A    
C279  H235  S    
C251  H190  S    
C78   C82   A    
C178  C179  A    
O48   Zn12  S    
C16   C20   S    
C175  C176  A    
C48   O28   A    
C256  H194  S    
C307  H272  S    
C115  O35   A    
C239  C244  A    
C306  H268  S    
C282  H241  S    
C124  O52   A    
C129  C133  A    
C210  C211  A    
C34   C54   S    
N1    C137  S    
C257  H195  S    
C140  H59   S    
C112  N16   S    
C10   C14   A    
C295  C296  A    
C260  H198  S    
C276  H224  S    
C24   N24   S    
C243  C244  A    
O38   Zn6   S    
C107  C108  A    
C297  C298  A    
C299  C304  A    
C148  C149  A    
C41   C69   S    
C285  C286  A    
C204  H138  S    
C4    O16   A    
C271  C272  A    
C43   C71   S    
C111  C112  S    
C89   C101  S    
C237  H166  S    
N14   H177  S    
C209  C210  A    
C84   C88   A    
C91   C103  S    
C250  C251  A    
C188  C189  A    
C57   C61   S    
C272  H208  S    
C27   N27   S    
C194  H122  S    
C23   C127  S    
C59   C63   S    
C228  H158  S    
C14   C126  A    
C60   C64   S    
O34   Zn10  S    
C262  C263  A    
C23   N19   S    
N11   C195  S    
C265  H202  S    
C190  H114  S    
N7    C143  S    
C268  C269  A    
C88   H28   S    
C196  H130  S    
C192  H116  S    
N15   H181  S    
C49   C53   S    
C235  H164  S    
O33   Zn9   S    
C241  C242  A    
C27   C51   S    
C234  H163  S    
O50   Zn2   S    
C51   C55   S    
C187  C192  A    
N6    C142  S    
C31   H7    S    
C218  C219  A    
C127  C131  A    
C32   H8    S    
C303  C304  A    
O2    Zn2   S    
C12   C117  S    
C96   C215  S    
C79   C96   S    
C255  C256  A    
C100  C111  S    
C229  C230  A    
C122  O42   A    
C273  H212  S    
C222  H153  S    
C257  C258  A    
O40   Zn8   S    
C103  C107  A    
C138  H51   S    
N23   H233  S    
C183  C184  A    
C184  H109  S    
O4    Zn8   S    
C58   H14   S    
C24   N20   S    
N9    C193  S    
C148  H79   S    
C79   C83   A    
C302  H258  S    
C308  H274  S    
C29   C33   S    
C95   C96   S    
C51   C293  S    
C181  C186  A    
C114  O34   A    
N28   H273  S    
C280  H238  S    
O27   Zn3   S    
C174  H101  S    
N17   H209  S    
C118  O46   A    
C5    C133  A    
C51   H19   S    
N1    H45   S    
C31   C43   S    
C166  H94   S    
O15   Zn7   S    
C26   N26   S    
N8    C144  S    
O29   Zn5   S    
N3    H53   S    
O46   Zn10  S    
C45   O17   A    
C290  C291  A    
C77   C94   S    
O52   Zn4   S    
C182  C183  A    
C124  C132  S    
C138  H50   S    
C173  H100  S    
C187  C188  A    
C90   C102  S    
C61   H9    S    
C10   C119  S    
C184  C185  A    
C295  H252  S    
C22   N18   S    
C124  O44   A    
C224  C225  A    
C37   C65   T    
C225  H156  S    
C35   N7    S    
C44   C72   S    
C222  C223  A    
C183  H108  S    
C53   C65   S    
C268  H204  S    
O20   Zn12  S    
N3    C139  S    
C8    C12   A    
N26   C306  S    
C247  H184  S    
C205  H139  S    
C84   C116  S    
N25   H261  S    
C253  C254  A    
C64   H12   S    
C175  C180  A    
C47   O19   A    
C203  C208  A    
C239  C240  A    
O3    Zn11  S    
C63   H11   S    
C287  C288  A    
C109  H33   S    
C228  C229  A    
C286  H245  S    
C30   H42   S    
C194  H124  S    
O10   Zn14  S    
C61   C145  S    
C30   C34   S    
C83   C115  S    
C90   O30   A    
C141  H64   S    
C165  C166  A    
C91   O31   A    
C151  C156  A    
C196  H132  S    
O1    Zn1   S    
C64   C163  S    
C167  C168  A    
C137  H48   S    
C89   O29   A    
O43   Zn15  S    
C162  H91   S    
C56   C68   S    
C217  C218  A    
N13   C245  S    
C182  H107  S    
C292  H250  S    
C5    C9    A    
C144  H74   S    
C125  C129  A    
N22   H229  S    
C278  H230  S    
C132  C136  A    
C29   H5    S    
O4    Zn12  S    
O14   Zn6   S    
C80   C95   S    
C198  C199  A    
C213  H146  S    
C233  C234  A    
C18   H38   S    
C207  C208  A    
C159  C160  A    
C308  H276  S    
C163  C168  A    
C40   C68   T    
C205  C206  A    
C92   O32   A    
C21   N21   S    
C247  H182  S    
O37   Zn5   S    
C199  C200  A    
C280  H240  S    
C26   C42   S    
C278  H232  S    
O1    Zn5   S    
C281  C286  A    
N10   C194  S    
C7    H31   S    
C29   C41   S    
C199  H134  S    
C18   C22   S    
C89   O5    A    
C32   H44   S    
O42   Zn14  S    
C193  H119  S    
C165  H93   S    
C200  H135  S    
C277  H228  S    
C20   C267  S    
N4    H57   S    
C92   O8    A    
C54   C66   S    
C142  H67   S    
O12   Zn16  S    
C99   C100  A    
C13   C17   S    
O26   Zn2   S    
C275  H220  S    
C197  C198  A    
C115  O11   A    
N11   H125  S    
C293  C298  A    
C20   H40   S    
C33   N5    S    
N5    C141  S    
C160  C161  A    
C111  H35   S    
C146  H77   S    
O49   Zn1   S    
C236  C237  A    
C19   H39   S    
C214  H147  S    
N18   H213  S    
O23   Zn15  S    
C231  C232  A    
C177  C178  A    
C62   H10   S    
C240  C241  A    
C24   C128  S    
C9    C120  S    
C289  C290  A    
C15   C127  A    
C215  C216  A    
C140  H58   S    
C11   C118  S    
C224  H155  S    
C81   C85   A    
N16   H185  S    
O3    Zn3   S    
O6    Zn2   S    
O36   Zn12  S    
C36   N8    S    
C83   C87   A    
C34   N6    S    
C6    H30   S    
C201  C202  A    
C284  H243  S    
C236  H165  S    
C8    C136  A    
C3    O23   A    
C244  H172  S    
C237  C238  A    
C80   C84   A    
C1    O21   A    
C301  H257  S    
C176  C177  A    
O19   Zn11  S    
C139  H54   S    
C77   C78   A    
C151  C152  A    
C15   C19   S    
O17   Zn9   S    
C50   C54   S    
C48   O20   A    
C261  C262  A    
C63   C157  S    
N28   C308  S    
C144  H76   S    
C303  H259  S    
O2    Zn14  S    
C54   C58   S    
C168  H96   S    
C255  C260  A    
C126  C130  A    
O45   Zn9   S    
C229  H159  S    
C46   O26   A    
C264  C265  A    
C60   H16   S    
C197  C202  A    
C274  H215  S    
C48   C76   S    
C220  H152  S    
O4    Zn4   S    
C91   O7    A    
C233  C238  A    
C59   H23   S    
C218  H150  S    
O44   Zn16  S    
N24   H237  S    
N19   C275  S    
C118  O38   A    
C181  C182  A    
C307  H271  S    
C69   C73   T    
C240  H168  S    
C113  O33   A    
C306  H267  S    
C120  O48   A    
C72   C76   T    
C248  H186  S    
C285  H244  S    
C93   C197  S    
C230  H160  S    
C223  C224  A    
N27   C307  S    
C28   C187  S    
C256  C257  A    
C276  H223  S    
C147  H78   S    
C234  C235  A    
C4    O24   A    
C97   C98   A    
C153  H83   S    
N21   C277  S    
C62   C151  S    
C300  H256  S    
O22   Zn14  S    
C305  H262  S    
C291  H249  S    
C275  H218  S    
C160  H89   S    
C60   H24   S    
C293  C294  A    
C305  H264  S    
C137  H46   S    
N20   C276  S    
C53   C57   S    
C189  H113  S    
C85   C86   A    
C150  H81   S    
C41   C61   S    
C56   C60   S    
C31   H43   S    
C2    O14   A    
C110  N14   S    
C111  N15   S    
C147  C148  A    
C261  C266  A    
N7    H69   S    
C36   C56   S    
C98   C102  A    
C166  C167  A    
C92   C104  S    
C55   C67   S    
C143  H70   S    
C77   C81   A    
C251  C252  A    
C245  H176  S    
C50   C287  S    
C155  C156  A    
C179  H105  S    
C143  H72   S    
O3    Zn15  S    
C158  H87   S    
C33   N1    S    
C216  H148  S    
C206  H140  S    
C277  H226  S    
C95   C209  S    
C110  H34   S    
N22   C278  S    
C226  H157  S    
C273  H211  S    
C106  C227  S    
C223  H154  S    
C36   N4    S    
C31   C35   S    
C267  C268  A    
C21   C125  S    
C32   C36   S    
C104  C108  A    
C269  C270  A    
C248  H187  S    
C288  C289  A    
N26   H265  S    
C157  C162  A    
C200  C201  A    
C17   C249  S    
C123  C131  S    
N9    H117  S    
C254  H193  S    
C121  C129  S    
N16   C248  S    
C6    C10   A    
C248  H188  S    
C169  C174  A    
N24   C280  S    
C209  C214  A    
C113  O9    A    
C105  C106  A    
O35   Zn11  S    
C30   H6    S    
C22   N22   S    
C35   N3    S    
C105  C221  S    
N6    H65   S    
C198  H133  S    
C164  C165  A    
C82   C86   A    
C238  H167  S    
C279  H236  S    
C21   N17   S    
N4    C140  S    
C171  C172  A    
C112  H36   S    
C149  H80   S    
C265  C266  A    
C294  H251  S    
C18   C255  S    
C204  C205  A    
C26   C175  S    
C49   C281  S    
C25   C49   S    
C137  H47   S    
C47   C75   S    
C157  C158  A    
C27   C43   S    
C216  C217  A    
C123  O51   A    
C4    C37   S    
C87   C88   A    
C6    C134  A    
C153  C154  A    
C140  H60   S    
C81   C113  S    
C283  C284  A    
C121  O41   A    
C30   C42   S    
C25   N25   S    
C191  H115  S    
C201  H136  S    
C195  H126  S    
C28   N28   S    
C17   C21   S    
C269  H205  S    
C195  H128  S    
C87   H27   S    
C58   C62   S    
C247  H183  S    
C219  C220  A    
C270  H206  S    
C145  C146  A    
C14   C18   S    
C289  H247  S    
C1    O13   A    
N12   H129  S    
C42   C70   S    
C242  H170  S    
C19   C261  S    
C25   C169  S    
C94   N10   S    
C119  O47   A    
N10   H121  S    
C195  H127  S    
C152  C153  A    
C291  C292  A    
C7    C11   A    
C194  H123  S    
C117  O45   A    
C246  H178  S    
C235  C236  A    
C139  H56   S    
C107  C233  S    
C141  H63   S    
C3    O15   A    
N13   H173  S    
C131  C135  A    
C250  H189  S    
C196  H131  S    
C188  H112  S    
C186  H111  S    
C22   C126  S    
C231  H161  S    
C78   C93   S    
C177  H103  S    
C45   C73   S    
C161  H90   S    
C215  C220  A    
C96   N12   S    
C85   H25   S    
N12   C196  S    
C1    C40   S    
O3    Zn7   S    
C297  H254  S    
C2    C39   S    
C206  C207  A    
O9    Zn13  S    
C307  H270  S    
C3    C38   S    
C258  C259  A    
C23   N23   S    
C283  H242  S    
C86   H26   S    
C5    H29   S    
N23   C279  S    
C249  C250  A    
C212  H145  S    
O8    Zn4   S    
C120  O40   A    
C243  H171  S    
C178  H104  S    
C308  H275  S    
C154  H84   S    
C119  O39   A    
C221  C222  A    
C193  H118  S    
O2    Zn10  S    
C280  H239  S    
N17   C273  S    
C33   C53   S    
C210  H143  S    
C122  O50   A    
N18   C274  S    
C35   C55   S    
C264  H201  S    
C20   C24   S    
C211  H144  S    
C259  C260  A    
C82   C114  S    
C58   H22   S    
C246  H179  S    
C279  H234  S    
C277  H227  S    
C154  C155  A    
C142  H66   S    
C271  H207  S    
N21   H225  S    
C213  C214  A    
C57   H13   S    
C34   N2    S    
C275  H219  S    
C7    C135  A    
C185  C186  A    
C304  H260  S    
C259  H197  S    
C230  C231  A    
C208  H142  S    
C263  C264  A    
C32   C44   S    
C221  C226  A    
C93   C94   S    
C108  C239  S    
C262  H199  S    
C172  C173  A    
C16   C128  A    
O13   Zn5   S    
C190  C191  A    
O24   Zn16  S    
C202  H137  S    
C42   C62   S    
C50   H18   S    
C141  H62   S    
C217  H149  S    
N19   H217  S    
C241  H169  S    
O31   Zn7   S    
C79   C80   A    
N2    H49   S    
C46   C74   S    
C189  C190  A    
O2    Zn6   S    
C164  H92   S    
C180  H106  S    
C38   C66   T    
C128  C132  A    
C246  H180  S    
C39   C67   T    
C176  H102  S    
C301  C302  A    
C134  H2    S    
O51   Zn3   S    
C232  H162  S    
C299  C300  A    
C59   H15   S    
C52   H20   S    
C302  C303  A    
C57   H21   S    
C281  C282  A    
C47   O27   A    
C242  C243  A    
C158  C159  A    
O25   Zn1   S    
C306  H266  S    
N20   H221  S    
C144  H75   S    
C227  C232  A    
C298  H255  S    
C152  H82   S    
C71   C75   T    
C97   C110  S    
C28   C52   S    
C258  H196  S    
O41   Zn13  S    
C296  H253  S    
C191  C192  A    
C93   N9    S    
C99   C112  S    
C179  C180  A    
C159  H88   S    
C102  C106  A    
C267  C272  A    
C282  C283  A    
C97   C101  A    
C288  H246  S    
C219  H151  S    
C252  C253  A    
O16   Zn8   S    
C290  H248  S    
C146  C147  A    
C109  C110  S    
C169  C170  A    
C155  H85   S    
O32   Zn8   S    
C173  C174  A    
C171  H98   S    
C122  C130  S    
O7    Zn3   S    
C52   C56   S    
C294  C295  A    
N5    H61   S    
