data_mof_unit_67961.cif
_audit_creation_date              2013-03-05T16:46:09-0500
_audit_creation_method            fapswitch 2.2
_symmetry_space_group_name_H-M    P1
_symmetry_Int_Tables_number       1
_space_group_crystal_system       triclinic
_cell_length_a                    10.696382
_cell_length_b                    10.746883
_cell_length_c                    9.844269
_cell_angle_alpha                 90.663607
_cell_angle_beta                  90.500652
_cell_angle_gamma                 88.106278
_cell_volume                      1130.89252107

loop_
_atom_site_label
_atom_site_type_symbol
_atom_site_description
_atom_site_fract_x
_atom_site_fract_y
_atom_site_fract_z
_atom_type_partial_charge
O1    O     O_R   0.500020 0.316790 0.614690 -0.608757
O2    O     O_R   0.500000 0.316760 0.385350 -0.585553
C1    C     C_R   0.505969 0.259467 0.499350 0.886254
O3    O     O_R   0.316770 0.500030 0.614670 -0.614987
O4    O     O_R   0.316750 0.499990 0.385330 -0.638131
C2    C     C_R   0.260361 0.505407 0.499649 0.938450
Zn1   Zn    Zn3+2 0.500010 0.500020 0.653130 0.972707
Zn2   Zn    Zn3+2 0.499990 0.499980 0.346870 0.959983
O5    O     O_R   0.500000 0.683240 0.614650 -0.604648
O6    O     O_R   0.499980 0.683210 0.385310 -0.627287
O7    O     O_R   0.683250 0.500010 0.614670 -0.614986
O8    O     O_R   0.683230 0.499970 0.385330 -0.637992
C3    C     C_R   0.505793 0.739788 0.500875 0.967480
C4    C     C_R   0.740208 0.501005 0.500839 0.843401
H1    H     H_    0.264149 0.915138 0.072972 0.195431
C5    C     C_R   0.238935 0.858118 0.279167 -0.199146
H2    H     H_    0.293418 0.932691 0.320982 0.170462
C6    C     C_R   0.185434 0.772505 0.365801 0.482036
C7    C     C_R   0.117445 0.672530 0.310510 -0.101163
C8    C     C_R   0.101048 0.663861 0.167108 0.394983
C9    C     C_R   0.152916 0.752816 0.083630 -0.153621
H3    H     H_    0.141107 0.746173 0.974413 0.160091
C10   C     C_R   0.222255 0.848653 0.139052 -0.278653
C11   C     C_R   0.930467 0.574615 0.403840 -0.279168
H4    H     H_    0.874581 0.626237 0.329676 0.170659
C12   C     C_R   0.873126 0.505381 0.503595 -0.064144
C13   C     C_R   0.943143 0.447924 0.608545 -0.005736
C14   C     C_R   0.070615 0.449023 0.603259 -0.285353
H5    H     H_    0.125096 0.398003 0.679048 0.157177
C15   C     C_R   0.128182 0.513528 0.500899 -0.047622
C16   C     C_R   0.059269 0.582982 0.403832 0.007762
C17   C     C_R   0.894071 0.444750 0.855092 -0.123096
H6    H     H_    0.945111 0.529304 0.869006 0.180819
C18   C     C_R   0.830425 0.395109 0.964420 -0.141186
H7    H     H_    0.832680 0.440052 0.063220 0.164701
C19   C     C_R   0.759236 0.289877 0.944656 -0.154474
H8    H     H_    0.707345 0.252845 0.028073 0.147722
C20   C     C_R   0.752395 0.234800 0.815795 -0.099260
H9    H     H_    0.694221 0.158128 0.797151 0.113077
C21   C     C_R   0.817106 0.281961 0.707280 -0.109724
H10   H     H_    0.808583 0.238931 0.607643 0.098895
C22   C     C_R   0.886907 0.388334 0.725999 0.112012
C23   C     C_R   0.526136 0.063113 0.621431 -0.035163
C24   C     C_R   0.529900 0.127211 0.499100 -0.212519
C25   C     C_R   0.561763 0.059058 0.379200 0.439313
C26   C     C_R   0.555387 0.930214 0.381087 -0.237279
H11   H     H_    0.565414 0.878690 0.286720 0.185376
C27   C     C_R   0.530012 0.869573 0.502738 -0.223581
C28   C     C_R   0.534940 0.936173 0.624565 0.021768
C29   C     C_3   0.461276 0.931509 0.753742 0.364716
C30   C     C_3   0.445160 0.073910 0.744896 -0.546811
H12   H     H_    0.371416 0.883808 0.738816 0.133364
H13   H     H_    0.348031 0.104864 0.718576 0.175210
H14   H     H_    0.485094 0.129966 0.828348 0.209929
C31   C     C_R   0.443744 0.407053 0.069496 0.216372
N1    N     N_R   0.499160 0.499140 0.142800 -0.147462
C32   C     C_R   0.568880 0.581349 0.073744 -0.137305
H15   H     H_    0.623751 0.646747 0.130344 0.144287
C33   C     C_R   0.568704 0.581330 0.929417 -0.054741
H16   H     H_    0.622471 0.646884 0.874790 0.170804
N2    N     N_R   0.499160 0.499180 0.857150 -0.106982
C34   C     C_R   0.442061 0.408686 0.926842 0.151196
C35   C     C_3   0.306893 0.380456 0.919886 -0.594135
C36   C     C_3   0.309456 0.374126 0.074416 0.288421
H17   H     H_    0.248251 0.460166 0.881773 0.201358
H18   H     H_    0.290317 0.289888 0.868405 0.210699
H19   H     H_    0.251252 0.446187 0.128188 0.125872
O9    O     O_3   0.591919 0.113609 0.258449 -0.756402
H20   H     H_    0.648587 0.182266 0.280353 0.329553
O10   O     O_3   0.530250 0.881036 0.867600 -0.629417
C37   C     C_3   0.642838 0.942204 0.899342 0.116618
H21   H     H_    0.619564 0.031538 0.952133 0.178451
H22   H     H_    0.700465 0.954740 0.807526 0.129934
C38   C     C_3   0.724683 0.866811 0.998573 -0.347465
H23   H     H_    0.668629 0.844341 0.088205 0.228538
H24   H     H_    0.760366 0.779667 0.949170 0.206105
C39   C     C_3   0.837314 0.939982 0.046330 -0.952246
H25   H     H_    0.896930 0.962522 0.958666 0.261698
H26   H     H_    0.894082 0.883343 0.119310 0.268707
H27   H     H_    0.805870 0.027719 0.098110 0.282073
O11   O     O_3   0.297430 0.251352 0.121449 -0.595911
C40   C     C_3   0.169533 0.221943 0.128135 0.089259
H28   H     H_    0.161149 0.122881 0.097406 0.161707
H29   H     H_    0.108062 0.276994 0.056998 0.145314
C41   C     C_3   0.123384 0.238326 0.273886 -0.337548
H30   H     H_    0.181287 0.178048 0.342386 0.222667
H31   H     H_    0.134363 0.336155 0.306152 0.220841
C42   C     C_3   0.986022 0.206530 0.286280 -0.993604
H32   H     H_    0.926670 0.268324 0.221009 0.268362
H33   H     H_    0.955967 0.219900 0.393268 0.270825
H34   H     H_    0.972607 0.108043 0.255951 0.269343
O12   O     O_3   0.211483 0.780293 0.503531 -0.675677
C43   C     C_3   0.111211 0.841199 0.572702 0.063118
H35   H     H_    0.120065 0.814954 0.681309 0.175745
H36   H     H_    0.017783 0.810142 0.537598 0.135194
C44   C     C_3   0.118426 0.982848 0.560979 -0.398751
H37   H     H_    0.217622 0.009865 0.564008 0.227438
H38   H     H_    0.077716 0.011683 0.461839 0.222977
C45   C     C_3   0.047435 0.051004 0.674729 -0.966044
H39   H     H_    0.947336 0.026395 0.672439 0.265210
H40   H     H_    0.054054 0.152929 0.661028 0.268681
H41   H     H_    0.088943 0.026418 0.775166 0.258168
O13   O     O_3   0.038101 0.569300 0.103778 -0.838181
H42   H     H_    0.027483 0.500514 0.167922 0.332597

loop_
_geom_bond_atom_site_label_1
_geom_bond_atom_site_label_2
_geom_bond_distance
_ccdc_geom_bond_type
C31   N1    1.366110 A    
C35   H17   1.111695 S    
C43   H35   1.111331 S    
C7    C8    1.423381 A    
C7    C16   1.492446 S    
C44   C45   1.525168 S    
Zn2   N1    2.008779 S    
O11   C40   1.416464 S    
C8    O13   1.377668 S    
C41   H30   1.110979 S    
Zn1   O7    1.999480 S    
C12   C13   1.407225 A    
C38   H24   1.108307 S    
O4    C2    1.281296 A    
C14   H5    1.085194 S    
C11   C12   1.397056 A    
C6    C7    1.417988 A    
C15   C16   1.407631 A    
O7    C4    1.280484 A    
C32   C33   1.420770 A    
C5    H2    1.081853 S    
C31   C34   1.404584 A    
N1    C32   1.365707 A    
C18   H7    1.081357 S    
O5    C3    1.283394 A    
Zn1   N2    2.008654 S    
O9    H20   0.990910 S    
C38   C39   1.528051 S    
C44   H38   1.108518 S    
C29   H12   1.112034 S    
O10   C37   1.421637 S    
C39   H25   1.111180 S    
C21   C22   1.395486 A    
C35   H18   1.110869 S    
C33   H16   1.075745 S    
C43   H36   1.114823 S    
C9    H3    1.083263 S    
C44   H37   1.109327 S    
O3    Zn1   1.992984 S    
C39   H26   1.110608 S    
C26   C27   1.402859 A    
C1    C24   1.435835 S    
C33   N2    1.363270 A    
C38   H23   1.104586 S    
C41   H31   1.104448 S    
C36   H19   1.109936 S    
C11   H4    1.085348 S    
O3    C2    1.279361 A    
C37   H22   1.110451 S    
C23   C28   1.365027 A    
C25   C26   1.388950 A    
C30   H13   1.109790 S    
C17   C18   1.398749 A    
C23   C24   1.395809 A    
C34   C35   1.487902 S    
C37   C38   1.527630 S    
C45   H39   1.111298 S    
C42   H34   1.109946 S    
Zn2   O8    1.992985 S    
C31   C36   1.491981 S    
C8    C9    1.399380 A    
C25   O9    1.376990 S    
C29   C30   1.537761 S    
C4    C12   1.424082 S    
Zn2   O6    2.000870 S    
C21   H10   1.083944 S    
C45   H40   1.109852 S    
C42   H33   1.110235 S    
C28   C29   1.504013 S    
C43   C44   1.532522 S    
C40   H29   1.117404 S    
C9    C10   1.392460 A    
O4    Zn2   1.999480 S    
C19   C20   1.395973 A    
C13   C14   1.365387 A    
C24   C25   1.419962 A    
C41   C42   1.525686 S    
Zn1   O5    2.009452 S    
C26   H11   1.080281 S    
C19   H8    1.082097 S    
C2    C15   1.413793 S    
O1    Zn1   2.000870 S    
O2    Zn2   2.009450 S    
O8    C4    1.285538 A    
O6    C3    1.285717 A    
C3    C27   1.426908 S    
C5    C10   1.392253 A    
C40   C41   1.527793 S    
C30   H14   1.104384 S    
C6    O12   1.383939 S    
C17   H6    1.082190 S    
C14   C15   1.389358 A    
O2    C1    1.286380 A    
C29   O10   1.438060 S    
C11   C16   1.383607 A    
C37   H21   1.108458 S    
C20   C21   1.387727 A    
C39   H27   1.110362 S    
C13   C22   1.470927 S    
C23   C30   1.499812 S    
C32   H15   1.077669 S    
C20   H9    1.062184 S    
C27   C28   1.391006 A    
H1    C10   1.082362 S    
O12   C43   1.413693 S    
C18   C19   1.394952 A    
N2    C34   1.360719 A    
C36   O11   1.413589 S    
C35   C36   1.523512 S    
C45   H41   1.111370 S    
C42   H32   1.109871 S    
C5    C6    1.401024 A    
C40   H28   1.109640 S    
O13   H42   0.987780 S    
C17   C22   1.404279 A    
O1    C1    1.286567 A    
