data_mof_unit_34285.cif
_audit_creation_date              2012-12-11T15:18:10-0500
_audit_creation_method            fapswitch 2.2
_symmetry_space_group_name_H-M    P1
_symmetry_Int_Tables_number       1
_space_group_crystal_system       triclinic
_cell_length_a                    15.683847
_cell_length_b                    15.683767
_cell_length_c                    34.375571
_cell_angle_alpha                 89.91332
_cell_angle_beta                  89.911605
_cell_angle_gamma                 119.433882
_cell_volume                      7364.28939088

loop_
_atom_site_label
_atom_site_type_symbol
_atom_type_description
_atom_site_fract_x
_atom_site_fract_y
_atom_site_fract_z
_atom_type_partial_charge
C1    C     C_R   0.578123 0.441582 0.554781 0.556744
C2    C     C_R   0.510871 0.006117 0.209583 0.340344
C3    C     C_R   0.498500 0.485437 0.208640 0.339631
C4    C     C_R   0.919807 0.474232 0.198307 0.336198
C5    C     C_R   0.010592 0.434684 0.852927 0.240657
C6    C     C_R   0.564532 0.580404 0.851493 0.236993
C7    C     C_R   0.343605 0.844224 0.835708 0.237348
C8    C     C_R   0.434707 0.010547 0.352929 0.240697
C9    C     C_R   0.580461 0.564495 0.351478 0.236963
C10   C     C_R   0.844527 0.343759 0.335720 0.237315
C11   C     C_R   0.040028 0.447118 0.891704 -0.085971
C12   C     C_R   0.558939 0.137184 0.555198 0.557972
C13   C     C_R   0.552753 0.596036 0.890552 -0.094414
C14   C     C_R   0.335160 0.833696 0.876058 -0.090827
C15   C     C_R   0.447136 0.039972 0.391708 -0.085971
C16   C     C_R   0.596079 0.552732 0.390540 -0.094465
C17   C     C_R   0.833993 0.335315 0.376068 -0.090844
C18   C     C_R   0.081777 0.617530 0.888679 -0.138571
C19   C     C_R   0.383304 0.467554 0.888332 -0.136018
C20   C     C_R   0.481699 0.819434 0.878799 -0.135833
C21   C     C_R   0.617606 0.081942 0.388655 -0.138564
C22   C     C_R   0.467557 0.383300 0.388331 -0.136003
C23   C     C_R   0.863387 0.421608 0.554834 0.570220
C24   C     C_R   0.819201 0.481552 0.378785 -0.135887
C25   C     C_R   0.053421 0.605997 0.849835 -0.128465
C26   C     C_R   0.394318 0.451819 0.849292 -0.145202
C27   C     C_R   0.491037 0.830151 0.838401 -0.141079
C28   C     C_R   0.606079 0.053604 0.349809 -0.128624
C29   C     C_R   0.451834 0.394300 0.349289 -0.145201
C30   C     C_R   0.829910 0.490882 0.338386 -0.141093
C31   C     C_R   0.022898 0.516253 0.830991 0.038807
C32   C     C_R   0.483138 0.511388 0.829983 0.039496
C33   C     C_R   0.422897 0.843371 0.816323 0.040472
C34   C     C_R   0.441581 0.578123 0.054781 0.556743
C35   C     C_R   0.516300 0.022966 0.330979 0.038791
C36   C     C_R   0.511427 0.483102 0.329973 0.039492
C37   C     C_R   0.843390 0.422888 0.316321 0.040464
C38   C     C_R   0.080598 0.539586 0.909147 -0.022329
C39   C     C_R   0.461029 0.543304 0.908616 -0.021668
C40   C     C_R   0.404618 0.823007 0.898063 -0.023595
C41   C     C_R   0.539620 0.080633 0.409140 -0.022305
C42   C     C_R   0.543319 0.461023 0.408612 -0.021685
C43   C     C_R   0.823032 0.404625 0.398062 -0.023605
C44   C     C_R   0.578246 0.442256 0.445458 0.543776
C45   C     C_R   0.137183 0.558939 0.055198 0.557973
C46   C     C_R   0.558071 0.135594 0.445557 0.548149
C47   C     C_R   0.809535 0.392009 0.440626 0.567009
C48   C     C_R   0.442256 0.578244 0.945459 0.543802
C49   C     C_R   0.135590 0.558066 0.945558 0.548148
C50   C     C_R   0.392008 0.809529 0.940627 0.567036
C51   C     C_R   0.920850 0.457422 0.590711 0.022034
C52   C     C_R   0.540864 0.463746 0.590320 0.021932
C53   C     C_R   0.534741 0.071679 0.589190 0.020685
C54   C     C_R   0.457425 0.920873 0.090705 0.022038
C55   C     C_R   0.463743 0.540859 0.090318 0.021932
C56   C     C_R   0.421608 0.863391 0.054832 0.570223
C57   C     C_R   0.071667 0.534734 0.089188 0.020682
C58   C     C_R   0.956654 0.401752 0.609289 -0.125438
C59   C     C_R   0.594486 0.555333 0.608248 -0.125526
C60   C     C_R   0.438740 0.021662 0.603787 -0.124590
C61   C     C_R   0.401743 0.956667 0.109281 -0.125431
C62   C     C_R   0.555332 0.594470 0.108245 -0.125527
C63   C     C_R   0.021668 0.438733 0.103786 -0.124587
C64   C     C_R   0.991402 0.423640 0.647270 -0.109874
C65   C     C_R   0.571535 0.569262 0.645992 -0.109845
C66   C     C_R   0.418024 0.967630 0.638211 -0.107858
C67   C     C_R   0.006049 0.510862 0.709595 0.340364
C68   C     C_R   0.423634 0.991433 0.147261 -0.109880
C69   C     C_R   0.569263 0.571506 0.145986 -0.109840
C70   C     C_R   0.967625 0.418006 0.138207 -0.107852
C71   C     C_R   0.990232 0.501150 0.667277 0.036335
C72   C     C_R   0.495046 0.491541 0.666381 0.036017
C73   C     C_R   0.493168 0.963522 0.658938 0.034985
C74   C     C_R   0.501160 0.990294 0.167265 0.036332
C75   C     C_R   0.491542 0.495016 0.166375 0.036013
C76   C     C_R   0.963482 0.493137 0.158932 0.034982
C77   C     C_R   0.962968 0.562213 0.647372 -0.108982
C78   C     C_R   0.485482 0.498494 0.708649 0.339634
C79   C     C_R   0.435628 0.403092 0.647020 -0.110486
C80   C     C_R   0.588335 0.009933 0.643349 -0.109424
C81   C     C_R   0.562238 0.963048 0.147359 -0.108984
C82   C     C_R   0.403087 0.435613 0.147016 -0.110487
C83   C     C_R   0.009872 0.588303 0.143341 -0.109417
C84   C     C_R   0.928755 0.540648 0.609326 -0.125960
C85   C     C_R   0.458251 0.389361 0.609208 -0.125896
C86   C     C_R   0.608831 0.063140 0.608724 -0.125662
C87   C     C_R   0.540667 0.928813 0.109316 -0.125968
C88   C     C_R   0.389354 0.458246 0.109206 -0.125891
C89   C     C_R   0.474274 0.919858 0.698314 0.336183
C90   C     C_R   0.063094 0.608811 0.108718 -0.125664
C91   C     C_R   0.013856 0.512398 0.788368 0.378056
C92   C     C_R   0.485967 0.506029 0.787377 0.373441
C93   C     C_R   0.440160 0.863162 0.774088 0.371500
C94   C     C_R   0.512428 0.013916 0.288357 0.377976
C95   C     C_R   0.506062 0.485918 0.287368 0.373440
C96   C     C_R   0.863136 0.440131 0.274084 0.371500
Cl1   Cl    Cl    0.960052 0.315928 0.833280 -0.520677
Cl2   Cl    Cl    0.682190 0.649868 0.830972 -0.524068
Cl3   Cl    Cl    0.255759 0.864524 0.811785 -0.547618
Cl4   Cl    Cl    0.315927 0.959873 0.333298 -0.520582
Cl5   Cl    Cl    0.649967 0.682133 0.330946 -0.524037
Cl6   Cl    Cl    0.865204 0.256145 0.311811 -0.547370
Cr1   Cr    Cr6+3 0.522350 0.263930 0.500020 1.026303
Cr2   Cr    Cr6+3 0.736070 0.258420 0.500020 1.027801
Cr3   Cr    Cr6+3 0.741580 0.477650 0.500020 1.033560
Cr4   Cr    Cr6+3 0.263930 0.522350 0.000020 1.026291
Cr5   Cr    Cr6+3 0.258420 0.736070 0.000020 1.027792
Cr6   Cr    Cr6+3 0.477650 0.741580 0.000020 1.033526
H1    H     H_    0.952395 0.337852 0.595379 0.137673
H2    H     H_    0.385408 0.035599 0.407621 0.167981
H3    H     H_    0.653132 0.614172 0.406187 0.167883
H4    H     H_    0.835641 0.274517 0.390317 0.159893
H5    H     H_    0.013265 0.375987 0.661668 0.150177
H6    H     H_    0.617842 0.638820 0.659972 0.150510
H7    H     H_    0.343889 0.932729 0.649417 0.150057
H8    H     H_    0.375971 0.013286 0.161658 0.150171
H9    H     H_    0.638823 0.617805 0.159965 0.150518
H10   H     H_    0.932739 0.343871 0.149413 0.150062
H11   H     H_    0.962872 0.623471 0.661824 0.151217
H12   H     H_    0.657734 0.614340 0.594060 0.137586
H13   H     H_    0.375095 0.342475 0.661785 0.148365
H14   H     H_    0.647698 0.007713 0.658501 0.147832
H15   H     H_    0.623508 0.962976 0.161809 0.151221
H16   H     H_    0.342470 0.375079 0.161780 0.148363
H17   H     H_    0.007628 0.647659 0.158490 0.147845
H18   H     H_    0.111296 0.689265 0.901738 0.147326
H19   H     H_    0.311854 0.425343 0.901695 0.155498
H20   H     H_    0.534944 0.808668 0.894927 0.158705
H21   H     H_    0.689362 0.111553 0.401701 0.147341
H22   H     H_    0.425326 0.311860 0.401699 0.155502
H23   H     H_    0.380096 0.026437 0.589170 0.137326
H24   H     H_    0.808223 0.534673 0.394905 0.158674
H25   H     H_    0.061791 0.669267 0.833877 0.197950
H26   H     H_    0.331131 0.397447 0.833579 0.165464
H27   H     H_    0.552077 0.828457 0.824364 0.173079
H28   H     H_    0.669375 0.062078 0.333840 0.197806
H29   H     H_    0.397448 0.331115 0.333579 0.165442
H30   H     H_    0.827999 0.551795 0.324338 0.173092
H31   H     H_    0.902611 0.585514 0.595470 0.135475
H32   H     H_    0.414851 0.318347 0.595811 0.136007
H33   H     H_    0.683515 0.100683 0.598062 0.134269
H34   H     H_    0.337832 0.952385 0.095373 0.137677
H35   H     H_    0.585543 0.902679 0.095460 0.135469
H36   H     H_    0.318338 0.414855 0.095810 0.136009
H37   H     H_    0.100622 0.683495 0.098055 0.134261
H38   H     H_    0.614340 0.657718 0.094057 0.137584
H39   H     H_    0.026466 0.380097 0.089172 0.137326
H40   H     H_    0.035744 0.385413 0.907604 0.167998
H41   H     H_    0.614194 0.653077 0.906203 0.167862
H42   H     H_    0.274244 0.835134 0.890299 0.159752
N1    N     N_R   0.036999 0.453334 0.767455 -0.137053
N2    N     N_R   0.451843 0.032320 0.228862 -0.208288
N3    N     N_R   0.583877 0.542426 0.227460 -0.206831
N4    N     N_R   0.867984 0.381376 0.212162 -0.206983
N5    N     N_R   0.985043 0.571706 0.730478 -0.198814
N6    N     N_R   0.427486 0.417244 0.729954 -0.211940
N7    N     N_R   0.549680 0.939696 0.722783 -0.206485
N8    N     N_R   0.571826 0.985253 0.230457 -0.198861
N9    N     N_R   0.417241 0.427501 0.229951 -0.211919
N10   N     N_R   0.939516 0.549635 0.222760 -0.206476
N11   N     N_R   0.989545 0.572988 0.769131 -0.186714
N12   N     N_R   0.542100 0.587669 0.766069 -0.139935
N13   N     N_R   0.427184 0.421070 0.768590 -0.209745
N14   N     N_R   0.532961 0.911800 0.759903 -0.201201
N15   N     N_R   0.573117 0.989753 0.269111 -0.186811
N16   N     N_R   0.421080 0.427197 0.268586 -0.209694
N17   N     N_R   0.911632 0.532923 0.259883 -0.201090
N18   N     N_R   0.364777 0.839772 0.749217 -0.130503
N19   N     N_R   0.453248 0.036915 0.267452 -0.137054
N20   N     N_R   0.587709 0.541987 0.266055 -0.140001
N21   N     N_R   0.839868 0.364744 0.249228 -0.130576
N22   N     N_R   0.032400 0.451938 0.728865 -0.208275
N23   N     N_R   0.542537 0.583849 0.727474 -0.206834
N24   N     N_R   0.381415 0.867901 0.712152 -0.206993
O1    O     O_R   0.498680 0.159540 0.541860 -0.513493
O2    O     O_R   0.358060 0.532760 0.040030 -0.501991
O3    O     O_R   0.174700 0.641940 0.040030 -0.503157
O4    O     O_R   0.467240 0.825300 0.040030 -0.497760
O5    O     O_R   0.498590 0.161190 0.456930 -0.515999
O6    O     O_R   0.838810 0.337400 0.456930 -0.505514
O7    O     O_R   0.662600 0.501410 0.456930 -0.531661
O8    O     O_R   0.161190 0.498590 0.956930 -0.516016
O9    O     O_R   0.337400 0.838810 0.956930 -0.505454
O10   O     O_R   0.501410 0.662600 0.956930 -0.531629
O11   O     O_R   0.532680 0.359580 0.461300 -0.500355
O12   O     O_R   0.840460 0.339140 0.541860 -0.511569
O13   O     O_R   0.640420 0.173100 0.461300 -0.520313
O14   O     O_R   0.826900 0.467320 0.461300 -0.484494
O15   O     O_R   0.359580 0.532680 0.961300 -0.500366
O16   O     O_R   0.173100 0.640420 0.961300 -0.520332
O17   O     O_R   0.467320 0.826900 0.961300 -0.484573
O18   O     O_3   0.666667 0.333333 0.499990 -0.274232
O19   O     O_3   0.333333 0.666667 0.999990 -0.274222
O20   O     O_R   0.660860 0.501320 0.541860 -0.515609
O21   O     O_R   0.159540 0.498680 0.041860 -0.513497
O22   O     O_R   0.339140 0.840460 0.041860 -0.511578
O23   O     O_R   0.501320 0.660860 0.041860 -0.515608
O24   O     O_R   0.532760 0.358060 0.540030 -0.501987
O25   O     O_R   0.641940 0.174700 0.540030 -0.503162
O26   O     O_R   0.825300 0.467240 0.540030 -0.497761

loop_
_geom_bond_atom_site_label_1
_geom_bond_atom_site_label_2
_ccdc_geom_bond_type
C25   C31   A    
C6    C32   A    
C17   H4    S    
C45   O21   A    
C59   H12   S    
C30   H30   S    
C22   C29   A    
C58   H1    S    
C65   H6    S    
C4    N4    A    
C1    O24   A    
C15   H2    S    
C3    N3    A    
C38   C49   S    
C80   H14   S    
N5    N11   A    
C26   C32   A    
C79   H13   S    
C29   C36   A    
C45   C57   S    
C7    Cl3   S    
C81   H15   S    
C10   C37   A    
C6    Cl2   S    
Cr3   O14   S    
C52   C85   A    
C9    C16   A    
C20   H20   S    
C90   H37   S    
C94   N19   A    
C54   C87   A    
C20   C40   A    
C82   C88   A    
C11   H40   S    
N10   N17   A    
C10   C17   A    
C68   C74   A    
Cr2   O18   S    
C55   C62   A    
C55   C88   A    
C94   N15   A    
C67   N5    A    
N8    N15   A    
C64   C71   A    
C82   H16   S    
Cr6   O23   S    
Cr2   O13   S    
C19   C26   A    
Cr4   O8    S    
C80   C86   A    
C56   O22   A    
C12   O25   A    
Cr3   O26   S    
C50   O9    A    
C93   N18   A    
C96   N21   A    
Cr1   O11   S    
N3    N20   A    
C22   C42   A    
C9    C36   A    
C72   C78   S    
C41   C46   S    
Cr6   O17   S    
C36   C95   S    
C53   C86   A    
C46   O13   A    
C3    C75   S    
Cr1   O5    S    
C12   C53   S    
C2    C74   S    
C45   O3    A    
C44   O11   A    
C21   H21   S    
C60   C66   A    
C34   C55   S    
C22   H22   S    
C3    N9    A    
C7    C33   A    
Cr3   O18   S    
C18   C25   A    
C42   C44   S    
C89   N24   A    
C83   H17   S    
C76   C83   A    
C63   H39   S    
Cr5   O22   S    
C1    C52   S    
C53   C60   A    
C57   C63   A    
Cr4   O19   S    
C7    C14   A    
C58   C64   A    
Cr3   O20   S    
C54   C56   S    
C4    C76   S    
C57   C90   A    
Cr6   O10   S    
C10   Cl6   S    
N6    N13   A    
C66   H7    S    
C60   H23   S    
C34   O23   A    
C56   O4    A    
C49   O16   A    
C77   C84   A    
C18   H18   S    
C66   C73   A    
C23   O26   A    
C27   C33   A    
N1    N22   A    
C37   C96   S    
Cr5   O9    S    
C8    C35   A    
C11   C38   A    
N18   N24   A    
C17   C43   A    
C47   O6    A    
C26   H26   S    
C52   C59   A    
C78   N23   A    
C24   H24   S    
C23   C51   S    
N7    N14   A    
C63   C70   A    
C79   C85   A    
C2    N8    A    
N12   N23   A    
C14   H42   S    
C2    N2    A    
Cr1   O1    S    
C96   N17   A    
Cr6   O4    S    
C51   C58   A    
C89   N7    A    
C50   O17   A    
C85   H32   S    
C15   C41   A    
C48   O15   A    
C81   C87   A    
C19   C39   A    
C84   H31   S    
C12   O1    A    
C21   C41   A    
C62   C69   A    
C92   N13   A    
C54   C61   A    
C21   C28   A    
C68   H8    S    
C8    C15   A    
C31   C91   S    
C70   C76   A    
Cr2   O25   S    
C74   C81   A    
C95   N16   A    
C16   C42   A    
C71   C77   A    
C25   H25   S    
C48   O10   A    
C86   H33   S    
C35   C94   S    
C92   N12   A    
C28   C35   A    
C83   C90   A    
Cr3   O7    S    
C64   H5    S    
Cr5   O19   S    
C28   H28   S    
C46   O5    A    
C5    Cl1   S    
C77   H11   S    
C33   C93   S    
C4    N10   A    
C23   O12   A    
C75   C82   A    
C5    C11   A    
Cr4   O21   S    
C20   C27   A    
C67   N22   A    
C72   C79   A    
C65   C72   A    
C29   H29   S    
Cr2   O12   S    
C93   N14   A    
N9    N16   A    
C27   H27   S    
C1    O20   A    
C8    Cl4   S    
C13   H41   S    
C73   C89   S    
C59   C65   A    
C6    C13   A    
C91   N1    A    
N2    N19   A    
C61   C68   A    
C78   N6    A    
Cr2   O6    S    
C70   H10   S    
C40   C50   S    
C44   O7    A    
Cr5   O16   S    
C69   H9    S    
C73   C80   A    
C88   H36   S    
N4    N21   A    
C69   C75   A    
C67   C71   S    
C18   C38   A    
C95   N20   A    
C24   C30   A    
C13   C39   A    
C34   O2    A    
C32   C92   S    
C14   C40   A    
C49   O8    A    
C61   H34   S    
C30   C37   A    
C9    Cl5   S    
C62   H38   S    
C47   O14   A    
C24   C43   A    
Cr4   O2    S    
C91   N11   A    
Cr1   O18   S    
C19   H19   S    
Cr4   O15   S    
C87   H35   S    
Cr6   O19   S    
C43   C47   S    
C51   C84   A    
Cr1   O24   S    
Cr5   O3    S    
C16   H3    S    
C39   C48   S    
C5    C31   A    
