data_mof_unit_13999.cif
_audit_creation_date              2012-12-10T17:50:42-0500
_audit_creation_method            fapswitch 2.2
_symmetry_space_group_name_H-M    P1
_symmetry_Int_Tables_number       1
_space_group_crystal_system       triclinic
_cell_length_a                    14.706607
_cell_length_b                    14.630022
_cell_length_c                    15.877131
_cell_angle_alpha                 76.885671
_cell_angle_beta                  102.641784
_cell_angle_gamma                 114.739556
_cell_volume                      2991.85310693

loop_
_atom_site_label
_atom_site_type_symbol
_atom_type_description
_atom_site_fract_x
_atom_site_fract_y
_atom_site_fract_z
_atom_type_partial_charge
C1    C     C_R   0.880420 0.312011 0.518003 0.843319
C2    C     C_R   0.119579 0.687988 0.481989 0.843277
C3    C     C_R   0.779059 0.028053 0.604252 0.421099
C4    C     C_R   0.220957 0.971932 0.395669 0.420906
C5    C     C_R   0.845797 0.130876 0.593146 0.414742
C6    C     C_R   0.154225 0.869104 0.406772 0.414906
C7    C     C_R   0.711261 0.175604 0.501273 -0.304639
C8    C     C_R   0.288720 0.824403 0.498760 -0.304628
C9    C     C_R   0.639867 0.076348 0.520908 -0.013066
C10   C     C_R   0.360118 0.923658 0.479135 -0.012955
C11   C     C_R   0.675739 0.999730 0.566809 -0.142917
C12   C     C_R   0.324254 0.000271 0.433205 -0.143073
C13   C     C_R   0.534211 0.051517 0.493896 0.043712
C14   C     C_R   0.465769 0.948492 0.506181 0.043690
C15   C     C_R   0.505248 0.872807 0.542473 -0.303438
C16   C     C_R   0.494725 0.127203 0.457634 -0.303368
C17   C     C_R   0.607721 0.897030 0.572935 0.498488
C18   C     C_R   0.392255 0.102977 0.427149 0.498165
C19   C     C_R   0.706867 0.653864 0.343343 -0.273772
C20   C     C_R   0.293165 0.346192 0.656691 -0.273839
C21   C     C_R   0.791646 0.629755 0.370981 0.102528
C22   C     C_R   0.208374 0.370280 0.629040 0.102576
C23   C     C_R   0.999693 0.500271 0.659916 0.799064
C24   C     C_R   0.000304 0.499723 0.340084 0.798978
C25   C     C_R   0.717532 0.514199 0.491552 0.040750
C26   C     C_R   0.282461 0.485791 0.508440 0.040735
C27   C     C_R   0.628706 0.535864 0.467411 -0.065324
C28   C     C_R   0.371305 0.464157 0.532600 -0.065361
C29   C     C_R   0.624388 0.606725 0.390606 0.044392
C30   C     C_R   0.375638 0.393323 0.609422 0.044399
C31   C     C_R   0.544351 0.488921 0.515594 -0.002389
C32   C     C_R   0.455663 0.511108 0.484421 -0.002377
C33   C     C_R   0.454124 0.579518 0.406115 -0.308978
C34   C     C_R   0.545905 0.420538 0.593914 -0.309016
C35   C     C_R   0.537801 0.629281 0.361388 0.487867
C36   C     C_R   0.462239 0.370791 0.638655 0.487867
C37   C     C_3   0.039260 0.431550 0.049436 -0.430708
C38   C     C_3   0.960735 0.568444 0.950565 -0.430720
C39   C     C_3   0.944256 0.407853 0.979712 0.338700
C40   C     C_3   0.055739 0.592141 0.020288 0.338696
C41   C     C_1   0.999120 0.500828 0.749234 -0.168771
C42   C     C_1   0.000876 0.499166 0.250767 -0.168775
C43   C     C_3   0.094083 0.527211 0.985428 0.467092
C44   C     C_3   0.905912 0.472783 0.014572 0.467089
C45   C     C_3   0.999474 0.501762 0.916079 -0.021390
C46   C     C_3   0.000521 0.498233 0.083921 -0.021389
C47   C     C_1   0.999161 0.501306 0.824583 0.086832
C48   C     C_1   0.000834 0.498688 0.175418 0.086837
C49   C     C_R   0.812853 0.203971 0.536909 -0.226054
C50   C     C_R   0.187145 0.796024 0.463070 -0.226049
Cu1   Cu    Cu3+1 0.081740 0.475690 0.522610 0.960385
Cu2   Cu    Cu3+1 0.918260 0.524310 0.477390 0.960352
H1    H     H_    0.273673 0.540642 0.452846 0.124877
H2    H     H_    0.726300 0.459316 0.547126 0.124865
H3    H     H_    0.145731 0.334872 0.666195 0.146031
H4    H     H_    0.854300 0.665182 0.333837 0.146132
H5    H     H_    0.705944 0.708596 0.284723 0.187369
H6    H     H_    0.294102 0.291485 0.715328 0.187331
H7    H     H_    0.388751 0.596831 0.377097 0.153977
H8    H     H_    0.611291 0.403251 0.622943 0.153983
H9    H     H_    0.069530 0.375214 0.089908 0.175461
H10   H     H_    0.930465 0.624781 0.910092 0.175455
H11   H     H_    0.310031 0.767388 0.544011 0.190445
H12   H     H_    0.689930 0.232629 0.456057 0.190455
H13   H     H_    0.458710 0.792652 0.547590 0.159230
H14   H     H_    0.541257 0.207359 0.452556 0.159220
N1    N     N_R   0.795440 0.560790 0.443380 -0.181854
N2    N     N_R   0.204560 0.439210 0.556620 -0.181837
O1    O     O_R   0.977900 0.338120 0.529810 -0.538395
O2    O     O_R   0.022100 0.661880 0.470190 -0.538481
O3    O     O_R   0.839850 0.379180 0.491620 -0.596261
O4    O     O_R   0.160150 0.620820 0.508380 -0.596245
O5    O     O_R   0.069010 0.479460 0.640020 -0.583001
O6    O     O_R   0.930990 0.520540 0.359980 -0.583038
O7    O     O_R   0.930960 0.520530 0.601820 -0.581333
O8    O     O_R   0.069040 0.479470 0.398180 -0.581328
O9    O     O_3   0.884667 0.311844 0.955621 -0.726563
H15   H     H_    0.858699 0.267818 0.009607 0.335954
O10   O     O_3   0.115328 0.688150 0.044379 -0.726589
H16   H     H_    0.141295 0.732177 0.990393 0.335942
O11   O     O_3   0.808068 0.440395 0.036521 -0.570791
C51   C     C_3   0.738560 0.438166 0.959526 -0.243630
H17   H     H_    0.741290 0.389929 0.915874 0.189892
H18   H     H_    0.751443 0.516453 0.924220 0.157188
H19   H     H_    0.661176 0.404551 0.977630 0.193223
O12   O     O_3   0.191926 0.559600 0.963479 -0.570785
C52   C     C_3   0.261435 0.561828 0.040474 -0.243646
H20   H     H_    0.248552 0.483541 0.075779 0.157185
H21   H     H_    0.258706 0.610065 0.084127 0.189890
H22   H     H_    0.338819 0.595443 0.022370 0.193227
O13   O     O_3   0.639285 0.818815 0.612918 -0.553784
C53   C     C_3   0.651438 0.775060 0.547823 -0.236711
H23   H     H_    0.707483 0.832426 0.505641 0.167894
H24   H     H_    0.577996 0.738234 0.507550 0.134545
H25   H     H_    0.680467 0.714985 0.579996 0.197399
O14   O     O_3   0.360678 0.181196 0.387217 -0.553808
C54   C     C_3   0.348475 0.224859 0.452352 -0.236498
H26   H     H_    0.421903 0.261683 0.492641 0.134514
H27   H     H_    0.292434 0.167435 0.494510 0.167832
H28   H     H_    0.319415 0.284922 0.420218 0.197393
O15   O     O_3   0.056411 0.842203 0.363484 -0.543059
C55   C     C_3   0.050298 0.802620 0.288064 -0.302735
H29   H     H_    0.980553 0.802328 0.243680 0.182334
H30   H     H_    0.045274 0.722999 0.305167 0.163350
H31   H     H_    0.115235 0.848784 0.250974 0.136348
O16   O     O_3   0.943645 0.157760 0.636354 -0.543060
C56   C     C_3   0.949808 0.197166 0.711887 -0.302586
H32   H     H_    0.954523 0.276692 0.694904 0.163185
H33   H     H_    0.019720 0.197670 0.756095 0.182177
H34   H     H_    0.885048 0.150723 0.749120 0.136450
O17   O     O_3   0.817303 0.955468 0.647765 -0.523625
C57   C     C_3   0.807373 0.935989 0.737329 -0.174443
H35   H     H_    0.741079 0.946123 0.750837 0.124035
H36   H     H_    0.877935 0.984406 0.774228 0.156179
H37   H     H_    0.797256 0.855652 0.762681 0.191658
O18   O     O_3   0.182701 0.044500 0.352124 -0.523482
C58   C     C_3   0.193014 0.064208 0.262638 -0.174564
H38   H     H_    0.123075 0.015035 0.225632 0.155606
H39   H     H_    0.260164 0.055360 0.249470 0.125219
H40   H     H_    0.201950 0.144211 0.237131 0.191376
O19   O     O_3   0.531474 0.695062 0.284562 -0.578320
C59   C     C_3   0.548467 0.790049 0.305648 -0.343595
H41   H     H_    0.625038 0.823680 0.343061 0.156088
H42   H     H_    0.489423 0.783957 0.342544 0.161724
H43   H     H_    0.544790 0.843172 0.244065 0.205545
O20   O     O_3   0.468591 0.305061 0.715510 -0.578330
C60   C     C_3   0.451624 0.210054 0.694480 -0.343624
H44   H     H_    0.510660 0.216135 0.657582 0.161740
H45   H     H_    0.375045 0.176376 0.657094 0.156082
H46   H     H_    0.455339 0.156979 0.756088 0.205549

loop_
_geom_bond_atom_site_label_1
_geom_bond_atom_site_label_2
_ccdc_geom_bond_type
C52   H20   S    
O20   C60   S    
C27   C29   A    
C18   O14   S    
O17   C57   S    
C25   N1    A    
Cu2   O7    S    
C57   H36   S    
C54   H26   S    
C20   C30   A    
O9    H15   S    
C19   H5    S    
C40   C46   S    
C1    O3    A    
C39   O9    S    
C19   C21   A    
Cu2   O6    S    
C58   H39   S    
O16   C56   S    
C15   H13   S    
C24   C42   S    
O18   C58   S    
C55   H31   S    
C15   C17   A    
C6    O15   S    
C9    C13   A    
C38   C45   S    
C2    C50   S    
C40   C43   S    
C3    O17   S    
C17   O13   S    
C56   H32   S    
C4    C12   A    
C39   C45   S    
C33   H7    S    
C13   C14   A    
C21   N1    A    
C34   H8    S    
C56   H33   S    
C5    C49   A    
C23   O5    A    
C2    O4    A    
C57   H35   S    
C54   H27   S    
C44   C46   S    
O11   C51   S    
C5    O16   S    
C45   C47   S    
C46   C48   S    
C31   C34   A    
C27   C31   A    
Cu1   Cu2   S    
O15   C55   S    
C28   C32   A    
C20   H6    S    
Cu2   O2    S    
C25   H2    S    
C7    C49   A    
C4    C6    A    
C44   O11   S    
C10   C14   A    
C58   H40   S    
O13   C53   S    
O12   C52   S    
C24   O8    A    
C53   H25   S    
C1    O1    A    
C37   C43   S    
C60   H45   S    
C38   C44   S    
C43   C45   S    
C31   C32   A    
C35   O19   S    
O14   C54   S    
C53   H24   S    
C41   C47   T    
C40   O10   S    
C42   C48   T    
C6    C50   A    
C55   H30   S    
C9    C11   A    
C22   N2    A    
O19   C59   S    
C22   H3    S    
Cu2   N1    S    
C10   C12   A    
C16   C18   A    
C20   C22   A    
C51   H18   S    
C52   H21   S    
C56   H34   S    
C13   C16   A    
C16   H14   S    
Cu1   O4    S    
C59   H42   S    
C60   H44   S    
C19   C29   A    
C26   H1    S    
C8    C50   A    
C54   H28   S    
C7    C9    A    
C11   C17   A    
C43   O12   S    
C4    O18   S    
C36   O20   S    
Cu1   O5    S    
C23   O7    A    
C3    C5    A    
C21   H4    S    
C37   H9    S    
C39   C44   S    
C25   C27   A    
C51   H19   S    
C29   C35   A    
C26   C28   A    
C23   C41   S    
C30   C36   A    
C26   N2    A    
C32   C33   A    
C59   H43   S    
C28   C30   A    
C59   H41   S    
C60   H46   S    
C37   C39   S    
Cu2   O3    S    
C58   H38   S    
C38   C40   S    
C24   O6    A    
C53   H23   S    
C33   C35   A    
C34   C36   A    
Cu1   N2    S    
C55   H29   S    
C7    H12   S    
C3    C11   A    
C8    H11   S    
O10   H16   S    
C8    C10   A    
C51   H17   S    
C52   H22   S    
C12   C18   A    
Cu1   O8    S    
C14   C15   A    
Cu1   O1    S    
C37   C46   S    
C2    O2    A    
C1    C49   S    
C57   H37   S    
C38   H10   S    
