data_mof_unit_33828.cif
_audit_creation_date              2012-12-10T16:56:29-0500
_audit_creation_method            fapswitch 2.2
_symmetry_space_group_name_H-M    P1
_symmetry_Int_Tables_number       1
_space_group_crystal_system       triclinic
_cell_length_a                    7.768777
_cell_length_b                    8.571648
_cell_length_c                    15.714304
_cell_angle_alpha                 90.869754
_cell_angle_beta                  85.998564
_cell_angle_gamma                 93.646046
_cell_volume                      1041.71028715

loop_
_atom_site_label
_atom_site_type_symbol
_atom_type_description
_atom_site_fract_x
_atom_site_fract_y
_atom_site_fract_z
_atom_type_partial_charge
C1    C     C_R   0.545780 0.794732 0.497809 0.962599
C2    C     C_3   0.457273 0.355709 0.027466 0.138773
C3    C     C_1   0.507289 0.500156 0.750571 -0.145750
C4    C     C_1   0.492711 0.499843 0.249429 -0.145750
C5    C     C_3   0.342931 0.451580 0.974133 -0.240911
C6    C     C_3   0.657069 0.548420 0.025867 -0.240911
C7    C     C_3   0.505616 0.500075 0.916703 0.056680
C8    C     C_3   0.494384 0.499925 0.083297 0.056680
C9    C     C_1   0.508376 0.500181 0.825794 0.022603
C10   C     C_1   0.491624 0.499819 0.174206 0.022603
C11   C     C_3   0.592916 0.808239 0.940011 -0.792438
C12   C     C_R   0.454220 0.205268 0.502191 0.962599
C13   C     C_3   0.407084 0.191761 0.059989 -0.792438
C14   C     C_R   0.502393 0.500209 0.661914 0.899267
C15   C     C_R   0.497607 0.499791 0.338086 0.899267
C16   C     C_2   0.569883 0.958222 0.496555 -0.365091
C17   C     C_2   0.430117 0.041778 0.503445 -0.365091
C18   C     C_3   0.381270 0.597109 0.031131 0.186161
C19   C     C_3   0.618730 0.402891 0.968869 0.186161
C20   C     C_3   0.542727 0.644291 0.972534 0.138773
H1    H     H_    0.784804 0.588575 0.048541 0.201771
H2    H     H_    0.385693 0.111467 0.005162 0.263077
H3    H     H_    0.512062 0.150108 0.096556 0.247875
H4    H     H_    0.286298 0.192936 0.102025 0.256186
H5    H     H_    0.215196 0.411425 0.951459 0.201771
H6    H     H_    0.701884 0.009286 0.489982 0.183324
H7    H     H_    0.298116 0.990714 0.510018 0.183325
H8    H     H_    0.013370 0.382082 0.436421 0.196937
H9    H     H_    0.986630 0.617918 0.563579 0.196937
H10   H     H_    0.614307 0.888533 0.994838 0.263077
H11   H     H_    0.713702 0.807064 0.897975 0.256186
H12   H     H_    0.487938 0.849892 0.903444 0.247875
I1    I     I_    0.190972 0.749360 0.081674 -0.403103
I2    I     I_    0.809028 0.250640 0.918326 -0.403104
N1    N     N_2   0.950320 0.457950 0.477300 -0.167760
N2    N     N_2   0.049680 0.542050 0.522700 -0.167760
O1    O     O_R   0.389250 0.738570 0.505570 -0.613011
O2    O     O_R   0.610750 0.261430 0.494430 -0.613011
O3    O     O_R   0.678390 0.711630 0.491020 -0.629258
O4    O     O_R   0.321610 0.288370 0.508980 -0.629258
O5    O     O_R   0.355460 0.513480 0.630490 -0.607383
O6    O     O_R   0.644540 0.486520 0.369510 -0.607382
O7    O     O_R   0.644600 0.486540 0.615950 -0.616817
O8    O     O_R   0.355400 0.513460 0.384050 -0.616817
Zn1   Zn    Zn3+2 0.306940 0.517990 0.509710 0.966267
Zn2   Zn    Zn3+2 0.693060 0.482010 0.490290 0.966267

loop_
_geom_bond_atom_site_label_1
_geom_bond_atom_site_label_2
_ccdc_geom_bond_type
C12   C17   S    
C12   O4    A    
C6    C8    S    
C3    C9    T    
C6    C20   S    
C15   O6    A    
C18   C20   S    
N1    N2    D    
C1    O1    A    
C4    C15   S    
C11   H12   S    
C11   H11   S    
N2    Zn1   S    
C1    C16   S    
C16   H6    S    
C6    C19   S    
N1    Zn2   S    
H9    N2    S    
C13   H3    S    
C3    C14   S    
C14   O5    A    
C5    H5    S    
O7    Zn2   S    
C13   H2    S    
C7    C19   S    
O3    Zn2   S    
C12   O2    A    
O4    Zn1   S    
C13   H4    S    
C18   I1    S    
C2    C8    S    
C11   C20   S    
O2    Zn2   S    
C2    C5    S    
C1    O3    A    
O1    Zn1   S    
C17   H7    S    
C7    C9    S    
O8    Zn1   S    
H8    N1    S    
C8    C10   S    
C7    C20   S    
O6    Zn2   S    
C5    C7    S    
C2    C13   S    
C15   O8    A    
C16   C17   D    
O5    Zn1   S    
C5    C18   S    
C2    C19   S    
C6    H1    S    
C4    C10   T    
C8    C18   S    
C11   H10   S    
C14   O7    A    
C19   I2    S    
