data_mof_unit_62024.cif
_audit_creation_date              2012-12-10T17:13:03-0500
_audit_creation_method            fapswitch 2.2
_symmetry_space_group_name_H-M    P1
_symmetry_Int_Tables_number       1
_space_group_crystal_system       triclinic
_cell_length_a                    30.568999
_cell_length_b                    30.628976
_cell_length_c                    24.867657
_cell_angle_alpha                 89.99998
_cell_angle_beta                  128.886267
_cell_angle_gamma                 90.0
_cell_volume                      18123.7408108

loop_
_atom_site_label
_atom_site_type_symbol
_atom_type_description
_atom_site_fract_x
_atom_site_fract_y
_atom_site_fract_z
_atom_type_partial_charge
C1    C     C_R   0.691669 0.189982 0.503313 0.877192
C2    C     C_R   0.533460 0.250268 0.069680 0.306673
C3    C     C_R   0.739981 0.919331 0.683407 0.194031
C4    C     C_R   0.814717 0.429155 0.375037 -0.226890
C5    C     C_R   0.088349 0.360055 0.583098 -0.205826
C6    C     C_R   0.411646 0.860056 0.416898 -0.205826
C7    C     C_R   0.685283 0.929156 0.624962 -0.226898
C8    C     C_R   0.843778 0.402693 0.435425 0.078526
C9    C     C_R   0.108247 0.367573 0.545613 0.066836
C10   C     C_R   0.391751 0.867574 0.454385 0.066838
C11   C     C_R   0.656223 0.902694 0.564574 0.078524
C12   C     C_R   0.814087 0.367699 0.435876 0.102164
C13   C     C_R   0.966540 0.750268 0.930320 0.306673
C14   C     C_R   0.145618 0.337383 0.551125 0.097161
C15   C     C_R   0.354379 0.837384 0.448873 0.097161
C16   C     C_R   0.685913 0.867700 0.564123 0.102165
C17   C     C_R   0.840674 0.342610 0.496281 -0.081295
C18   C     C_R   0.160512 0.342779 0.507900 -0.099961
C19   C     C_R   0.339488 0.842779 0.492100 -0.099959
C20   C     C_R   0.659326 0.842610 0.503719 -0.081296
C21   C     C_R   0.895776 0.349932 0.554442 -0.194706
C22   C     C_R   0.142185 0.378723 0.464154 -0.196307
C23   C     C_R   0.357817 0.878722 0.535849 -0.196310
C24   C     C_R   0.034416 0.750406 0.070071 0.306161
C25   C     C_R   0.604223 0.849931 0.445559 -0.194708
C26   C     C_R   0.925753 0.383102 0.554207 -0.175005
C27   C     C_R   0.107971 0.409339 0.461386 -0.204422
C28   C     C_R   0.392032 0.909338 0.538617 -0.204420
C29   C     C_R   0.574247 0.883101 0.445794 -0.175006
C30   C     C_R   0.900942 0.409506 0.495748 -0.115834
C31   C     C_R   0.091246 0.404087 0.501773 -0.090795
C32   C     C_R   0.408754 0.904087 0.498227 -0.090799
C33   C     C_R   0.599058 0.909506 0.504252 -0.115833
C34   C     C_R   0.059128 0.438762 0.500392 0.860792
C35   C     C_R   0.747494 0.114655 0.596175 -0.168595
C36   C     C_R   0.937379 0.441529 0.498916 0.854002
C37   C     C_R   0.562621 0.941529 0.501084 0.854001
C38   C     C_R   0.440872 0.938761 0.499608 0.860791
C39   C     C_R   0.817453 0.249769 0.634644 0.841152
C40   C     C_R   0.182580 0.249736 0.365352 0.848039
C41   C     C_R   0.317419 0.749736 0.634648 0.848037
C42   C     C_R   0.682547 0.749769 0.365356 0.841152
C43   C     C_R   0.561109 0.059261 0.500330 0.863626
C44   C     C_R   0.438360 0.058788 0.499551 0.866864
C45   C     C_R   0.061640 0.558788 0.500449 0.866867
C46   C     C_R   0.251924 0.119044 0.396168 -0.168602
C47   C     C_R   0.938891 0.559261 0.499670 0.863628
C48   C     C_R   0.627380 0.209189 0.253155 0.153195
C49   C     C_R   0.376014 0.209490 0.746475 0.147946
C50   C     C_R   0.123985 0.709490 0.253525 0.147944
C51   C     C_R   0.872620 0.709189 0.746844 0.153194
C52   C     C_R   0.591615 0.210135 0.181302 -0.173175
C53   C     C_R   0.411671 0.210307 0.818327 -0.172688
C54   C     C_R   0.088327 0.710307 0.181673 -0.172688
C55   C     C_R   0.908384 0.710135 0.818698 -0.173175
C56   C     C_R   0.570525 0.249881 0.145482 0.042921
C57   C     C_R   0.248075 0.619048 0.603837 -0.168607
C58   C     C_R   0.428532 0.250153 0.854128 0.041086
C59   C     C_R   0.071468 0.750153 0.145872 0.041086
C60   C     C_R   0.929475 0.749881 0.854518 0.042921
C61   C     C_R   0.584944 0.288937 0.182616 -0.143313
C62   C     C_R   0.409797 0.289476 0.816953 -0.144400
C63   C     C_R   0.090204 0.789477 0.183047 -0.144399
C64   C     C_R   0.915056 0.788937 0.817384 -0.143314
C65   C     C_R   0.620505 0.288251 0.254414 -0.233924
C66   C     C_R   0.374266 0.288898 0.745139 -0.227421
C67   C     C_R   0.125735 0.788898 0.254861 -0.227422
C68   C     C_R   0.752506 0.614661 0.403816 -0.168600
C69   C     C_R   0.879495 0.788251 0.745586 -0.233921
C70   C     C_R   0.772355 0.075380 0.630784 -0.120636
C71   C     C_R   0.225713 0.082121 0.354844 -0.127702
C72   C     C_R   0.274286 0.582127 0.645163 -0.127702
C73   C     C_R   0.308493 0.189979 0.497057 0.879582
C74   C     C_R   0.727642 0.575390 0.369199 -0.120645
C75   C     C_R   0.738917 0.040013 0.619270 -0.106519
C76   C     C_R   0.257735 0.046550 0.363181 -0.129970
C77   C     C_R   0.242265 0.546555 0.636826 -0.129975
C78   C     C_R   0.761079 0.540022 0.380708 -0.106525
C79   C     C_R   0.680653 0.044507 0.575806 -0.163545
C80   C     C_R   0.316198 0.048354 0.411158 -0.170887
C81   C     C_R   0.183802 0.548357 0.588847 -0.170889
C82   C     C_R   0.819343 0.544513 0.424178 -0.163551
C83   C     C_R   0.654834 0.084509 0.542404 0.100911
C84   C     C_R   0.191507 0.689979 0.502942 0.879580
C85   C     C_R   0.343703 0.086189 0.451814 0.100199
C86   C     C_R   0.156297 0.586190 0.548188 0.100206
C87   C     C_R   0.845164 0.584511 0.457589 0.100913
C88   C     C_R   0.688245 0.118973 0.548868 0.098648
C89   C     C_R   0.311140 0.120890 0.446933 0.099020
C90   C     C_R   0.188859 0.620892 0.553070 0.099022
C91   C     C_R   0.811754 0.618976 0.451127 0.098653
C92   C     C_R   0.661082 0.156730 0.507944 -0.107544
C93   C     C_R   0.339035 0.156646 0.492632 -0.105218
C94   C     C_R   0.160965 0.656647 0.507367 -0.105216
C95   C     C_R   0.808331 0.689982 0.496688 0.877192
C96   C     C_R   0.838918 0.656730 0.492057 -0.107539
C97   C     C_R   0.602860 0.161617 0.466300 -0.185000
C98   C     C_R   0.397475 0.159367 0.538811 -0.182567
C99   C     C_R   0.102526 0.659365 0.461185 -0.182570
C100  C     C_R   0.897141 0.661615 0.533706 -0.185005
C101  C     C_R   0.681737 0.249298 0.365477 0.877515
C102  C     C_R   0.317968 0.249554 0.634440 0.880176
C103  C     C_R   0.182032 0.749554 0.365560 0.880174
C104  C     C_R   0.818262 0.749298 0.634523 0.877513
C105  C     C_R   0.570642 0.128932 0.463494 -0.198283
C106  C     C_R   0.642755 0.248660 0.290152 -0.077515
C107  C     C_R   0.429252 0.126429 0.541342 -0.194447
C108  C     C_R   0.070748 0.626427 0.458654 -0.194447
C109  C     C_R   0.929357 0.628929 0.536512 -0.198276
C110  C     C_R   0.596242 0.090792 0.501369 -0.099447
C111  C     C_R   0.402915 0.090264 0.498132 -0.109846
C112  C     C_R   0.097085 0.590264 0.501868 -0.109853
C113  C     C_R   0.903757 0.590792 0.498630 -0.099455
C114  C     C_R   0.909857 0.232316 0.746864 -0.185732
C115  C     C_R   0.090523 0.231683 0.253044 -0.188651
C116  C     C_R   0.409477 0.731684 0.746956 -0.188650
C117  C     C_R   0.356632 0.249089 0.709589 -0.079461
C118  C     C_R   0.590143 0.732315 0.253136 -0.185733
C119  C     C_R   0.945879 0.231619 0.818713 -0.148449
C120  C     C_R   0.054601 0.230939 0.181200 -0.154316
C121  C     C_R   0.445399 0.730940 0.818800 -0.154317
C122  C     C_R   0.554121 0.731619 0.181287 -0.148451
C123  C     C_R   0.927334 0.246763 0.854586 0.081501
C124  C     C_R   0.073030 0.246526 0.145404 0.083128
C125  C     C_R   0.426970 0.746526 0.854596 0.083128
C126  C     C_R   0.572666 0.746762 0.145414 0.081501
C127  C     C_R   0.872468 0.262912 0.817744 -0.150715
C128  C     C_R   0.143368 0.749089 0.290411 -0.079459
C129  C     C_R   0.127707 0.263099 0.182322 -0.152338
C130  C     C_R   0.372293 0.763098 0.817678 -0.152339
C131  C     C_R   0.627532 0.762913 0.182256 -0.150715
C132  C     C_R   0.836778 0.264311 0.745934 -0.182536
C133  C     C_R   0.163292 0.264535 0.254127 -0.186748
C134  C     C_R   0.336707 0.764535 0.745873 -0.186747
C135  C     C_R   0.663221 0.764312 0.254066 -0.182535
C136  C     C_R   0.855214 0.248880 0.710105 -0.035441
C137  C     C_R   0.144945 0.248733 0.289884 -0.036872
C138  C     C_R   0.355055 0.748733 0.710116 -0.036872
C139  C     C_R   0.857244 0.748660 0.709848 -0.077515
C140  C     C_R   0.644786 0.748879 0.289894 -0.035442
C141  C     C_R   0.035183 0.245918 0.069819 0.285584
C142  C     C_R   0.965204 0.246059 0.930169 0.287401
C143  C     C_R   0.534796 0.746058 0.069831 0.287401
C144  C     C_R   0.464817 0.745918 0.930181 0.285585
C145  C     C_R   0.758699 0.358180 0.375970 -0.209759
C146  C     C_R   0.167348 0.303179 0.600045 -0.216719
C147  C     C_R   0.332647 0.803181 0.399951 -0.216721
C148  C     C_R   0.741302 0.858182 0.624029 -0.209759
C149  C     C_R   0.810507 0.309843 0.501126 0.866121
C150  C     C_R   0.465584 0.250406 0.929929 0.306161
C151  C     C_R   0.191635 0.309985 0.503396 0.864247
C152  C     C_R   0.308365 0.809985 0.496604 0.864244
C153  C     C_R   0.689493 0.809843 0.498874 0.866122
C154  C     C_R   0.732252 0.383667 0.316913 -0.154124
C155  C     C_R   0.148705 0.297177 0.638296 -0.150656
C156  C     C_R   0.351287 0.797181 0.361697 -0.150656
C157  C     C_R   0.767750 0.883669 0.683085 -0.154128
C158  C     C_R   0.760021 0.419328 0.316591 0.194030
C159  C     C_R   0.108427 0.325041 0.628853 0.215807
C160  C     C_R   0.391566 0.825044 0.371140 0.215806
H1    H     H_    0.525580 0.133475 0.431992 0.159335
H2    H     H_    0.205292 0.277588 0.281657 0.159013
H3    H     H_    0.294707 0.777586 0.718343 0.159012
H4    H     H_    0.705380 0.777008 0.281548 0.159412
H5    H     H_    0.915450 0.330076 0.600448 0.161998
H6    H     H_    0.153678 0.382729 0.431122 0.166534
H7    H     H_    0.346327 0.882727 0.568882 0.166533
H8    H     H_    0.584549 0.830074 0.399553 0.161997
H9    H     H_    0.832140 0.458031 0.370790 0.184431
H10   H     H_    0.056661 0.380642 0.576723 0.168612
H11   H     H_    0.443335 0.880643 0.423272 0.168614
H12   H     H_    0.474659 0.129399 0.576649 0.164175
H13   H     H_    0.667860 0.958032 0.629209 0.184437
H14   H     H_    0.568939 0.320044 0.156357 0.161100
H15   H     H_    0.422354 0.320684 0.843197 0.159929
H16   H     H_    0.077648 0.820684 0.156802 0.159929
H17   H     H_    0.931061 0.820044 0.843643 0.161100
H18   H     H_    0.631329 0.318793 0.282122 0.154222
H19   H     H_    0.359708 0.319558 0.717202 0.157406
H20   H     H_    0.140294 0.819558 0.282798 0.157405
H21   H     H_    0.868671 0.818793 0.717878 0.154221
H22   H     H_    0.582152 0.190569 0.434945 0.166624
H23   H     H_    0.025342 0.629395 0.423345 0.164181
H24   H     H_    0.418582 0.186812 0.573825 0.165096
H25   H     H_    0.081419 0.686808 0.426169 0.165096
H26   H     H_    0.917849 0.690565 0.565064 0.166621
H27   H     H_    0.817668 0.072242 0.666008 0.148438
H28   H     H_    0.180369 0.080986 0.316600 0.143445
H29   H     H_    0.319629 0.580993 0.683408 0.143447
H30   H     H_    0.682330 0.572254 0.333970 0.148440
H31   H     H_    0.758193 0.009150 0.644428 0.163731
H32   H     H_    0.237237 0.017561 0.332017 0.143854
H33   H     H_    0.262763 0.517567 0.667992 0.143856
H34   H     H_    0.974420 0.633471 0.568017 0.159340
H35   H     H_    0.741802 0.509162 0.355543 0.163740
H36   H     H_    0.655844 0.016374 0.567188 0.128156
H37   H     H_    0.339240 0.019670 0.416491 0.154233
H38   H     H_    0.160761 0.519672 0.583515 0.154235
H39   H     H_    0.844150 0.516379 0.432793 0.128166
H40   H     H_    0.924920 0.220348 0.720116 0.162997
H41   H     H_    0.075536 0.219383 0.279716 0.160620
H42   H     H_    0.424465 0.719384 0.720284 0.160620
H43   H     H_    0.575081 0.720346 0.279884 0.162996
H44   H     H_    0.857389 0.274983 0.844418 0.153625
H45   H     H_    0.987989 0.218839 0.846135 0.155261
H46   H     H_    0.142698 0.275503 0.155709 0.153410
H47   H     H_    0.357302 0.775501 0.844291 0.153410
H48   H     H_    0.642611 0.774984 0.155582 0.153626
H49   H     H_    0.735578 0.330710 0.374008 0.143307
H50   H     H_    0.199314 0.281136 0.610009 0.166850
H51   H     H_    0.300681 0.781138 0.389987 0.166847
H52   H     H_    0.764423 0.830712 0.625991 0.143308
H53   H     H_    0.689966 0.375801 0.271485 0.159497
H54   H     H_    0.165311 0.270559 0.674930 0.169532
H55   H     H_    0.334678 0.770563 0.325061 0.169532
H56   H     H_    0.012647 0.217811 0.153719 0.153449
H57   H     H_    0.810037 0.875805 0.728513 0.159497
H58   H     H_    0.580187 0.179540 0.153621 0.175323
H59   H     H_    0.426294 0.179591 0.845990 0.175620
H60   H     H_    0.073704 0.679591 0.154010 0.175620
H61   H     H_    0.919813 0.679540 0.846379 0.175323
H62   H     H_    0.969028 0.387640 0.599974 0.192086
H63   H     H_    0.094894 0.437522 0.428061 0.163951
H64   H     H_    0.405109 0.937520 0.571943 0.163953
H65   H     H_    0.530971 0.887638 0.400027 0.192085
H66   H     H_    0.775190 0.141427 0.607610 0.153467
H67   H     H_    0.487354 0.717813 0.846281 0.153448
H68   H     H_    0.225351 0.146095 0.387187 0.148990
H69   H     H_    0.274647 0.646100 0.612816 0.148987
H70   H     H_    0.724811 0.641433 0.392384 0.153464
H71   H     H_    0.512012 0.718838 0.153865 0.155261
H72   H     H_    0.794619 0.277006 0.718452 0.159411
I1    I     I_    0.652120 0.146553 0.300682 -0.322335
I2    I     I_    0.357006 0.147377 0.698181 -0.333855
I3    I     I_    0.142991 0.647377 0.301819 -0.333857
I4    I     I_    0.847880 0.646553 0.699318 -0.322337
I5    I     I_    0.719400 0.458353 0.227038 -0.386223
I6    I     I_    0.078194 0.314661 0.684253 -0.399094
I7    I     I_    0.421795 0.814666 0.315735 -0.399090
I8    I     I_    0.780602 0.958358 0.772958 -0.386213
N1    N     N_R   0.514144 0.288421 0.034094 -0.169653
N2    N     N_R   0.056098 0.246208 0.035227 -0.170095
N3    N     N_R   0.443902 0.746206 0.964773 -0.170095
N4    N     N_R   0.555709 0.745804 0.035238 -0.169400
N5    N     N_R   0.978685 0.245576 0.033396 -0.168735
N6    N     N_R   0.021704 0.246114 0.966589 -0.167651
N7    N     N_R   0.478296 0.746113 0.033411 -0.167652
N8    N     N_R   0.521314 0.745577 0.966604 -0.168736
N9    N     N_R   0.480801 0.288488 0.965458 -0.171077
N10   N     N_R   0.019200 0.788488 0.034542 -0.171077
N11   N     N_R   0.985857 0.788421 0.965906 -0.169653
N12   N     N_R   0.484922 0.212328 0.965577 -0.166656
N13   N     N_R   0.518227 0.212263 0.034089 -0.166767
N14   N     N_R   0.981772 0.712263 0.965912 -0.166767
N15   N     N_R   0.015077 0.712328 0.034423 -0.166656
N16   N     N_R   0.944291 0.245803 0.964761 -0.169400
O1    O     O_R   0.678340 0.230070 0.500020 -0.623338
O2    O     O_R   0.482930 0.045810 0.557520 -0.611720
O3    O     O_R   0.017070 0.545810 0.442480 -0.611720
O4    O     O_R   0.982930 0.545810 0.557520 -0.610562
O5    O     O_R   0.574570 0.045820 0.557490 -0.622284
O6    O     O_R   0.425430 0.045820 0.442510 -0.624300
O7    O     O_R   0.074570 0.545820 0.557490 -0.624301
O8    O     O_R   0.925430 0.545820 0.442510 -0.622288
O9    O     O_R   0.730080 0.178340 0.500000 -0.607606
O10   O     O_R   0.269920 0.178340 0.500000 -0.604067
O11   O     O_R   0.230080 0.678340 0.500000 -0.604065
O12   O     O_R   0.321660 0.230070 0.499980 -0.622430
O13   O     O_R   0.769920 0.678340 0.500000 -0.607605
O14   O     O_R   0.673200 0.275870 0.398140 -0.626404
O15   O     O_R   0.326800 0.275870 0.601860 -0.619558
O16   O     O_R   0.173200 0.775870 0.398140 -0.619558
O17   O     O_R   0.826800 0.775870 0.601860 -0.626405
O18   O     O_R   0.724950 0.224150 0.398130 -0.582496
O19   O     O_R   0.275050 0.224150 0.601870 -0.597070
O20   O     O_R   0.224950 0.724150 0.398130 -0.597070
O21   O     O_R   0.775050 0.724150 0.601870 -0.582496
O22   O     O_R   0.769940 0.321680 0.500000 -0.617866
O23   O     O_R   0.178340 0.730070 0.500020 -0.622429
O24   O     O_R   0.230060 0.321680 0.500000 -0.619743
O25   O     O_R   0.269940 0.821680 0.500000 -0.619741
O26   O     O_R   0.730060 0.821680 0.500000 -0.617867
O27   O     O_R   0.821690 0.269960 0.499980 -0.609003
O28   O     O_R   0.178310 0.269960 0.500020 -0.619389
O29   O     O_R   0.321690 0.769960 0.499980 -0.619387
O30   O     O_R   0.678310 0.769960 0.500020 -0.609004
O31   O     O_R   0.775070 0.275880 0.601870 -0.618967
O32   O     O_R   0.224930 0.275880 0.398130 -0.619961
O33   O     O_R   0.275070 0.775880 0.601870 -0.619960
O34   O     O_R   0.821660 0.730070 0.499980 -0.623337
O35   O     O_R   0.724930 0.775880 0.398130 -0.618966
O36   O     O_R   0.826820 0.224150 0.601850 -0.633755
O37   O     O_R   0.173180 0.224150 0.398150 -0.630105
O38   O     O_R   0.326820 0.724150 0.601850 -0.630104
O39   O     O_R   0.673180 0.724150 0.398150 -0.633756
O40   O     O_R   0.017100 0.454190 0.442490 -0.608540
O41   O     O_R   0.982900 0.454190 0.557510 -0.620583
O42   O     O_R   0.517100 0.954190 0.442490 -0.620582
O43   O     O_R   0.482900 0.954190 0.557510 -0.608541
O44   O     O_R   0.074600 0.454200 0.557500 -0.631331
O45   O     O_R   0.925400 0.454200 0.442500 -0.632365
O46   O     O_R   0.574600 0.954200 0.557500 -0.632363
O47   O     O_R   0.425400 0.954200 0.442500 -0.631332
O48   O     O_R   0.517070 0.045810 0.442480 -0.610561
Zn1   Zn    Zn3+2 0.715460 0.284550 0.500010 0.973003
Zn2   Zn    Zn3+2 0.038380 0.500000 0.576800 0.979754
Zn3   Zn    Zn3+2 0.461620 0.000000 0.423200 0.979757
Zn4   Zn    Zn3+2 0.538380 0.000000 0.576800 0.990368
Zn5   Zn    Zn3+2 0.284540 0.284550 0.499990 0.969934
Zn6   Zn    Zn3+2 0.215460 0.784550 0.500010 0.969935
Zn7   Zn    Zn3+2 0.784540 0.784550 0.499990 0.973002
Zn8   Zn    Zn3+2 0.784560 0.215470 0.499990 1.006749
Zn9   Zn    Zn3+2 0.215440 0.215470 0.500010 0.994050
Zn10  Zn    Zn3+2 0.284560 0.715470 0.499990 0.994051
Zn11  Zn    Zn3+2 0.715440 0.715470 0.500010 1.006750
Zn12  Zn    Zn3+2 0.961620 0.500000 0.423200 0.990367

loop_
_geom_bond_atom_site_label_1
_geom_bond_atom_site_label_2
_ccdc_geom_bond_type
C69   C139  A    
C105  C110  A    
C133  C137  A    
C87   C91   A    
C65   C106  A    
C155  C159  A    
C73   C93   S    
C21   C26   A    
C13   C60   S    
O19   Zn9   S    
C103  O20   A    
C154  C158  A    
C148  H52   S    
O14   Zn1   S    
C65   H18   S    
C125  C144  S    
C82   C87   A    
C84   O23   A    
C29   C33   A    
C126  C143  S    
C95   O34   A    
C77   H33   S    
C91   C96   A    
C74   H30   S    
O48   Zn3   S    
C142  N6    A    
O5    Zn4   S    
C95   O13   A    
C119  H45   S    
C43   C110  S    
O6    Zn3   S    
C81   C86   A    
C97   C105  A    
O3    Zn12  S    
C83   C88   A    
C100  C109  A    
C130  C134  A    
C154  H53   S    
C118  C140  A    
C39   C136  S    
C25   C29   A    
C57   C90   A    
C27   C31   A    
C28   C32   A    
N1    N9    A    
O25   Zn6   S    
C86   C90   A    
C81   H38   S    
O27   Zn8   S    
C39   O31   A    
O24   Zn5   S    
C42   C140  S    
C40   O32   A    
C17   C21   A    
C84   O11   A    
C19   C23   A    
O36   Zn8   S    
C78   C82   A    
C156  C160  A    
C47   O4    A    
C16   C20   A    
N2    N6    A    
C41   C138  S    
C34   O40   A    
C22   C27   A    
C99   H25   S    
O23   Zn6   S    
C66   H19   S    
C59   C63   A    
C6    C160  A    
C53   C58   A    
C150  N12   A    
C119  C123  A    
C43   O48   A    
C27   H63   S    
C141  N2    A    
C121  H67   S    
C30   C36   S    
C60   C64   A    
O8    Zn12  S    
C64   H17   S    
C52   C56   A    
C49   C53   A    
C80   H37   S    
C115  H41   S    
C51   C55   A    
C87   C113  A    
C73   O10   A    
C44   O2    A    
C22   H6    S    
C61   C65   A    
C48   C52   A    
C34   O44   A    
C114  C136  A    
C75   C79   A    
C58   C150  S    
C69   H21   S    
N12   N13   A    
C15   C147  A    
O45   Zn12  S    
C129  H46   S    
O46   Zn4   S    
C41   O33   A    
C100  H26   S    
O26   Zn7   S    
C36   O45   A    
C46   C89   A    
O28   Zn9   S    
C5    C9    A    
C99   C108  A    
C23   H7    S    
O21   Zn11  S    
C67   H20   S    
C62   H15   S    
C68   C74   A    
C142  N16   A    
C134  H3    S    
C118  C122  A    
C49   C117  A    
C115  C137  A    
C26   H62   S    
C141  N5    A    
C5    H10   S    
C127  H44   S    
O17   Zn7   S    
C48   I1    S    
C28   H64   S    
O42   Zn3   S    
C114  H40   S    
C68   H70   S    
C92   C97   A    
C145  H49   S    
C54   C59   A    
C25   H8    S    
C13   N11   A    
C31   C34   S    
C20   C153  S    
C62   C66   A    
O35   Zn7   S    
C11   C33   A    
O10   Zn9   S    
C37   O46   A    
C23   C28   A    
C12   C145  A    
C155  H54   S    
C75   H31   S    
C151  O24   A    
C121  C125  A    
C49   I2    S    
C76   H32   S    
C73   O12   A    
C123  C127  A    
C132  C136  A    
C149  O27   A    
C83   C110  A    
C64   C69   A    
C102  C117  S    
O22   Zn1   S    
C145  C154  A    
C26   C30   A    
C102  O19   A    
C105  H1    S    
C101  O18   A    
O32   Zn5   S    
C101  C106  S    
C42   O35   A    
C153  O26   A    
C18   C22   A    
C107  C111  A    
C61   H14   S    
C76   C80   A    
C104  O21   A    
C47   O8    A    
C24   N10   A    
C82   H39   S    
C2    C56   S    
C67   C128  A    
C24   C59   S    
C13   N14   A    
C96   C100  A    
C159  I6    S    
C148  C157  A    
C98   H24   S    
C124  C141  S    
O34   Zn7   S    
O29   Zn10  S    
C70   C75   A    
C3    C157  A    
O1    Zn1   S    
O37   Zn9   S    
C51   C139  A    
C53   H59   S    
O40   Zn12  S    
C160  I7    S    
O41   Zn2   S    
C133  H2    S    
C63   H16   S    
C15   C19   A    
C38   O47   A    
C50   C54   A    
C3    C7    A    
C44   O6    A    
C71   C76   A    
C45   O7    A    
C20   C25   A    
C21   H5    S    
C48   C106  A    
C146  C155  A    
C118  H43   S    
C66   C117  A    
C12   C17   A    
C8    C12   A    
O12   Zn5   S    
C55   C60   A    
C147  H51   S    
C90   C94   A    
C1    O1    A    
C107  H12   S    
C135  C140  A    
C102  O15   A    
C43   O5    A    
C85   C89   A    
C152  O29   A    
N10   N11   A    
C33   C37   S    
C98   C107  A    
C108  C112  A    
C51   I4    S    
C9    C14   A    
C80   C85   A    
C122  H71   S    
C57   H69   S    
C11   C16   A    
C77   C81   A    
C40   C137  S    
C156  H55   S    
C157  H57   S    
C84   C94   S    
C147  C156  A    
C46   C71   A    
O2    Zn4   S    
C1    C92   S    
N3    N7    A    
C50   C128  A    
O20   Zn10  S    
C18   C151  S    
C2    N13   A    
O44   Zn2   S    
C37   O42   A    
C47   C113  S    
C14   C146  A    
C108  H23   S    
C39   O36   A    
O7    Zn2   S    
C85   C111  A    
C6    C10   A    
O13   Zn11  S    
C52   H58   S    
C104  C139  S    
C8    C30   A    
C79   C83   A    
C123  C142  S    
C143  N7    A    
C124  C129  A    
C57   C72   A    
O16   Zn6   S    
C158  I5    S    
C44   C111  S    
N4    N8    A    
C42   O39   A    
C74   C78   A    
C153  O30   A    
C46   H68   S    
C56   C61   A    
C151  O28   A    
C104  O17   A    
C58   C62   A    
C35   H66   S    
C135  H4    S    
C14   C18   A    
C95   C96   S    
C29   H65   S    
C71   H28   S    
C4    C8    A    
C45   C112  S    
C7    C11   A    
N14   N15   A    
O15   Zn5   S    
C131  C135  A    
C10   C15   A    
O43   Zn4   S    
C144  N3    A    
C68   C91   A    
C127  C132  A    
C130  H47   S    
O38   Zn10  S    
C125  C130  A    
C4    C158  A    
C88   C92   A    
C35   C70   A    
C5    C159  A    
C32   C38   S    
O11   Zn10  S    
C109  C113  A    
C55   H61   S    
C41   O38   A    
C38   O43   A    
O30   Zn11  S    
C89   C93   A    
C40   O37   A    
O31   Zn1   S    
C131  H48   S    
C132  H72   S    
C146  H50   S    
C45   O3    A    
C116  C138  A    
C6    H11   S    
N5    N16   A    
C63   C67   A    
C4    H9    S    
O47   Zn3   S    
C79   H36   S    
O4    Zn2   S    
C122  C126  A    
C24   N15   A    
C86   C112  A    
C72   C77   A    
C35   C88   A    
O39   Zn11  S    
C19   C152  S    
C109  H34   S    
O9    Zn8   S    
C149  O22   A    
C103  C128  S    
C70   H27   S    
C144  N8    A    
C129  C133  A    
C72   H29   S    
C152  O25   A    
C150  N9    A    
C97   H22   S    
O33   Zn6   S    
C17   C149  S    
C114  C119  A    
C134  C138  A    
C116  H42   S    
C54   H60   S    
O18   Zn8   S    
C120  H56   S    
C101  O14   A    
C3    I8    S    
C16   C148  A    
C103  O16   A    
C126  C131  A    
C36   O41   A    
C94   C99   A    
C7    H13   S    
C78   H35   S    
C50   I3    S    
C2    N1    A    
C9    C31   A    
C10   C32   A    
C1    O9    A    
C115  C120  A    
C143  N4    A    
C116  C121  A    
C93   C98   A    
C120  C124  A    
