data_mof_unit_33655.cif
_audit_creation_date              2012-12-10T18:42:39-0500
_audit_creation_method            fapswitch 2.2
_symmetry_space_group_name_H-M    P1
_symmetry_Int_Tables_number       1
_space_group_crystal_system       triclinic
_cell_length_a                    10.856528
_cell_length_b                    15.123044
_cell_length_c                    13.856673
_cell_angle_alpha                 90.599527
_cell_angle_beta                  90.551809
_cell_angle_gamma                 90.184541
_cell_volume                      2274.79794451

loop_
_atom_site_label
_atom_site_type_symbol
_atom_type_description
_atom_site_fract_x
_atom_site_fract_y
_atom_site_fract_z
_atom_type_partial_charge
C1    C     C_R   0.496233 0.329645 0.499427 0.870597
C2    C     C_R   0.497257 0.670199 0.500633 0.887509
C3    C     C_R   0.872149 0.498255 0.502363 -0.071382
C4    C     C_R   0.128688 0.506309 0.498665 -0.053545
C5    C     C_R   0.941354 0.473322 0.584953 0.016188
C6    C     C_R   0.060169 0.534508 0.417507 0.028563
C7    C     C_R   0.589600 0.098946 0.565176 0.503030
C8    C     C_R   0.578256 0.901482 0.429274 0.497574
C9    C     C_R   0.577445 0.190778 0.564424 -0.313259
C10   C     C_R   0.567562 0.809592 0.430302 -0.327377
C11   C     C_R   0.497892 0.232537 0.498869 -0.226783
C12   C     C_R   0.499534 0.767004 0.501956 -0.236970
C13   C     C_R   0.424660 0.180366 0.434966 0.370738
C14   C     C_R   0.438563 0.817698 0.573437 0.426753
C15   C     C_R   0.436750 0.088691 0.436289 -0.177361
C16   C     C_R   0.450262 0.909515 0.572356 -0.201552
C17   C     C_R   0.518290 0.047953 0.500089 -0.044422
C18   C     C_R   0.519088 0.951377 0.501364 -0.044616
C19   C     C_R   0.572850 0.560817 0.109922 -0.268014
C20   C     C_R   0.401307 0.463092 0.890407 -0.263039
C21   C     C_R   0.573801 0.557681 0.211189 0.082726
C22   C     C_R   0.405276 0.461432 0.789175 0.102557
C23   C     C_R   0.262362 0.503316 0.499432 0.849214
C24   C     C_R   0.738008 0.498300 0.500764 0.783651
C25   C     C_R   0.422810 0.445333 0.208312 0.153889
C26   C     C_R   0.592573 0.540912 0.791577 0.162384
C27   C     C_R   0.422106 0.443830 0.107033 -0.264421
C28   C     C_R   0.594005 0.542006 0.892935 -0.248345
C29   C     C_R   0.497523 0.502435 0.054894 0.106606
C30   C     C_R   0.497485 0.502671 0.945239 0.124057
C31   C     C_R   0.248061 0.684997 0.258141 -0.093680
C32   C     C_R   0.772681 0.331203 0.765312 -0.082681
C33   C     C_R   0.190300 0.650397 0.339281 -0.093717
C34   C     C_R   0.817129 0.363283 0.677807 -0.075249
C35   C     C_R   0.117831 0.573389 0.330971 0.109467
C36   C     C_R   0.887489 0.441271 0.676276 0.112204
C37   C     C_R   0.101266 0.533148 0.239903 -0.133237
C38   C     C_R   0.915884 0.485018 0.763828 -0.176273
C39   C     C_R   0.158435 0.568402 0.158803 -0.152732
C40   C     C_R   0.873147 0.451869 0.851154 -0.165370
C41   C     C_R   0.232351 0.643928 0.168011 -0.084909
C42   C     C_R   0.800961 0.375288 0.851838 -0.101071
C43   C     C_R   0.932516 0.528374 0.419839 -0.204182
C44   C     C_R   0.068704 0.477187 0.581169 -0.237839
Cu1   Cu    Cu3+1 0.500000 0.499990 0.596430 0.988706
Cu2   Cu    Cu3+1 0.500000 0.500010 0.403570 0.993892
H1    H     H_    0.277567 0.670525 0.105326 0.155135
H2    H     H_    0.766858 0.350160 0.919413 0.152078
H3    H     H_    0.380815 0.047989 0.388075 0.218729
H4    H     H_    0.403395 0.949460 0.625890 0.219487
H5    H     H_    0.630193 0.609873 0.076283 0.146918
H6    H     H_    0.321838 0.434098 0.924168 0.131485
H7    H     H_    0.632723 0.602522 0.251961 0.130651
H8    H     H_    0.331357 0.429678 0.748943 0.120934
H9    H     H_    0.362452 0.396376 0.071181 0.154225
H10   H     H_    0.672211 0.572453 0.928818 0.128809
H11   H     H_    0.305294 0.743495 0.265231 0.153655
H12   H     H_    0.717174 0.271780 0.766596 0.172306
H13   H     H_    0.203407 0.682741 0.408730 0.157770
H14   H     H_    0.797819 0.327537 0.611304 0.126282
H15   H     H_    0.146487 0.536635 0.088957 0.137344
H16   H     H_    0.895322 0.485877 0.918244 0.139801
H17   H     H_    0.631357 0.230225 0.614536 0.176719
H18   H     H_    0.613831 0.770691 0.375563 0.201553
N1    N     N_R   0.500000 0.500020 0.258690 -0.192068
N2    N     N_R   0.500000 0.499980 0.741310 -0.178926
O1    O     O_R   0.500010 0.371450 0.581430 -0.603695
O2    O     O_R   0.499990 0.628550 0.418570 -0.612834
O3    O     O_R   0.500010 0.371460 0.418560 -0.524396
O4    O     O_R   0.499990 0.628540 0.581440 -0.515130
O5    O     O_R   0.319640 0.500000 0.581430 -0.596765
O6    O     O_R   0.680360 0.500000 0.418570 -0.592470
O7    O     O_R   0.319640 0.500010 0.418560 -0.561173
O8    O     O_R   0.680360 0.499990 0.581440 -0.600173
H19   H     H_    0.360308 0.403370 0.246865 0.209214
H20   H     H_    0.666603 0.572469 0.753123 0.133564
H21   H     H_    0.045694 0.473854 0.232060 0.151908
H22   H     H_    0.971759 0.544500 0.764378 0.146404
H23   H     H_    0.879913 0.550426 0.357692 0.156772
H24   H     H_    0.121549 0.455100 0.643197 0.154116
S1    S     S_3+6 0.693403 0.049946 0.648115 0.031589
O9    O     O_2   0.760007 0.974423 0.600586 -0.235723
O10   O     O_2   0.786030 0.116918 0.684084 -0.292130
O11   O     O_3   0.612863 0.011610 0.741955 -0.526312
H25   H     H_    0.673870 0.979820 0.782183 0.391602
S2    S     S_3+6 0.665375 0.952059 0.337429 0.039106
O12   O     O_2   0.746966 0.022840 0.380679 -0.233397
O13   O     O_2   0.743619 0.884730 0.286409 -0.272518
O14   O     O_3   0.568137 0.997967 0.257337 -0.525059
H26   H     H_    0.621387 0.032579 0.213945 0.393083
S3    S     S_3+6 0.313599 0.223984 0.354506 0.022361
O15   O     O_2   0.375420 0.241472 0.260118 -0.268085
O16   O     O_2   0.211987 0.157749 0.337138 -0.243547
O17   O     O_3   0.251593 0.317826 0.397582 -0.546389
H27   H     H_    0.212376 0.300891 0.458971 0.332416
S4    S     S_3+6 0.341400 0.770430 0.661450 0.028532
O18   O     O_2   0.419543 0.729156 0.738858 -0.272171
O19   O     O_2   0.261325 0.840192 0.706467 -0.251484
O20   O     O_3   0.250849 0.692649 0.609672 -0.570919
H28   H     H_    0.207693 0.664265 0.663935 0.372536

loop_
_geom_bond_atom_site_label_1
_geom_bond_atom_site_label_2
_ccdc_geom_bond_type
C38   C40   A    
C5    C36   S    
C27   C29   A    
C1    C11   S    
C32   H12   S    
C2    C12   S    
S1    O9    D    
C28   H10   S    
C22   H8    S    
C20   C30   A    
Cu1   Cu2   S    
C3    C43   A    
C35   C37   A    
C16   H4    S    
C2    O2    A    
C27   H9    S    
Cu1   O5    S    
C43   H23   S    
S4    O20   S    
C40   H16   S    
C6    C35   S    
C7    C9    A    
C22   N2    A    
Cu2   O3    S    
C33   C35   A    
C7    C17   A    
S4    O19   D    
Cu1   O1    S    
C26   H20   S    
C31   C33   A    
Cu2   O6    S    
C40   C42   A    
C33   H13   S    
C13   S3    S    
C34   H14   S    
C3    C24   S    
C23   O7    A    
C14   S4    S    
S1    O10   D    
C39   H15   S    
C26   N2    A    
C23   O5    A    
C44   H24   S    
C25   N1    A    
O11   H25   S    
Cu2   N1    S    
C4    C6    A    
S3    O15   D    
C4    C23   S    
S2    O12   D    
C38   H22   S    
C37   H21   S    
C8    C18   A    
Cu1   O8    S    
C25   H19   S    
C32   C34   A    
Cu2   O2    S    
C29   C30   S    
S3    O16   D    
O20   H28   S    
S4    O18   D    
C17   C18   S    
C41   H1    S    
C42   H2    S    
C9    C11   A    
C10   C12   A    
C8    C10   A    
C7    S1    S    
C5    C44   A    
C20   C22   A    
C6    C43   A    
C13   C15   A    
C14   C16   A    
C19   C29   A    
S1    O11   S    
C24   O6    A    
C15   C17   A    
C31   C41   A    
C21   N1    A    
Cu1   O4    S    
C9    H17   S    
C10   H18   S    
C12   C14   A    
C3    C5    A    
S2    O14   S    
C25   C27   A    
C4    C44   A    
C26   C28   A    
C20   H6    S    
C31   H11   S    
C28   C30   A    
C37   C39   A    
S3    O17   S    
C21   H7    S    
C11   C13   A    
C8    S2    S    
C24   O8    A    
C36   C38   A    
C1    O1    A    
C34   C36   A    
S2    O13   D    
C15   H3    S    
O17   H27   S    
C1    O3    A    
C19   H5    S    
C39   C41   A    
C16   C18   A    
Cu1   N2    S    
C32   C42   A    
O14   H26   S    
C2    O4    A    
Cu2   O7    S    
C19   C21   A    
