data_mof_unit_13426.cif
_audit_creation_date              2012-12-11T16:53:47-0500
_audit_creation_method            fapswitch 2.2
_symmetry_space_group_name_H-M    P1
_symmetry_Int_Tables_number       1
_space_group_crystal_system       triclinic
_cell_length_a                    14.836338
_cell_length_b                    14.773476
_cell_length_c                    17.159147
_cell_angle_alpha                 108.813321
_cell_angle_beta                  106.080889
_cell_angle_gamma                 108.16631
_cell_volume                      3070.1793285

loop_
_atom_site_label
_atom_site_type_symbol
_atom_type_description
_atom_site_fract_x
_atom_site_fract_y
_atom_site_fract_z
_atom_type_partial_charge
C1    C     C_R   0.086338 0.284640 0.075037 -0.156589
C2    C     C_R   0.065628 0.476716 0.249341 -0.139920
C3    C     C_R   0.222717 0.798090 0.185006 -0.127565
C4    C     C_R   0.935779 0.483667 0.736816 -0.135822
C5    C     C_R   0.701359 0.409949 0.002629 -0.133736
C6    C     C_R   0.240169 0.805094 0.270626 0.062841
C7    C     C_R   0.638410 0.435692 0.946768 0.059944
C8    C     C_R   0.975419 0.414113 0.250455 0.091762
C9    C     C_R   0.995421 0.816026 0.967192 0.058374
C10   C     C_R   0.376029 0.429027 0.857672 -0.062524
C11   C     C_R   0.337330 0.400253 0.916114 -0.001795
C12   C     C_R   0.028245 0.520570 0.727895 0.063530
C13   C     C_R   0.372393 0.334258 0.946395 -0.212226
C14   C     C_R   0.462605 0.325914 0.940351 0.334606
C15   C     C_R   0.524598 0.395937 0.914491 0.020433
C16   C     C_R   0.724497 0.210788 0.821024 -0.206337
C17   C     C_R   0.472805 0.437871 0.866034 -0.144751
C18   C     C_3   0.490150 0.515806 0.826961 0.390917
C19   C     C_3   0.377912 0.499681 0.810211 0.335369
C20   C     C_R   0.971861 0.378637 0.320015 0.068367
C21   C     C_R   0.038548 0.493583 0.642715 0.098267
C22   C     C_R   0.144664 0.514240 0.560393 -0.162966
C23   C     C_R   0.670926 0.213424 0.742243 0.023913
C24   C     C_R   0.134520 0.544431 0.641213 -0.163128
C25   C     C_R   0.953197 0.410927 0.562898 -0.280894
C26   C     C_R   0.959551 0.386109 0.479942 0.123585
C27   C     C_R   0.056983 0.438777 0.479783 0.120267
C28   C     C_R   0.256008 0.528982 0.947043 -0.150665
C29   C     C_R   0.063419 0.426092 0.398936 -0.269144
C30   C     C_R   0.876487 0.317072 0.317135 -0.231204
C31   C     C_R   0.869980 0.316960 0.396829 0.302112
C32   C     C_R   0.570765 0.133238 0.667864 0.135069
C33   C     C_R   0.293867 0.903850 0.354020 0.136946
C34   C     C_R   0.280137 0.449458 0.957912 0.070375
C35   C     C_R   0.439721 0.077245 0.431737 -0.222516
C36   C     C_R   0.357161 0.996200 0.352992 -0.180558
C37   C     C_R   0.301071 0.901878 0.436792 -0.284936
C38   C     C_R   0.384508 0.984014 0.516933 0.185327
C39   C     C_R   0.457551 0.067189 0.511757 0.188633
C40   C     C_R   0.727655 0.311943 0.748246 0.314916
C41   C     C_R   0.551806 0.134895 0.584479 -0.269522
C42   C     C_R   0.495808 0.056089 0.676617 -0.165570
C43   C     C_R   0.403005 0.979861 0.600318 -0.218233
C44   C     C_R   0.092922 0.111116 0.130164 0.098075
C45   C     C_R   0.217132 0.703347 0.263602 -0.128838
C46   C     C_R   0.999101 0.109294 0.081234 -0.167536
C47   C     C_R   0.906759 0.030290 0.073417 0.626729
C48   C     C_R   0.914143 0.958986 0.112095 -0.362329
C49   C     C_R   0.011310 0.965512 0.160899 0.000073
C50   C     C_R   0.098150 0.043431 0.167442 0.172407
C51   C     C_3   0.213741 0.088442 0.205525 -0.481165
C52   C     C_R   0.247977 0.431987 0.022687 -0.117746
C53   C     C_3   0.209180 0.166050 0.164351 -0.483383
C54   C     C_R   0.109168 0.575323 0.813950 -0.158332
C55   C     C_R   0.914431 0.199339 0.995930 -0.109529
C56   C     C_R   0.702463 0.498658 0.920232 -0.100590
C57   C     C_R   0.999736 0.189474 0.045719 0.123978
C58   C     C_3   0.485170 0.240387 0.958308 -1.079566
C59   C     C_3   0.578374 0.660717 0.977133 -0.205809
C60   C     C_3   0.209087 0.381639 0.698855 -0.170598
C61   C     C_3   0.765676 0.252399 0.392372 -1.062638
C62   C     C_3   0.774124 0.067517 0.089192 -0.313486
C63   C     C_3   0.682230 0.373259 0.708108 -1.080517
C64   C     C_R   0.892404 0.393518 0.174794 -0.140431
C65   C     C_R   0.082312 0.802622 0.007718 -0.128228
C66   C     C_R   0.910379 0.719080 0.935130 -0.105454
H1    H     H_    0.162769 0.313032 0.127107 0.102142
H2    H     H_    0.857445 0.445086 0.685029 0.115576
H3    H     H_    0.500553 0.483753 0.763584 0.090007
H4    H     H_    0.374242 0.575746 0.841797 0.050902
H5    H     H_    0.138872 0.468789 0.401664 0.123436
H6    H     H_    0.806010 0.275581 0.254848 0.119283
H7    H     H_    0.219251 0.555146 0.560218 0.134161
H8    H     H_    0.202094 0.606934 0.702026 0.128235
H9    H     H_    0.880716 0.368718 0.564888 0.142792
H10   H     H_    0.612581 0.185864 0.574012 0.137562
H11   H     H_    0.696270 0.152324 0.844250 0.118037
H12   H     H_    0.677758 0.522652 0.868302 0.136927
H13   H     H_    0.509704 0.053418 0.741001 0.123967
H14   H     H_    0.494107 0.143583 0.428727 0.133462
H15   H     H_    0.347408 0.917059 0.605874 0.131448
H16   H     H_    0.352250 0.001710 0.290894 0.116450
H17   H     H_    0.249244 0.832469 0.438009 0.124322
H18   H     H_    0.843736 0.898427 0.104226 0.165030
H19   H     H_    0.250280 0.127564 0.280919 0.200327
H20   H     H_    0.241188 0.031418 0.172455 0.175410
H21   H     H_    0.244107 0.249759 0.217043 0.187544
H22   H     H_    0.274327 0.566371 0.906527 0.082875
H23   H     H_    0.811694 0.337251 0.148749 0.084228
H24   H     H_    0.234890 0.154124 0.108343 0.191472
H25   H     H_    0.255676 0.376611 0.049322 0.093704
H26   H     H_    0.189769 0.625235 0.832753 0.089651
H27   H     H_    0.832749 0.148041 0.971435 0.160193
H28   H     H_    0.224085 0.679501 0.317391 0.099483
H29   H     H_    0.532397 0.216088 0.923263 0.253178
H30   H     H_    0.524084 0.267486 0.032438 0.249086
H31   H     H_    0.410893 0.167626 0.930124 0.258996
H32   H     H_    0.616948 0.623542 0.013063 0.147696
H33   H     H_    0.503008 0.649036 0.982190 0.111865
H34   H     H_    0.162370 0.857896 0.029888 0.088966
H35   H     H_    0.629842 0.747683 0.013312 0.171559
H36   H     H_    0.181559 0.428187 0.743341 0.125716
H37   H     H_    0.200809 0.308314 0.707112 0.146037
H38   H     H_    0.157724 0.355572 0.627350 0.173929
H39   H     H_    0.706179 0.200680 0.321222 0.254668
H40   H     H_    0.774000 0.200089 0.425251 0.254250
H41   H     H_    0.736384 0.306244 0.427278 0.252726
H42   H     H_    0.830124 0.152844 0.134090 0.139253
H43   H     H_    0.760549 0.024277 0.130370 0.154179
H44   H     H_    0.698569 0.064726 0.051366 0.175442
H45   H     H_    0.830527 0.696829 0.892443 0.122670
H46   H     H_    0.682383 0.357893 0.640607 0.241312
H47   H     H_    0.601132 0.352129 0.702235 0.264040
H48   H     H_    0.729571 0.460136 0.752185 0.249956
H49   H     H_    0.145137 0.495227 0.289049 0.086516
H50   H     H_    0.233763 0.861633 0.165649 0.086901
H51   H     H_    0.680287 0.357266 0.032233 0.119998
H52   H     H_    0.333826 0.293337 0.978518 0.130482
N1    N     N_R   0.055640 0.348550 0.045600 -0.041462
N2    N     N_R   0.811290 0.303400 0.871650 -0.051135
N3    N     N_R   0.205180 0.552990 0.997660 -0.039276
N4    N     N_R   0.814810 0.361830 0.823710 -0.054042
N5    N     N_R   0.201660 0.494570 0.045600 -0.042140
N6    N     N_R   0.068420 0.560530 0.871650 -0.035173
N7    N     N_R   0.948050 0.295860 0.997660 -0.049959
N8    N     N_R   0.185190 0.638170 0.176290 -0.042266
N9    N     N_R   0.798340 0.505430 0.954400 -0.045588
N10   N     N_R   0.931580 0.439470 0.128350 -0.037630
N11   N     N_R   0.051950 0.704140 0.002340 -0.040093
N12   N     N_R   0.944360 0.651450 0.954400 -0.045280
N13   N     N_R   0.039170 0.492150 0.176290 -0.038140
N14   N     N_R   0.188710 0.696600 0.128350 -0.041840
N15   N     N_R   0.794820 0.447010 0.002340 -0.041921
N16   N     N_R   0.960830 0.507850 0.823710 -0.038276
Ni1   Ni    Ni4+2 0.119330 0.493420 0.109950 0.207788
Ni2   Ni    Ni4+2 0.880670 0.506580 0.890050 0.210727
Ni3   Ni    Ni4+2 0.872590 0.372590 0.000000 0.203758
Ni4   Ni    Ni4+2 0.127410 0.627410 0.000000 0.211810
O1    O     O_3   0.567585 0.623161 0.886374 -0.621853
O2    O     O_3   0.313233 0.442044 0.715700 -0.618296
O3    O     O_3   0.808896 0.018973 0.026179 -0.617800

loop_
_geom_bond_atom_site_label_1
_geom_bond_atom_site_label_2
_ccdc_geom_bond_type
N15   Ni3   S    
C6    C45   A    
C27   C29   A    
C59   H33   S    
C31   C61   S    
C35   C36   A    
C55   H27   S    
C3    C6    A    
C51   H19   S    
C13   H52   S    
C39   C41   A    
C20   C30   A    
C5    N15   A    
C26   C27   A    
C8    C20   S    
C40   C63   S    
C7    C56   A    
N6    Ni4   S    
C18   C19   S    
N13   Ni1   S    
C3    H50   S    
C16   N2    A    
C30   C31   A    
C52   N5    A    
C62   H42   S    
C10   C17   A    
N14   Ni4   S    
C23   C40   A    
C35   H14   S    
C33   C36   A    
C56   H12   S    
C16   H11   S    
C1    N1    A    
C56   N9    A    
C63   H46   S    
C58   H30   S    
C9    C66   A    
C54   N6    A    
C63   H48   S    
C44   C53   S    
N11   Ni4   S    
C55   N7    A    
C36   H16   S    
C19   O2    S    
C64   N10   A    
C28   H22   S    
C32   C41   A    
N8    N14   A    
C66   H45   S    
C4    C12   A    
C60   H37   S    
C61   H39   S    
C45   N8    A    
C18   H3    S    
C7    C15   S    
C28   C34   A    
C42   H13   S    
C13   C14   A    
C58   H31   S    
C64   H23   S    
C60   H36   S    
C45   H28   S    
C51   H20   S    
C44   C46   A    
C17   C18   S    
C4    N16   A    
C20   C29   A    
C14   C58   S    
N12   Ni2   S    
C3    N14   A    
C59   H35   S    
N9    Ni2   S    
C53   H21   S    
C5    C7    A    
C28   N3    A    
N16   Ni2   S    
N7    Ni3   S    
C25   C26   A    
C12   C21   S    
N1    Ni1   S    
C48   H18   S    
C5    H51   S    
C25   H9    S    
N3    Ni4   S    
C35   C39   A    
C58   H29   S    
C54   H26   S    
C37   C38   A    
C1    C57   A    
C2    H49   S    
C30   H6    S    
C47   C48   A    
C62   H44   S    
C59   O1    S    
C10   C19   S    
C2    N13   A    
C50   C51   S    
C61   H40   S    
N4    Ni2   S    
C8    C64   A    
N10   Ni3   S    
N1    N7    A    
C48   C49   A    
C60   O2    S    
N8    Ni1   S    
C16   C23   A    
C22   C27   A    
C55   C57   A    
C46   C57   S    
C43   H15   S    
C22   C24   A    
C42   C43   A    
C62   O3    S    
N10   N13   A    
N2    N4    A    
C4    H2    S    
N11   N12   A    
C44   C50   A    
C15   C17   A    
C21   C25   A    
C46   C47   A    
C11   C34   S    
C2    C8    A    
N9    N15   A    
C65   H34   S    
C29   H5    S    
C52   H25   S    
C65   N11   A    
C40   N4    A    
C47   O3    S    
C34   C52   A    
C6    C33   S    
N6    N16   A    
C23   C32   S    
C38   C43   A    
C41   H10   S    
C11   C13   A    
C24   H8    S    
C38   C39   A    
C62   H43   S    
C1    H1    S    
C33   C37   A    
C18   O1    S    
C61   H41   S    
C9    C65   A    
N3    N5    A    
C10   C11   A    
C63   H47   S    
C26   C31   A    
C49   C50   A    
C21   C24   A    
N5    Ni1   S    
C53   H24   S    
C59   H32   S    
C32   C42   A    
C14   C15   A    
C37   H17   S    
C19   H4    S    
N2    Ni3   S    
C22   H7    S    
C51   C53   S    
C60   H38   S    
C12   C54   A    
C66   N12   A    
