data_mof_unit_13333.cif
_audit_creation_date              2013-03-05T15:52:29-0500
_audit_creation_method            fapswitch 2.2
_symmetry_space_group_name_H-M    P1
_symmetry_Int_Tables_number       1
_space_group_crystal_system       triclinic
_cell_length_a                    27.806267
_cell_length_b                    10.848161
_cell_length_c                    9.603062
_cell_angle_alpha                 89.291226
_cell_angle_beta                  89.412914
_cell_angle_gamma                 93.562639
_cell_volume                      2890.73815615

loop_
_atom_site_label
_atom_site_type_symbol
_atom_site_description
_atom_site_fract_x
_atom_site_fract_y
_atom_site_fract_z
_atom_type_partial_charge
O1    O     O_R   0.500000 0.319640 0.618810 -0.535484
O2    O     O_R   0.500000 0.319660 0.381240 -0.586433
C1    C     C_R   0.503013 0.262719 0.501703 0.843489
O3    O     O_R   0.430260 0.500010 0.618770 -0.509202
O4    O     O_R   0.430270 0.500030 0.381200 -0.584655
C2    C     C_R   0.407646 0.500786 0.500360 0.832383
Cu1   Cu    Cu3+1 0.500000 0.499990 0.640660 0.985677
Cu2   Cu    Cu3+1 0.500000 0.500010 0.359340 0.945281
O5    O     O_R   0.500000 0.680340 0.618760 -0.618488
O6    O     O_R   0.500000 0.680360 0.381190 -0.598241
O7    O     O_R   0.569730 0.499970 0.618800 -0.609922
O8    O     O_R   0.569740 0.499990 0.381230 -0.599590
C3    C     C_R   0.496376 0.736759 0.500208 0.767432
C4    C     C_R   0.592484 0.500981 0.499453 0.789999
C5    C     C_R   0.175689 0.396108 0.502748 0.543695
O9    O     O_2   0.197863 0.289064 0.510695 -0.522953
N1    N     N_R   0.202503 0.506227 0.498272 -0.467664
C6    C     C_R   0.181003 0.616221 0.492242 0.539874
C7    C     C_R   0.280255 0.555336 0.611203 -0.084888
C8    C     C_R   0.330391 0.554163 0.611771 -0.150526
C9    C     C_R   0.328657 0.454958 0.386750 -0.198390
C10   C     C_R   0.278578 0.456449 0.386139 -0.086043
C11   C     C_R   0.254131 0.506102 0.498586 0.330813
C12   C     C_R   0.102212 0.505894 0.494250 -0.043578
C13   C     C_R   0.125172 0.393891 0.500056 -0.021852
C14   C     C_R   0.097381 0.282242 0.503999 -0.140169
C15   C     C_R   0.130546 0.618095 0.490799 -0.021511
C16   C     C_R   0.354899 0.502776 0.500230 -0.060977
H1    H     H_    0.346820 0.415394 0.299170 0.180542
H2    H     H_    0.258692 0.418964 0.298304 0.158307
H3    H     H_    0.114138 0.194819 0.510281 0.187141
C17   C     C_R   0.645499 0.502497 0.498673 -0.099152
C18   C     C_R   0.972082 0.391284 0.484204 0.043996
C19   C     C_R   0.977316 0.619291 0.494107 0.044580
C20   C     C_R   0.949441 0.505103 0.488857 0.072393
C21   C     C_R   0.942611 0.280824 0.471655 -0.195229
C22   C     C_R   0.892716 0.281752 0.469849 -0.128749
C23   C     C_R   0.870100 0.392614 0.479897 -0.022793
C24   C     C_R   0.898274 0.504664 0.488712 -0.038871
C25   C     C_R   0.875137 0.616216 0.497773 -0.021432
C26   C     C_R   0.824576 0.613494 0.499887 0.602682
N2    N     N_R   0.798062 0.503346 0.493210 -0.448991
C27   C     C_R   0.819657 0.394066 0.481633 0.602366
C28   C     C_R   0.721139 0.492638 0.373224 -0.140926
C29   C     C_R   0.671099 0.492883 0.373135 -0.197421
C30   C     C_R   0.670864 0.513136 0.624198 -0.284183
C31   C     C_R   0.721310 0.512659 0.626027 0.382994
C32   C     C_R   0.746486 0.502182 0.498280 0.240736
O10   O     O_2   0.792345 0.287157 0.473517 -0.517852
C33   C     C_R   0.023125 0.391410 0.491559 0.045087
C34   C     C_R   0.051056 0.505676 0.491954 0.069329
C35   C     C_R   0.028478 0.619702 0.490216 0.043825
C36   C     C_R   0.047451 0.280733 0.500056 -0.199604
H4    H     H_    0.652501 0.485080 0.274785 0.183370
H5    H     H_    0.740476 0.485276 0.275499 0.181765
H6    H     H_    0.871872 0.194494 0.460895 0.191159
H7    H     H_    0.956850 0.191404 0.460786 0.137491
H8    H     H_    0.029043 0.190575 0.506539 0.136535
O11   O     O_2   0.208375 0.723397 0.486353 -0.526793
C37   C     C_R   0.108075 0.729526 0.484661 -0.137046
H9    H     H_    0.350019 0.595095 0.698159 0.181962
H10   H     H_    0.261665 0.594467 0.698198 0.154760
H11   H     H_    0.129049 0.817102 0.480131 0.191563
C38   C     C_R   0.952781 0.729463 0.504341 -0.196143
C39   C     C_R   0.902790 0.727661 0.505970 -0.131586
O12   O     O_2   0.802037 0.719805 0.508942 -0.518692
C40   C     C_R   0.058156 0.730611 0.484189 -0.199838
H12   H     H_    0.971019 0.819317 0.514027 0.136230
H13   H     H_    0.651310 0.520487 0.721540 0.198100
H14   H     H_    0.885868 0.814632 0.514305 0.187518
H15   H     H_    0.044113 0.820648 0.476711 0.137467
H16   H     H_    0.508797 0.114486 0.281988 0.165622
C41   C     C_R   0.512092 0.111824 0.767745 -0.093656
H17   H     H_    0.532222 0.199138 0.780010 0.150450
C42   C     C_R   0.498334 0.048134 0.890115 -0.095658
H18   H     H_    0.505275 0.090058 0.990249 0.130517
C43   C     C_R   0.474541 0.932137 0.883221 -0.112678
H19   H     H_    0.461658 0.884894 0.977647 0.143682
C44   C     C_R   0.468847 0.874984 0.754868 -0.147085
H20   H     H_    0.449082 0.786035 0.754323 0.165223
C45   C     C_R   0.487321 0.933523 0.630855 0.083289
C46   C     C_R   0.501924 0.060002 0.635333 0.104988
C47   C     C_R   0.505438 0.128129 0.507293 -0.120499
C48   C     C_R   0.505079 0.065215 0.380716 -0.195745
H21   H     H_    0.503972 0.891950 0.280095 0.164851
C49   C     C_R   0.500798 0.937761 0.379112 -0.199075
C50   C     C_R   0.492482 0.870520 0.503097 -0.103120
H22   H     H_    0.444018 0.367046 0.140300 0.196922
C51   C     C_R   0.564788 0.664180 0.140131 -0.141051
H23   H     H_    0.567172 0.672139 0.249957 0.199302
C52   C     C_R   0.596563 0.744848 0.066188 -0.193599
H24   H     H_    0.621092 0.808203 0.121006 0.166293
C53   C     C_R   0.596751 0.744874 0.922590 -0.165211
H25   H     H_    0.621399 0.808361 0.865115 0.166998
C54   C     C_R   0.565192 0.664194 0.852001 -0.117693
H26   H     H_    0.567903 0.673094 0.741957 0.198032
C55   C     C_R   0.532326 0.579850 0.923068 0.118922
C56   C     C_R   0.532097 0.580134 0.072606 0.186894
N3    N     N_R   0.500460 0.501210 0.147910 -0.234833
C57   C     C_R   0.469437 0.424813 0.078758 -0.118069
C58   C     C_R   0.467940 0.424765 0.931603 0.458297
N4    N     N_R   0.500480 0.501290 0.852040 -0.266881
N5    N     N_R   0.746000 0.522430 0.757201 0.136080
O13   O     O_R   0.724739 0.566855 0.865315 -0.357056
O14   O     O_R   0.788279 0.479454 0.772959 -0.341113
S1    S     S_3+6 0.415515 0.338655 0.869363 0.013418
O15   O     O_2   0.402137 0.235647 0.971514 -0.320140
O16   O     O_2   0.375195 0.424528 0.868642 -0.317097
O17   O     O_3   0.418515 0.273355 0.712666 -0.503760
H27   H     H_    0.385317 0.239623 0.693977 0.369573

loop_
_geom_bond_atom_site_label_1
_geom_bond_atom_site_label_2
_geom_bond_distance
_ccdc_geom_bond_type
C26   N2    1.367060 A    
C53   H25   1.082989 S    
C17   C29   1.402050 A    
C20   C24   1.422491 A    
C54   H26   1.061459 S    
C12   C15   1.408063 A    
C55   C56   1.436020 A    
Cu1   Cu2   2.701531 S    
C43   H19   1.082715 S    
Cu1   O7    1.948136 S    
N1    C11   1.435704 S    
C37   H11   1.083604 S    
C38   H12   1.075985 S    
C21   C22   1.388344 A    
Cu2   N3    2.030160 S    
C48   C49   1.380664 A    
C15   C37   1.395717 A    
C23   C24   1.408537 A    
O7    C4    1.303044 A    
C5    C13   1.403923 A    
S1    O15   1.504364 D    
C7    H10   1.082846 S    
C5    O9    1.349881 S    
C18   C21   1.416171 A    
Cu1   O5    1.965148 S    
C19   C20   1.421548 A    
C41   H17   1.078245 S    
C8    H9    1.082371 S    
O5    C3    1.293687 A    
C30   H13   1.082866 S    
C22   H6    1.083607 S    
C2    C16   1.468201 S    
C7    C8    1.395001 A    
C37   C40   1.388898 A    
Cu1   N4    2.030294 S    
C51   C52   1.387913 A    
C55   N4    1.381552 A    
C12   C34   1.422696 A    
C14   H3    1.083640 S    
C53   C54   1.388179 A    
C9    C10   1.393697 A    
C41   C42   1.393737 A    
O3    Cu1   1.952725 S    
C45   C46   1.407791 A    
C43   C44   1.392637 A    
H16   C48   1.083440 S    
C33   C36   1.416113 A    
C31   N5    1.442685 S    
C34   C35   1.421524 A    
C58   N4    1.403002 A    
C12   C13   1.407996 A    
O3    C2    1.305197 A    
C21   H7    1.076123 S    
C52   H24   1.082940 S    
C44   C45   1.419017 A    
C49   C50   1.398235 A    
C27   O10   1.349773 S    
C8    C16   1.403398 A    
C33   C34   1.421364 A    
C18   C33   1.421708 A    
H21   C49   1.083668 S    
C9    H1    1.083408 S    
O1    C1    1.294092 A    
C7    C11   1.401667 A    
C42   H18   1.082797 S    
C22   C23   1.395262 A    
C52   C53   1.378935 A    
C31   C32   1.415503 A    
Cu2   O8    1.952720 S    
C3    C50   1.462376 S    
C19   C38   1.416465 A    
N1    C6    1.368296 A    
N5    O14   1.300908 A    
N2    C32   1.433732 S    
C42   C43   1.387452 A    
H22   C57   1.081107 S    
C35   C40   1.416268 A    
C25   C26   1.404298 A    
C9    C16   1.404391 A    
O8    C4    1.305049 A    
C29   H4    1.083130 S    
C56   N3    1.381276 A    
C25   C39   1.395406 A    
C1    C47   1.466136 S    
C47   C48   1.401185 A    
N2    C27   1.367007 A    
C14   C36   1.388337 A    
C41   C46   1.420610 A    
C24   C25   1.408584 A    
C28   C29   1.391580 A    
C58   S1    1.793671 S    
C5    N1    1.368287 A    
C30   C31   1.403332 A    
C10   H2    1.082910 S    
O1    Cu1   1.970264 S    
C17   C30   1.405203 A    
O2    Cu2   1.965148 S    
C6    C15   1.404624 A    
C4    C17   1.473160 S    
O6    C3    1.308964 A    
O4    Cu2   1.948139 S    
C36   H8    1.076141 S    
C54   C55   1.416305 A    
C26   O12   1.349665 S    
C19   C35   1.422485 A    
N3    C57   1.344802 A    
C51   C56   1.414837 A    
C38   C39   1.388899 A    
O2    C1    1.310553 A    
C13   C14   1.395534 A    
C23   C27   1.403615 A    
O17   H27   0.990626 S    
C45   C50   1.422059 A    
C28   H5    1.083076 S    
O4    C2    1.300529 A    
S1    O16   1.501558 D    
C57   C58   1.414188 A    
C18   C20   1.421377 A    
C40   H15   1.076060 S    
C44   H20   1.080492 S    
C28   C32   1.400366 A    
C6    O11   1.349738 S    
Cu2   O6    1.970265 S    
C46   C47   1.426076 A    
N5    O13   1.301884 A    
C10   C11   1.401114 A    
C51   H23   1.061669 S    
C39   H14   1.083625 S    
S1    O17   1.674579 S    
