data_mof_unit_41885.cif
_audit_creation_date              2012-12-10T20:42:37-0500
_audit_creation_method            fapswitch 2.2
_symmetry_space_group_name_H-M    P1
_symmetry_Int_Tables_number       1
_space_group_crystal_system       triclinic
_cell_length_a                    8.902028
_cell_length_b                    10.689277
_cell_length_c                    9.901465
_cell_angle_alpha                 89.337379
_cell_angle_beta                  90.426177
_cell_angle_gamma                 90.309747
_cell_volume                      942.083807494

loop_
_atom_site_label
_atom_site_type_symbol
_atom_type_description
_atom_site_fract_x
_atom_site_fract_y
_atom_site_fract_z
_atom_type_partial_charge
C1    C     C_R   0.505272 0.259846 0.500440 0.870159
C2    C     C_R   0.547491 0.936742 0.375471 -0.225668
C3    C     C_R   0.533865 0.871008 0.498106 -0.102978
C4    C     C_R   0.550647 0.933982 0.619556 0.145265
C5    C     C_3   0.462694 0.922885 0.746958 -0.461185
C6    C     C_3   0.460696 0.064392 0.747819 -0.507595
C7    C     C_R   0.375163 0.463355 0.070774 0.180313
C8    C     C_R   0.614504 0.552812 0.072850 -0.164196
C9    C     C_R   0.613819 0.554861 0.929199 0.003964
C10   C     C_R   0.375187 0.463531 0.928666 0.188304
C11   C     C_3   0.296879 0.340359 0.923723 -0.548791
C12   C     C_R   0.218833 0.499919 0.499683 0.933992
C13   C     C_3   0.297741 0.339521 0.077705 -0.247412
C14   C     C_R   0.506239 0.739879 0.499296 0.873463
C15   C     C_R   0.781180 0.500033 0.500332 0.933570
C16   C     C_1   0.065438 0.499979 0.499612 -0.187478
C17   C     C_1   0.934574 0.500015 0.500504 -0.174017
C18   C     C_R   0.549515 0.061811 0.620529 0.138256
C19   C     C_R   0.531788 0.128372 0.499781 -0.102318
C20   C     C_R   0.546547 0.066128 0.376310 -0.217688
H1    H     H_    0.545664 0.115958 0.280420 0.170876
H2    H     H_    0.369616 0.267827 0.881258 0.204291
H3    H     H_    0.367528 0.264512 0.124498 0.162802
H4    H     H_    0.546752 0.889431 0.279288 0.174203
H5    H     H_    0.349600 0.880412 0.731490 0.210065
H6    H     H_    0.529924 0.881352 0.831108 0.205952
H7    H     H_    0.346222 0.103324 0.731988 0.206433
H8    H     H_    0.526867 0.103933 0.833014 0.204844
H9    H     H_    0.707385 0.594006 0.128165 0.160347
H10   H     H_    0.183810 0.347789 0.875698 0.210137
N1    N     N_R   0.499010 0.499140 0.142800 -0.120845
N2    N     N_R   0.499010 0.499180 0.857150 -0.126085
O1    O     O_R   0.500020 0.316790 0.614690 -0.617792
O2    O     O_R   0.500000 0.316760 0.385350 -0.627291
O3    O     O_R   0.285350 0.500020 0.614650 -0.613839
O4    O     O_R   0.285340 0.499980 0.385310 -0.609966
O5    O     O_R   0.500000 0.683240 0.614650 -0.618854
O6    O     O_R   0.499980 0.683210 0.385310 -0.625222
O7    O     O_R   0.714660 0.500020 0.614690 -0.612035
O8    O     O_R   0.714650 0.499980 0.385350 -0.614839
Zn1   Zn    Zn3+2 0.500010 0.500020 0.653130 0.954646
Zn2   Zn    Zn3+2 0.499990 0.499980 0.346870 0.950535
C21   C     C_1   0.146689 0.349152 0.135683 0.243851
N3    N     N_1   0.027730 0.356665 0.181163 -0.208098
C22   C     C_1   0.733431 0.620520 0.861615 0.225747
N4    N     N_1   0.829997 0.674401 0.808656 -0.217823

loop_
_geom_bond_atom_site_label_1
_geom_bond_atom_site_label_2
_ccdc_geom_bond_type
C7    C10   A    
N2    Zn1   S    
C9    C22   S    
N1    Zn2   S    
C14   O6    A    
C11   H2    S    
O4    Zn2   S    
C6    H7    S    
O2    Zn2   S    
C13   C21   S    
C21   N3    T    
O1    Zn1   S    
C19   C20   A    
O8    Zn2   S    
C2    C3    A    
C1    O1    A    
O7    Zn1   S    
C22   N4    T    
C12   O3    A    
C2    H4    S    
C4    C5    S    
C11   C13   S    
C15   O7    A    
C3    C14   S    
O3    Zn1   S    
C8    H9    S    
C1    O2    A    
O6    Zn2   S    
O5    Zn1   S    
C5    C6    S    
C6    C18   S    
C5    H5    S    
C15   O8    A    
C1    C19   S    
C12   O4    A    
C10   C11   S    
C2    C20   A    
C5    H6    S    
C10   N2    A    
C7    C13   S    
C7    N1    A    
C20   H1    S    
C13   H3    S    
C18   C19   A    
C15   C17   S    
C16   C17   T    
C9    N2    A    
C8    N1    A    
C4    C18   A    
C6    H8    S    
C3    C4    A    
C12   C16   S    
C11   H10   S    
C8    C9    A    
C14   O5    A    
