data_mof_unit_38690.cif
_audit_creation_date              2012-12-10T16:56:33-0500
_audit_creation_method            fapswitch 2.2
_symmetry_space_group_name_H-M    P1
_symmetry_Int_Tables_number       1
_space_group_crystal_system       triclinic
_cell_length_a                    7.872053
_cell_length_b                    8.552624
_cell_length_c                    15.701525
_cell_angle_alpha                 92.151257
_cell_angle_beta                  84.614853
_cell_angle_gamma                 93.719124
_cell_volume                      1049.72334103

loop_
_atom_site_label
_atom_site_type_symbol
_atom_type_description
_atom_site_fract_x
_atom_site_fract_y
_atom_site_fract_z
_atom_type_partial_charge
C1    C     C_R   0.545428 0.794324 0.497941 0.959157
C2    C     C_R   0.454572 0.205675 0.502059 0.959157
C3    C     C_R   0.500307 0.500431 0.661766 0.890905
C4    C     C_R   0.499693 0.499569 0.338234 0.890905
C5    C     C_2   0.569131 0.958089 0.496786 -0.361521
C6    C     C_2   0.430869 0.041911 0.503214 -0.361521
C7    C     C_3   0.391371 0.605106 0.035467 -0.231967
C8    C     C_3   0.608629 0.394893 0.964533 -0.231967
C9    C     C_3   0.550424 0.642159 0.972837 0.488495
C10   C     C_3   0.449576 0.357841 0.027163 0.488496
C11   C     C_1   0.500680 0.500252 0.750722 -0.142301
C12   C     C_1   0.499319 0.499747 0.249278 -0.142302
C13   C     C_3   0.340527 0.460865 0.978234 -0.262612
C14   C     C_3   0.659473 0.539135 0.021766 -0.262612
C15   C     C_3   0.500238 0.499747 0.917014 0.023659
C16   C     C_3   0.499762 0.500253 0.082986 0.023659
C17   C     C_1   0.500631 0.500017 0.826081 0.050446
C18   C     C_1   0.499369 0.499983 0.173919 0.050446
H1    H     H_    0.303965 0.691865 0.066103 0.203355
H2    H     H_    0.696035 0.308135 0.933897 0.203355
H3    H     H_    0.789243 0.572335 0.041290 0.187345
H4    H     H_    0.210757 0.427665 0.958709 0.187345
H5    H     H_    0.699786 0.009061 0.490683 0.170815
H6    H     H_    0.300214 0.990939 0.509316 0.170815
N1    N     N_2   0.950320 0.457950 0.477300 -0.005697
N2    N     N_2   0.049680 0.542050 0.522700 -0.005697
O1    O     O_R   0.389250 0.738570 0.505570 -0.615561
O2    O     O_R   0.610750 0.261430 0.494430 -0.615560
O3    O     O_R   0.678390 0.711630 0.491020 -0.643952
O4    O     O_R   0.321610 0.288370 0.508980 -0.643952
O5    O     O_R   0.355460 0.513480 0.630490 -0.602534
O6    O     O_R   0.644540 0.486520 0.369510 -0.602534
O7    O     O_R   0.644600 0.486540 0.615950 -0.623041
O8    O     O_R   0.355400 0.513460 0.384050 -0.623041
Zn1   Zn    Zn3+2 0.306940 0.517990 0.509710 0.958894
Zn2   Zn    Zn3+2 0.693060 0.482010 0.490290 0.958894
Cl1   Cl    Cl    0.617537 0.831838 0.934670 -0.551394
Cl2   Cl    Cl    0.382462 0.168162 0.065330 -0.551394
C19   C     C_3   0.004523 0.307451 0.445422 -0.474059
H7    H     H_    0.906106 0.252067 0.405976 0.182859
H8    H     H_    0.123411 0.319342 0.402425 0.216167
H9    H     H_    0.014796 0.229526 0.499428 0.182541
C20   C     C_3   0.995477 0.692549 0.554578 -0.474059
H10   H     H_    0.093894 0.747933 0.594024 0.182860
H11   H     H_    0.985204 0.770474 0.500572 0.182541
H12   H     H_    0.876589 0.680658 0.597575 0.216167

loop_
_geom_bond_atom_site_label_1
_geom_bond_atom_site_label_2
_ccdc_geom_bond_type
C10   Cl2   S    
N2    C20   S    
C2    O2    A    
C9    C14   S    
C14   C16   S    
C4    C12   S    
C5    H5    S    
C2    O4    A    
C20   H10   S    
C6    H6    S    
C1    O3    A    
C9    C15   S    
C19   H8    S    
C10   C16   S    
N1    C19   S    
C3    O5    A    
C20   H11   S    
O3    Zn2   S    
C8    H2    S    
O4    Zn1   S    
C1    C5    S    
O6    Zn2   S    
C14   H3    S    
C8    C10   S    
C7    C16   S    
C13   H4    S    
C8    C15   S    
C7    H1    S    
C13   C15   S    
C4    O8    A    
C5    C6    D    
C20   H12   S    
O5    Zn1   S    
C1    O1    A    
C3    C11   S    
C3    O7    A    
N1    Zn2   S    
C4    O6    A    
C7    C9    S    
N2    Zn1   S    
C7    C13   S    
O7    Zn2   S    
O2    Zn2   S    
C16   C18   S    
O8    Zn1   S    
C12   C18   T    
C19   H7    S    
C15   C17   S    
C19   H9    S    
C11   C17   T    
C8    C14   S    
O1    Zn1   S    
N1    N2    D    
C10   C13   S    
C2    C6    S    
C9    Cl1   S    
