data_mof_unit_20768.cif
_audit_creation_date              2012-12-11T14:30:50-0500
_audit_creation_method            fapswitch 2.2
_symmetry_space_group_name_H-M    P1
_symmetry_Int_Tables_number       1
_space_group_crystal_system       triclinic
_cell_length_a                    17.434332
_cell_length_b                    24.361098
_cell_length_c                    14.920208
_cell_angle_alpha                 89.997149
_cell_angle_beta                  125.303008
_cell_angle_gamma                 89.999362
_cell_volume                      5171.59234878

loop_
_atom_site_label
_atom_site_type_symbol
_atom_type_description
_atom_site_fract_x
_atom_site_fract_y
_atom_site_fract_z
_atom_type_partial_charge
C1    C     C_R   0.814110 0.631514 0.907543 -0.130081
C2    C     C_R   0.022030 0.500608 0.696845 0.133466
C3    C     C_3   0.674702 0.614496 0.151136 -0.886649
C4    C     C_3   0.740709 0.134997 0.845338 -0.367862
C5    C     C_3   0.825217 0.114536 0.848756 -0.886700
C6    C     C_3   0.261858 0.135464 0.141679 -0.363413
C7    C     C_3   0.173439 0.111060 0.124216 -0.883904
C8    C     C_R   0.478039 0.000605 0.303224 0.133479
C9    C     C_R   0.429054 0.000996 0.631438 0.139333
C10   C     C_R   0.679248 0.500489 0.667404 0.060671
C11   C     C_R   0.324865 0.500254 0.290665 0.052364
C12   C     C_R   0.175129 0.000262 0.709173 0.052425
C13   C     C_R   0.820815 0.000474 0.332362 0.060606
C14   C     C_3   0.514722 0.454614 0.532538 -0.175051
C15   C     C_3   0.494680 0.454302 0.417123 -0.173360
C16   C     C_3   0.005328 0.954333 0.582714 -0.173367
C17   C     C_R   0.177929 0.639091 0.092125 -0.131014
C18   C     C_3   0.985336 0.954563 0.467322 -0.175096
C19   C     C_3   0.440055 0.499541 0.496510 -0.176243
C20   C     C_3   0.569561 0.499648 0.453032 -0.181797
C21   C     C_3   0.930460 0.999705 0.546674 -0.181694
C22   C     C_3   0.060028 0.999467 0.503294 -0.176247
C23   C     C_3   0.421634 0.499581 0.382435 0.057787
C24   C     C_3   0.587150 0.500162 0.566494 0.059726
C25   C     C_3   0.912921 0.000136 0.433238 0.059753
C26   C     C_3   0.078392 0.999589 0.617341 0.057797
C27   C     C_3   0.494676 0.544799 0.416971 0.213919
C28   C     C_R   0.321993 0.139033 0.907853 -0.131036
C29   C     C_3   0.513287 0.545011 0.530961 0.213422
C30   C     C_3   0.986799 0.044961 0.468707 0.213379
C31   C     C_3   0.005358 0.044832 0.582669 0.213885
C32   C     C_2   0.261213 0.685912 0.929862 0.280445
C33   C     C_2   0.731691 0.681288 0.073342 0.281729
C34   C     C_2   0.768285 0.181306 0.926648 0.281765
C35   C     C_2   0.238861 0.185895 0.070349 0.280545
C36   C     C_2   0.232225 0.693979 0.995830 -0.316066
C37   C     C_2   0.754131 0.682833 0.000436 -0.306302
C38   C     C_2   0.745833 0.182857 0.999542 -0.306358
C39   C     C_R   0.685865 0.131536 0.092446 -0.130052
C40   C     C_2   0.267543 0.193843 0.004049 -0.316326
C41   C     C_2   0.812227 0.230734 0.918223 -0.145930
C42   C     C_2   0.189771 0.231633 0.080332 -0.146988
C43   C     C_2   0.310359 0.731605 0.919862 -0.147548
C44   C     C_2   0.687770 0.730723 0.081780 -0.145990
C45   C     C_R   0.945446 0.350582 0.093851 -0.146921
C46   C     C_R   0.053341 0.350306 0.906065 -0.161236
C47   C     C_R   0.446657 0.850320 0.093974 -0.161250
C48   C     C_R   0.554558 0.850584 0.906156 -0.146935
C49   C     C_2   0.872707 0.260161 0.008090 -0.234381
C50   C     C_R   0.885308 0.318723 0.003224 0.152140
C51   C     C_2   0.126981 0.260246 0.990756 -0.231774
C52   C     C_2   0.373020 0.760267 0.009406 -0.231489
C53   C     C_2   0.627293 0.760159 0.991918 -0.234441
C54   C     C_2   0.118467 0.456755 0.538964 -0.116565
C55   C     C_2   0.105304 0.460280 0.627034 -0.116959
C56   C     C_2   0.394726 0.960295 0.372999 -0.117036
C57   C     C_2   0.381524 0.956773 0.461038 -0.116593
C58   C     C_2   0.114849 0.502058 0.485939 -0.207627
C59   C     C_2   0.055219 0.501666 0.628156 -0.194885
C60   C     C_2   0.444867 0.001660 0.371929 -0.194834
C61   C     C_R   0.112894 0.318391 0.996291 0.156240
C62   C     C_2   0.385151 0.002076 0.514060 -0.207723
C63   C     C_R   0.052284 0.546612 0.304472 -0.169460
C64   C     C_R   0.998517 0.546578 0.729901 -0.159153
C65   C     C_R   0.501538 0.046575 0.270150 -0.159111
C66   C     C_R   0.447713 0.046618 0.695526 -0.169449
C67   C     C_R   0.733940 0.454643 0.717287 -0.128664
C68   C     C_R   0.268016 0.454616 0.256649 -0.125988
C69   C     C_R   0.231979 0.954619 0.743263 -0.126037
C70   C     C_R   0.766097 0.954633 0.282565 -0.128631
C71   C     C_R   0.052259 0.455452 0.304279 -0.112881
C72   C     C_R   0.387114 0.818399 0.003779 0.156150
C73   C     C_R   0.002824 0.454753 0.735204 -0.123271
C74   C     C_R   0.497214 0.954751 0.264836 -0.123326
C75   C     C_R   0.447736 0.955458 0.695718 -0.112873
C76   C     C_R   0.733935 0.546624 0.711641 -0.152966
C77   C     C_R   0.270056 0.546385 0.263375 -0.133267
C78   C     C_R   0.229942 0.046390 0.736505 -0.133321
C79   C     C_R   0.766114 0.046616 0.288235 -0.152881
C80   C     C_R   0.853466 0.350307 0.911010 -0.119868
C81   C     C_R   0.145236 0.349917 0.088616 -0.126448
C82   C     C_R   0.354772 0.849912 0.911422 -0.126403
C83   C     C_R   0.614697 0.818722 0.996786 0.152183
C84   C     C_R   0.646535 0.850304 0.088996 -0.119890
C85   C     C_R   0.906549 0.630255 0.091820 -0.145365
C86   C     C_R   0.084726 0.638752 0.908760 -0.154112
C87   C     C_R   0.415190 0.138703 0.091218 -0.153881
C88   C     C_R   0.593433 0.130268 0.908171 -0.145382
C89   C     C_R   0.819843 0.646611 0.000638 0.135755
C90   C     C_R   0.168206 0.658071 0.998956 0.141950
C91   C     C_R   0.331661 0.157980 0.001004 0.141820
C92   C     C_R   0.680125 0.146637 0.999347 0.135767
C93   C     C_3   0.482776 0.594085 0.345943 -0.374737
C94   C     C_R   0.070939 0.500985 0.368559 0.139296
C95   C     C_3   0.576248 0.622227 0.388946 -0.918263
C96   C     C_3   0.523065 0.594953 0.599619 -0.378328
C97   C     C_3   0.428864 0.622691 0.554511 -0.921516
C98   C     C_3   0.977046 0.094849 0.399938 -0.378260
C99   C     C_3   0.071261 0.122552 0.445000 -0.921454
C100  C     C_3   0.017221 0.094175 0.653548 -0.374838
C101  C     C_3   0.923732 0.122328 0.610441 -0.918248
C102  C     C_3   0.238766 0.635321 0.859109 -0.363250
C103  C     C_3   0.327685 0.610688 0.878236 -0.883493
C104  C     C_3   0.759244 0.634970 0.154638 -0.367889
H1    H     H_    0.758180 0.641284 0.823627 0.092408
H2    H     H_    0.730501 0.716298 0.942032 0.134149
H3    H     H_    0.311924 0.147110 0.229378 0.169127
H4    H     H_    0.769467 0.216320 0.057944 0.134155
H5    H     H_    0.246808 0.230143 0.952633 0.136140
H6    H     H_    0.783951 0.246351 0.836615 0.117081
H7    H     H_    0.216985 0.246334 0.162235 0.114774
H8    H     H_    0.283276 0.746242 0.837955 0.114723
H9    H     H_    0.716053 0.746333 0.163390 0.117097
H10   H     H_    0.905126 0.242357 0.089227 0.133942
H11   H     H_    0.097363 0.243021 0.909679 0.135942
H12   H     H_    0.402497 0.743094 0.090496 0.135991
H13   H     H_    0.229751 0.652191 0.175255 0.086597
H14   H     H_    0.594866 0.742361 0.910779 0.133931
H15   H     H_    0.111579 0.416210 0.505084 0.116547
H16   H     H_    0.123806 0.424823 0.679961 0.121265
H17   H     H_    0.376189 0.924850 0.320041 0.121299
H18   H     H_    0.388379 0.916226 0.494905 0.116567
H19   H     H_    0.128212 0.542212 0.523955 0.131887
H20   H     H_    0.033166 0.536736 0.573725 0.130968
H21   H     H_    0.466953 0.036716 0.426391 0.131022
H22   H     H_    0.371819 0.042233 0.476049 0.131951
H23   H     H_    0.992236 0.336134 0.177527 0.089708
H24   H     H_    0.270136 0.152112 0.824716 0.086617
H25   H     H_    0.006094 0.335772 0.822539 0.090300
H26   H     H_    0.493898 0.835798 0.177514 0.090311
H27   H     H_    0.507769 0.836139 0.822481 0.089705
H28   H     H_    0.072309 0.588343 0.333832 0.093169
H29   H     H_    0.997604 0.588232 0.705201 0.088760
H30   H     H_    0.502486 0.088227 0.294880 0.088749
H31   H     H_    0.427692 0.088352 0.666168 0.093192
H32   H     H_    0.715694 0.412236 0.692391 0.093367
H33   H     H_    0.289252 0.412078 0.274925 0.096768
H34   H     H_    0.210750 0.912081 0.724964 0.096772
H35   H     H_    0.741776 0.141326 0.176354 0.092364
H36   H     H_    0.784367 0.912223 0.307435 0.093373
H37   H     H_    0.071988 0.413507 0.331866 0.080874
H38   H     H_    0.008572 0.412124 0.719875 0.091930
H39   H     H_    0.491473 0.912122 0.280177 0.091939
H40   H     H_    0.428007 0.913516 0.668133 0.080867
H41   H     H_    0.717287 0.587797 0.679049 0.087937
H42   H     H_    0.293502 0.587329 0.293925 0.087500
H43   H     H_    0.206517 0.087330 0.705890 0.087439
H44   H     H_    0.782812 0.087783 0.320845 0.087940
H45   H     H_    0.816078 0.336021 0.827192 0.081027
H46   H     H_    0.525106 0.418016 0.582760 0.121233
H47   H     H_    0.182337 0.335455 0.172297 0.080145
H48   H     H_    0.317655 0.835440 0.827750 0.080156
H49   H     H_    0.683921 0.836013 0.172815 0.081032
H50   H     H_    0.936209 0.638366 0.177214 0.097056
H51   H     H_    0.051031 0.651893 0.825015 0.094782
H52   H     H_    0.448857 0.151843 0.174954 0.094722
H53   H     H_    0.563768 0.138380 0.822774 0.097058
H54   H     H_    0.384570 0.498556 0.511389 0.131752
H55   H     H_    0.625815 0.498974 0.439479 0.128244
H56   H     H_    0.874180 0.999079 0.560184 0.128249
H57   H     H_    0.484375 0.417528 0.367365 0.121584
H58   H     H_    0.115544 0.998431 0.488471 0.131759
H59   H     H_    0.611037 0.635552 0.475292 0.250897
H60   H     H_    0.623740 0.594053 0.384032 0.256957
H61   H     H_    0.563576 0.658939 0.337957 0.251893
H62   H     H_    0.451393 0.579735 0.260728 0.196937
H63   H     H_    0.434468 0.624495 0.343653 0.184270
H64   H     H_    0.396450 0.637320 0.469462 0.248996
H65   H     H_    0.380004 0.593955 0.555590 0.257617
H66   H     H_    0.440065 0.658633 0.606569 0.251759
H67   H     H_    0.553818 0.581379 0.685134 0.197448
H68   H     H_    0.015602 0.917594 0.632546 0.121596
H69   H     H_    0.571006 0.625484 0.601390 0.184131
H70   H     H_    0.103698 0.137203 0.530036 0.248995
H71   H     H_    0.120097 0.093783 0.443943 0.257626
H72   H     H_    0.060079 0.158473 0.392897 0.251759
H73   H     H_    0.946296 0.081223 0.314456 0.197471
H74   H     H_    0.929109 0.125415 0.398085 0.184127
H75   H     H_    0.888954 0.135594 0.524061 0.250864
H76   H     H_    0.876241 0.094183 0.615417 0.256955
H77   H     H_    0.936378 0.159079 0.661321 0.251871
H78   H     H_    0.048596 0.079887 0.738802 0.196999
H79   H     H_    0.974954 0.917933 0.417182 0.121219
H80   H     H_    0.065516 0.124565 0.655759 0.184256
H81   H     H_    0.360840 0.640027 0.853212 0.258191
H82   H     H_    0.378764 0.600040 0.966322 0.261860
H83   H     H_    0.309434 0.572751 0.828473 0.251088
H84   H     H_    0.205410 0.602452 0.876829 0.207933
H85   H     H_    0.189471 0.646845 0.771215 0.169134
H86   H     H_    0.647170 0.647403 0.176895 0.257706
H87   H     H_    0.618029 0.600725 0.066825 0.263897
H88   H     H_    0.696183 0.579283 0.208243 0.247104
H89   H     H_    0.787791 0.599200 0.136873 0.203899
H90   H     H_    0.252654 0.730392 0.046895 0.136120
H91   H     H_    0.814149 0.649836 0.238772 0.171633
H92   H     H_    0.852697 0.147449 0.822943 0.257675
H93   H     H_    0.881932 0.100765 0.933053 0.263873
H94   H     H_    0.803715 0.079323 0.791648 0.247104
H95   H     H_    0.712202 0.099219 0.863140 0.203901
H96   H     H_    0.685766 0.149867 0.761217 0.171631
H97   H     H_    0.141089 0.140564 0.150015 0.257992
H98   H     H_    0.121550 0.100343 0.036335 0.262022
H99   H     H_    0.192090 0.073193 0.174279 0.251174
H100  H     H_    0.294536 0.102427 0.123351 0.208053
N1    N     N_R   0.892320 0.603520 0.941090 -0.042480
N2    N     N_R   0.973240 0.529450 0.794410 -0.038335
N3    N     N_R   0.526760 0.029450 0.205590 -0.038348
N4    N     N_R   0.473240 0.029450 0.794410 -0.039829
N5    N     N_R   0.819350 0.473090 0.793940 -0.039952
N6    N     N_R   0.180650 0.473090 0.206060 -0.041732
N7    N     N_R   0.319350 0.973090 0.793940 -0.041722
N8    N     N_R   0.680650 0.973090 0.206060 -0.039965
N9    N     N_R   0.027860 0.473090 0.206590 -0.043565
N10   N     N_R   0.972140 0.473090 0.793410 -0.043289
N11   N     N_R   0.527860 0.973090 0.206590 -0.043293
N12   N     N_R   0.107680 0.603520 0.058910 -0.040985
N13   N     N_R   0.472140 0.973090 0.793410 -0.043565
N14   N     N_R   0.818250 0.529450 0.792940 -0.035558
N15   N     N_R   0.181750 0.529450 0.207060 -0.037257
N16   N     N_R   0.318250 0.029450 0.792940 -0.037242
N17   N     N_R   0.681750 0.029450 0.207060 -0.035569
N18   N     N_R   0.896320 0.399020 0.944720 -0.042993
N19   N     N_R   0.103680 0.399020 0.055280 -0.041770
N20   N     N_R   0.396320 0.899020 0.944720 -0.041774
N21   N     N_R   0.603680 0.899020 0.055280 -0.042993
N22   N     N_R   0.949790 0.603520 0.054810 -0.042342
N23   N     N_R   0.392320 0.103520 0.941090 -0.040993
N24   N     N_R   0.050210 0.603520 0.945190 -0.040325
N25   N     N_R   0.449790 0.103520 0.054810 -0.040345
N26   N     N_R   0.550210 0.103520 0.945190 -0.042345
N27   N     N_R   0.607680 0.103520 0.058910 -0.042478
N28   N     N_R   0.953790 0.399020 0.058440 -0.040631
N29   N     N_R   0.046210 0.399020 0.941560 -0.038617
N30   N     N_R   0.453790 0.899020 0.058440 -0.038611
N31   N     N_R   0.546210 0.899020 0.941560 -0.040627
N32   N     N_R   0.026760 0.529450 0.205590 -0.039824
Ni1   Ni    Ni4+2 0.934100 0.565890 0.869590 0.211284
Ni2   Ni    Ni4+2 0.065900 0.565890 0.130410 0.208743
Ni3   Ni    Ni4+2 0.434100 0.065890 0.869590 0.208745
Ni4   Ni    Ni4+2 0.565900 0.065890 0.130410 0.211279
Ni5   Ni    Ni4+2 0.068420 0.436630 0.132700 0.203066
Ni6   Ni    Ni4+2 0.931580 0.436630 0.867300 0.205714
Ni7   Ni    Ni4+2 0.568420 0.936630 0.132700 0.205714
Ni8   Ni    Ni4+2 0.431580 0.936630 0.867300 0.203061

loop_
_geom_bond_atom_site_label_1
_geom_bond_atom_site_label_2
_ccdc_geom_bond_type
C3    C104  S    
C88   N26   A    
C12   C69   A    
C13   C79   A    
C70   H36   S    
C16   C21   S    
N22   Ni2   S    
N30   Ni7   S    
C55   C59   D    
C74   N11   A    
C27   C29   S    
C33   C104  S    
C70   N8    A    
C54   C55   S    
C51   C61   S    
C74   H39   S    
C68   N6    A    
C46   H25   S    
N18   Ni6   S    
C101  H77   S    
C57   C62   D    
C71   C94   A    
C10   C67   A    
C6    C35   S    
C6    H100  S    
N7    N16   A    
C18   C25   S    
C63   C94   A    
C58   H19   S    
N12   N24   A    
C8    C74   A    
C52   C72   S    
C86   N24   A    
C32   C36   D    
N15   Ni2   S    
C60   H21   S    
C45   H23   S    
N8    Ni7   S    
C87   C91   A    
C30   C31   S    
C22   H58   S    
C43   C52   D    
C82   N20   A    
C13   C70   A    
C75   N13   A    
N32   Ni2   S    
C38   C92   S    
C69   H34   S    
C102  H85   S    
C97   H65   S    
C56   C57   S    
N4    Ni3   S    
C28   C91   A    
C14   C24   S    
C35   C42   S    
N20   N30   A    
C9    C66   A    
N19   N29   A    
C7    H99   S    
C11   C77   A    
C78   N16   A    
C63   N32   A    
C24   C29   S    
C10   C76   A    
C44   C53   D    
C32   C43   S    
C4    H95   S    
C99   H72   S    
C20   C24   S    
C76   N14   A    
C96   H67   S    
C12   C78   A    
C14   C19   S    
C104  H89   S    
C48   H27   S    
N4    N13   A    
C45   N28   A    
C23   C27   S    
C98   H74   S    
C17   N12   A    
C1    N1    A    
C65   H30   S    
C17   H13   S    
C42   C51   D    
C71   H37   S    
C47   N30   A    
N2    N10   A    
C15   C23   S    
C49   H10   S    
C57   H18   S    
N18   N28   A    
C8    C65   A    
C93   C95   S    
C18   C22   S    
C54   H15   S    
C19   H54   S    
C13   C25   S    
C68   H33   S    
C80   H45   S    
C103  H82   S    
N8    N17   A    
C84   N21   A    
C95   H61   S    
C28   N23   A    
C41   C49   D    
C2    C64   A    
C79   N17   A    
C6    C7    S    
C4    C34   S    
C55   H16   S    
C52   H12   S    
C16   C26   S    
C15   C20   S    
C81   N19   A    
C39   H35   S    
C96   H69   S    
N17   Ni4   S    
C35   C40   D    
N28   Ni5   S    
N21   N31   A    
C46   N29   A    
C88   C92   A    
C103  H83   S    
C53   C83   S    
C86   C90   A    
C3    H86   S    
C62   H22   S    
C85   C89   A    
C53   H14   S    
N20   Ni8   S    
C5    H93   S    
C46   C61   A    
C10   C24   S    
C71   N9    A    
C5    H94   S    
C73   H38   S    
C20   H55   S    
C51   H11   S    
C97   H66   S    
C56   C60   D    
C12   C26   S    
N27   Ni4   S    
C98   H73   S    
C31   C100  S    
C19   C23   S    
C42   H7    S    
C39   N27   A    
C101  H75   S    
C3    H87   S    
C103  H81   S    
C21   C31   S    
C84   H49   S    
C16   H68   S    
C83   C84   A    
C4    H96   S    
C6    H3    S    
N23   Ni3   S    
C96   C97   S    
C14   H46   S    
N3    N11   A    
C99   H71   S    
N1    N22   A    
N16   Ni3   S    
C86   H51   S    
C88   H53   S    
N25   Ni4   S    
N1    Ni1   S    
C40   H5    S    
C2    C73   A    
N3    Ni4   S    
C5    H92   S    
C69   N7    A    
C78   H43   S    
C16   C18   S    
C2    C59   S    
C93   H62   S    
C49   C50   S    
C41   H6    S    
C66   N4    A    
C47   H26   S    
C59   H20   S    
C21   H56   S    
C32   C102  S    
C73   N10   A    
C27   C93   S    
N21   Ni7   S    
C43   H8    S    
N5    N14   A    
C19   C29   S    
C39   C92   A    
C100  H78   S    
C11   C68   A    
N9    N32   A    
C54   C58   D    
C36   C90   S    
C25   C30   S    
C21   C25   S    
C64   H29   S    
C1    C89   A    
C22   C30   S    
N23   N25   A    
C34   C38   D    
C33   C44   S    
N7    Ni8   S    
C15   H57   S    
C77   N15   A    
C17   C90   A    
N6    Ni5   S    
C4    C5    S    
C50   C80   A    
N5    Ni6   S    
C76   H41   S    
C29   C96   S    
C79   H44   S    
C65   N3    A    
C20   C27   S    
C7    H98   S    
C97   H64   S    
C30   C98   S    
N11   Ni7   S    
C9    C62   S    
C48   C83   A    
C37   C89   S    
C95   H59   S    
N10   Ni6   S    
N12   Ni2   S    
C56   H17   S    
C36   H90   S    
N9    Ni5   S    
C67   H32   S    
C58   C94   S    
N13   Ni8   S    
C37   H2    S    
C34   C41   S    
C101  H76   S    
C87   N25   A    
C3    H88   S    
C8    C60   S    
C45   C50   A    
N24   Ni1   S    
C44   H9    S    
C99   H70   S    
C64   N2    A    
C18   H79   S    
N19   Ni5   S    
C77   H42   S    
C11   C23   S    
C100  C101  S    
C104  H91   S    
C63   H28   S    
C67   N5    A    
N2    Ni1   S    
C85   H50   S    
C40   C91   S    
C38   H4    S    
N26   N27   A    
C100  H80   S    
C33   C37   D    
N31   Ni8   S    
C102  C103  S    
C48   N31   A    
C82   H48   S    
C75   H40   S    
N6    N15   A    
C80   N18   A    
C66   H31   S    
N29   Ni6   S    
C26   C31   S    
C81   H47   S    
C47   C72   A    
C93   H63   S    
C7    H97   S    
C98   C99   S    
C22   C26   S    
C1    H1    S    
C14   C15   S    
C61   C81   A    
C85   N22   A    
C9    C75   A    
N14   Ni1   S    
C102  H84   S    
C95   H60   S    
C87   H52   S    
C72   C82   A    
C28   H24   S    
N26   Ni3   S    
