data_mof_unit_11879.cif
_audit_creation_date              2012-12-11T20:41:36-0500
_audit_creation_method            fapswitch 2.2
_symmetry_space_group_name_H-M    P1
_symmetry_Int_Tables_number       1
_space_group_crystal_system       triclinic
_cell_length_a                    8.32036
_cell_length_b                    18.967201
_cell_length_c                    26.96592
_cell_angle_alpha                 98.122368
_cell_angle_beta                  92.108785
_cell_angle_gamma                 86.221822
_cell_volume                      4202.12444238

loop_
_atom_site_label
_atom_site_type_symbol
_atom_type_description
_atom_site_fract_x
_atom_site_fract_y
_atom_site_fract_z
_atom_type_partial_charge
Ba1   Ba    Ba6+2 0.852670 0.466460 0.522850 1.662218
Ba2   Ba    Ba6+2 0.337150 0.533490 0.477140 1.639599
C1    C     C_3   0.491964 0.254425 0.687680 -0.316208
C2    C     C_R   0.874308 0.546557 0.176087 0.580774
C3    C     C_2   0.735358 0.506951 0.270815 -0.039660
C4    C     C_3   0.071431 0.296717 0.650658 0.328472
C5    C     C_3   0.696475 0.507591 0.325610 -0.060767
C6    C     C_1   0.981813 0.484856 0.342148 0.044540
C7    C     C_2   0.019662 0.482446 0.294379 -0.096970
C8    C     C_2   0.889490 0.494069 0.255212 0.221504
C9    C     C_R   0.999692 0.485945 0.099492 -0.071861
C10   C     C_R   0.046522 0.427293 0.125055 -0.108090
C11   C     C_R   0.122949 0.365278 0.097320 -0.052889
C12   C     C_3   0.563682 0.296491 0.650526 0.449965
C13   C     C_R   0.913905 0.545670 0.125441 -0.005845
C14   C     C_2   0.845650 0.516916 0.358646 -0.276472
C15   C     C_2   0.344505 0.479874 0.639940 -0.295027
C16   C     C_3   0.045788 0.261953 0.696990 -0.352168
C17   C     C_R   0.178622 0.429531 0.972126 0.036705
C18   C     C_R   0.006115 0.538924 0.969765 0.032612
C19   C     C_R   0.110453 0.483976 0.945411 0.036095
C20   C     C_R   0.299539 0.382046 0.948210 -0.068474
C21   C     C_R   0.334044 0.381468 0.897871 -0.059023
C22   C     C_R   0.256505 0.431252 0.869811 -0.010839
C23   C     C_3   0.554875 0.649388 0.635360 0.255170
C24   C     C_R   0.147413 0.483733 0.893897 -0.078641
C25   C     C_R   0.075312 0.536066 0.866577 -0.057829
C26   C     C_R   0.123025 0.538659 0.816950 0.636260
C27   C     C_R   0.290172 0.431114 0.818691 0.631439
C28   C     C_3   0.184986 0.318987 0.416251 0.242089
C29   C     C_2   0.443151 0.486765 0.730163 -0.069879
C30   C     C_3   0.487502 0.489349 0.675666 -0.091144
C31   C     C_1   0.203725 0.507641 0.655185 0.109790
C32   C     C_2   0.159787 0.501943 0.701360 -0.088957
C33   C     C_2   0.283426 0.490928 0.742303 0.230669
C34   C     C_3   0.568573 0.683378 0.690950 -0.233030
C35   C     C_R   0.127179 0.425807 0.021978 0.032331
C36   C     C_R   0.038273 0.485437 0.048045 0.014209
C37   C     C_R   0.987415 0.544842 0.022854 0.028065
C38   C     C_R   0.155273 0.363621 0.045872 0.110579
C39   C     C_R   0.875425 0.605548 0.101286 -0.105624
C40   C     C_3   0.211779 0.238336 0.402322 -0.241925
C41   C     C_R   0.919174 0.584350 0.939549 -0.013777
C42   C     C_R   0.956373 0.584465 0.889508 -0.007592
C43   C     C_R   0.920386 0.607742 0.052166 -0.063487
C44   C     C_2   0.411959 0.302209 0.520814 -0.245885
C45   C     C_3   0.015085 0.686775 0.344651 0.259447
C46   C     C_3   0.330025 0.256092 0.551827 -0.008122
C47   C     C_2   0.374116 0.177328 0.538876 -0.096544
C48   C     C_2   0.503198 0.154287 0.510384 -0.051682
C49   C     C_2   0.586892 0.207593 0.486323 -0.116908
C50   C     C_1   0.533760 0.275815 0.492469 0.070107
C51   C     C_R   0.671387 0.937960 0.499459 0.487303
C52   C     C_3   0.067412 0.694956 0.598951 0.325294
C53   C     C_R   0.565664 0.078240 0.506234 0.462276
C54   C     C_R   0.617612 0.812390 0.514351 0.091544
C55   C     C_R   0.662063 0.738174 0.508662 0.072250
C56   C     C_3   0.044552 0.693186 0.289909 -0.096367
C57   C     C_R   0.902657 0.758008 0.465816 0.008746
C58   C     C_R   0.858796 0.831304 0.469976 -0.162881
C59   C     C_R   0.716324 0.859509 0.494273 -0.041148
C60   C     C_R   0.801386 0.712151 0.483364 -0.265246
C61   C     C_3   0.144600 0.765282 0.618607 -0.221327
C62   C     C_3   0.637048 0.367626 0.367434 0.218966
C63   C     C_3   0.584484 0.343616 0.312945 -0.272735
C64   C     C_2   0.057817 0.205447 0.383654 0.581234
C65   C     C_2   0.098262 0.822629 0.586727 0.479541
C66   C     C_2   0.711972 0.294379 0.286347 0.556470
C67   C     C_3   0.514638 0.714728 0.362997 0.277829
C68   C     C_2   0.405101 0.704241 0.712296 0.435032
C69   C     C_2   0.666921 0.637809 0.723471 0.432860
C70   C     C_2   0.161292 0.298966 0.120235 0.570715
C71   C     C_2   0.575858 0.490885 0.768932 0.548476
C72   C     C_2   0.917128 0.679990 0.037001 0.493881
C73   C     C_3   0.540826 0.786928 0.345369 0.102787
C74   C     C_R   0.013503 0.432551 0.177427 0.618928
H1    H     H_    0.304651 0.226715 0.373104 0.130250
H2    H     H_    0.471191 0.315461 0.312112 0.110034
H3    H     H_    0.461401 0.324289 0.632097 -0.034318
H4    H     H_    0.414622 0.213575 0.667449 0.083349
H5    H     H_    0.440314 0.622314 0.627397 0.007597
H6    H     H_    0.656191 0.609422 0.626069 0.079416
H7    H     H_    0.633033 0.733265 0.693070 0.093168
H8    H     H_    0.417577 0.291029 0.714704 0.142112
H9    H     H_    0.084399 0.297690 0.731016 0.094017
H10   H     H_    0.053044 0.631060 0.349770 0.043911
H11   H     H_    0.884815 0.697120 0.352364 0.004247
H12   H     H_    0.257108 0.214189 0.435665 0.002692
H13   H     H_    0.174764 0.682009 0.282225 0.116623
H14   H     H_    0.977990 0.652243 0.265639 0.131449
H15   H     H_    0.573408 0.714905 0.400690 -0.008425
H16   H     H_    0.384337 0.708911 0.365607 0.110588
H17   H     H_    0.671646 0.796085 0.348977 0.096011
H18   H     H_    0.996642 0.347374 0.652988 0.104713
H19   H     H_    0.144686 0.473856 0.283836 0.123343
H20   H     H_    0.425616 0.342850 0.881330 0.124142
H21   H     H_    0.374842 0.346577 0.968294 0.106075
H22   H     H_    0.637045 0.512356 0.243757 0.108077
H23   H     H_    0.121203 0.671746 0.562820 0.068587
H24   H     H_    0.819478 0.653462 0.122121 0.123536
H25   H     H_    0.819774 0.619899 0.953977 0.073126
H26   H     H_    0.199845 0.309127 0.651019 -0.078100
H27   H     H_    0.890642 0.622545 0.868692 0.132439
H28   H     H_    0.035799 0.512876 0.711506 0.178188
H29   H     H_    0.840155 0.547411 0.395728 0.066706
H30   H     H_    0.359458 0.455852 0.601265 0.068447
H31   H     H_    0.311050 0.140528 0.557424 0.103577
H32   H     H_    0.692978 0.190288 0.464457 0.104050
H33   H     H_    0.937428 0.866313 0.455448 0.106766
H34   H     H_    0.107402 0.783710 0.657775 0.143870
H35   H     H_    0.383047 0.359281 0.527990 0.064754
H36   H     H_    0.916703 0.252212 0.700015 0.141650
H37   H     H_    0.836632 0.655748 0.480059 0.062512
H38   H     H_    0.118398 0.210376 0.695016 0.126944
H39   H     H_    0.301641 0.341206 0.428441 -0.000512
H40   H     H_    0.100300 0.330556 0.447586 0.076179
H41   H     H_    0.708609 0.276183 0.589505 0.214119
H42   H     H_    0.741097 0.217681 0.630739 0.207987
H43   H     H_    0.956278 0.208839 0.408235 0.019883
H44   H     H_    0.847895 0.730494 0.625782 0.220261
H45   H     H_    0.277059 0.756176 0.619434 0.067434
H46   H     H_    0.852634 0.659085 0.581218 0.156211
H47   H     H_    0.124383 0.814334 0.547285 0.010787
H48   H     H_    0.747671 0.244072 0.299498 0.067384
H49   H     H_    0.362871 0.759957 0.718496 0.036490
H50   H     H_    0.620764 0.627550 0.758707 0.061254
H51   H     H_    0.054779 0.802444 0.300269 0.220317
H52   H     H_    0.869411 0.773404 0.284348 0.198499
H53   H     H_    0.492838 0.844984 0.414075 0.153388
H54   H     H_    0.331286 0.837317 0.374784 0.210199
H55   H     H_    0.371061 0.771648 0.287845 0.191936
H56   H     H_    0.763713 0.383052 0.369543 -0.005420
H57   H     H_    0.562823 0.751246 0.269989 0.220357
H58   H     H_    0.066260 0.274272 0.137118 0.064386
H59   H     H_    0.697288 0.471641 0.758900 0.025245
H60   H     H_    0.106584 0.260655 0.019963 0.181273
H61   H     H_    0.306286 0.274918 0.029119 0.220638
H62   H     H_    0.822732 0.719707 0.050040 0.010773
H63   H     H_    0.421606 0.804210 0.558087 0.190696
H64   H     H_    0.390556 0.856823 0.513169 0.191977
H65   H     H_    0.556915 0.414179 0.382279 0.075002
H66   H     H_    0.589029 0.227307 0.708798 0.129268
H67   H     H_    0.557415 0.390343 0.292848 0.074375
N1    N     N_R   0.926740 0.491092 0.202061 -0.423525
N2    N     N_3   0.454579 0.845560 0.376789 -0.454008
N3    N     N_3   0.488897 0.787837 0.292953 -0.438539
N4    N     N_3   0.195632 0.295871 0.016222 -0.506309
N5    N     N_3   0.474244 0.841234 0.539990 -0.456917
N6    N     N_R   0.231395 0.486834 0.793354 -0.415858
N7    N     N_R   0.579835 0.969584 0.538021 -0.192667
N8    N     N_R   0.527751 0.037812 0.541270 -0.230428
N9    N     N_R   0.662196 0.047703 0.468380 -0.229757
N10   N     N_R   0.713531 0.978870 0.464948 -0.234881
N11   N     N_3   0.651339 0.246969 0.612921 -0.498631
N12   N     N_3   0.896840 0.709208 0.591294 -0.524201
N13   N     N_3   0.992180 0.763658 0.277242 -0.462339
O1    O     O_2   0.914730 0.537460 0.618690 -0.444899
O2    O     O_2   0.242341 0.751702 0.465097 -0.513134
O3    O     O_3   0.106415 0.735456 0.376037 -0.624516
O4    O     O_3   0.146720 0.537410 0.558510 -0.506808
O5    O     O_3   0.553920 0.415280 0.473710 -0.493031
O6    O     O_2   0.383540 0.672140 0.526840 -0.473948
O7    O     O_3   0.560076 0.705037 0.606579 -0.658730
O8    O     O_2   0.368027 0.561690 0.325580 -0.507141
O9    O     O_3   0.581964 0.658292 0.329229 -0.626345
O10   O     O_2   0.061383 0.384892 0.201139 -0.562663
O11   O     O_2   0.373547 0.381680 0.796901 -0.620797
O12   O     O_3   0.625267 0.310376 0.394128 -0.650310
O13   O     O_2   0.794532 0.597602 0.197298 -0.601673
O14   O     O_2   0.070279 0.588010 0.795269 -0.526313
O15   O     O_3   0.666360 0.409390 0.586570 -0.479311
O16   O     O_2   0.816738 0.455952 0.671239 -0.491792
O17   O     O_3   0.089873 0.649493 0.635591 -0.572073
O18   O     O_3   0.669280 0.344358 0.676801 -0.609549
O19   O     O_2   0.806150 0.327840 0.473120 -0.459374
O20   O     O_3   0.073640 0.373350 0.561550 -0.497402
O21   O     O_2   0.015517 0.245766 0.509370 -0.497956
O22   O     O_2   0.045490 0.175070 0.340742 -0.545681
O23   O     O_3   0.026944 0.250963 0.607289 -0.591676
O24   O     O_2   0.030647 0.878842 0.604977 -0.539266
O25   O     O_2   0.776223 0.310414 0.249897 -0.528604
O26   O     O_2   0.317750 0.659169 0.721924 -0.543747
O27   O     O_2   0.803632 0.615967 0.712329 -0.531335
O28   O     O_2   0.300121 0.272682 0.121428 -0.548723
O29   O     O_2   0.553268 0.519028 0.811881 -0.584269
O30   O     O_2   0.024804 0.697133 0.012473 -0.546932
O31   O     O_2   0.274960 0.462520 0.381280 -0.483033
O32   O     O_3   0.042980 0.462530 0.441480 -0.489438
O33   O     O_3   0.523340 0.590550 0.413420 -0.472426
O34   O     O_3   0.123258 0.348539 0.374272 -0.614298
O35   O     O_3   0.635780 0.584660 0.526290 -0.482213
O36   O     O_3   0.116060 0.626590 0.438450 -0.476122
P1    P     P_3+3 0.084800 0.558370 0.611580 1.059114
P2    P     P_3+3 0.628800 0.338360 0.458800 0.977987
P3    P     P_3+3 0.110085 0.280637 0.555905 0.941642
P4    P     P_3+3 0.104900 0.441570 0.388420 1.010855
P5    P     P_3+3 0.092505 0.718868 0.437768 0.925290
P6    P     P_3+3 0.656245 0.425256 0.652079 0.937667
P7    P     P_3+3 0.564947 0.674506 0.542291 0.938176
P8    P     P_3+3 0.538239 0.577048 0.348227 0.954595

loop_
_geom_bond_atom_site_label_1
_geom_bond_atom_site_label_2
_ccdc_geom_bond_type
C19   C24   A    
Ba1   O20   S    
C51   N10   A    
C4    O23   S    
H46   N12   S    
Ba2   O33   S    
Ba2   O6    S    
C53   N9    A    
C47   H31   S    
O23   P3    S    
C73   N2    S    
C72   H62   S    
C61   H34   S    
C73   H17   S    
C24   C25   A    
O1    P1    D    
C52   O17   S    
C17   C19   A    
O35   P7    S    
C32   C33   S    
O15   P6    S    
C65   O24   D    
C36   C37   A    
C63   H67   S    
C3    H22   S    
C29   C71   S    
C62   H65   S    
C34   H7    S    
C44   C50   D    
C23   O7    S    
O2    P5    D    
C21   H20   S    
H55   N3    S    
Ba1   Ba2   S    
C5    P8    S    
Ba2   O31   S    
C11   C38   A    
C30   P6    S    
C58   H33   S    
C17   C35   A    
C22   C27   A    
C9    C13   A    
C25   C42   A    
C68   O26   D    
C71   H59   S    
Ba2   O4    S    
C6    C7    D    
C4    H18   S    
C21   C22   A    
C69   H50   S    
C74   O10   D    
C67   H16   S    
C7    C8    S    
C7    H19   S    
O19   P2    D    
H53   N2    S    
C66   O25   D    
C34   C69   S    
O34   P4    S    
C37   C43   A    
C28   O34   S    
C31   P1    S    
C26   N6    Am   
C6    C14   D    
C20   H21   S    
O12   P2    S    
C44   H35   S    
C12   N11   S    
H54   N2    S    
C23   H5    S    
H64   N5    S    
C1    H66   S    
C15   C31   D    
C1    H4    S    
C16   H36   S    
Ba2   O5    S    
C61   H45   S    
C42   H27   S    
C34   C68   S    
C31   C32   D    
C44   C46   S    
C28   H39   S    
C73   N3    S    
C4    C16   S    
C61   C65   S    
H63   N5    S    
O18   P6    S    
O31   P4    D    
C2    O13   D    
C49   C50   D    
C16   H9    S    
C45   H10   S    
C62   H56   S    
C55   C60   A    
C17   C20   A    
C50   P2    S    
Ba2   O35   S    
C70   O28   D    
C60   H37   S    
O9    P8    S    
C52   N12   S    
C3    C5    S    
C18   C37   A    
C49   H32   S    
C45   O3    S    
C1    H8    S    
C12   H3    S    
C27   N6    Am   
O6    P7    D    
Ba1   O15   S    
H44   N12   S    
C32   H28   S    
C28   H40   S    
C58   C59   A    
C45   H11   S    
C54   N5    S    
C9    C36   A    
Ba1   P1    S    
C41   C42   A    
C41   H25   S    
C35   C36   A    
C69   O27   D    
C64   O22   D    
C6    P4    S    
C70   H58   S    
C29   C30   S    
O3    P5    S    
C63   C66   S    
C66   H48   S    
C18   C19   A    
C48   C49   S    
C39   H24   S    
C54   C59   A    
C8    N1    S    
O36   P5    S    
C10   C11   A    
O16   P6    D    
C56   H14   S    
C13   C39   A    
C1    C12   S    
C56   N13   S    
C14   H29   S    
C74   N1    Am   
O33   P8    S    
C26   O14   D    
C46   C47   S    
Ba2   O32   S    
C64   H43   S    
Ba1   O5    S    
C46   P3    S    
O17   P1    S    
C23   H6    S    
C29   C33   D    
C52   H23   S    
C40   H12   S    
C54   C55   A    
C67   C73   S    
C51   C59   S    
Ba1   O35   S    
C25   C26   A    
C18   C41   A    
C16   H38   S    
C68   H49   S    
Ba1   O32   S    
Ba1   O19   S    
C57   C60   A    
C63   H2    S    
O21   P3    D    
C38   N4    S    
N7    N8    A    
C28   C40   S    
H61   N4    S    
Ba1   O4    S    
C5    C14   S    
C22   C24   A    
Ba2   O36   S    
C65   H47   S    
H51   N13   S    
C2    N1    Am   
C71   O29   D    
C9    C10   A    
C53   N8    A    
C11   C70   S    
C35   C38   A    
C48   C53   S    
C62   C63   S    
C27   O11   D    
C2    C13   A    
C10   C74   A    
Ba1   P2    S    
C3    C8    D    
C12   O18   S    
C15   H30   S    
C45   C56   S    
C51   N7    A    
C57   P5    S    
Ba1   O1    S    
O5    P2    S    
H42   N11   S    
Ba2   P4    S    
C4    H26   S    
O20   P3    S    
C56   H13   S    
C67   O9    S    
H60   N4    S    
H52   N13   S    
C23   C34   S    
O7    P7    S    
C57   C58   A    
N9    N10   A    
O32   P4    S    
C40   H1    S    
C62   O12   S    
C47   C48   D    
C52   C61   S    
H41   N11   S    
C40   C64   S    
C15   C30   S    
C39   C43   A    
C20   C21   A    
C43   C72   S    
H57   N3    S    
C33   N6    S    
C67   H15   S    
C55   P7    S    
O8    P8    D    
O4    P1    S    
C72   O30   D    
