data_mof_unit_34769.cif
_audit_creation_date              2012-12-10T22:11:15-0500
_audit_creation_method            fapswitch 2.2
_symmetry_space_group_name_H-M    P1
_symmetry_Int_Tables_number       1
_space_group_crystal_system       triclinic
_cell_length_a                    12.102717
_cell_length_b                    12.297112
_cell_length_c                    23.021451
_cell_angle_alpha                 90.846928
_cell_angle_beta                  90.646765
_cell_angle_gamma                 90.403842
_cell_volume                      3425.56547586

loop_
_atom_site_label
_atom_site_type_symbol
_atom_type_description
_atom_site_fract_x
_atom_site_fract_y
_atom_site_fract_z
_atom_type_partial_charge
C1    C     C_R   0.656769 0.998098 0.579470 0.870284
C2    C     C_R   0.343231 0.001902 0.420530 0.870283
C3    C     C_R   0.895502 0.806943 0.129822 -0.144821
C4    C     C_R   0.104497 0.193056 0.870178 -0.144821
C5    C     C_R   0.088589 0.848322 0.194498 -0.174030
C6    C     C_R   0.911411 0.151678 0.805502 -0.174029
C7    C     C_R   0.087305 0.767939 0.152198 -0.171249
C8    C     C_R   0.912695 0.232061 0.847802 -0.171249
C9    C     C_R   0.906022 0.172864 0.202263 -0.180547
C10   C     C_R   0.093977 0.827136 0.797737 -0.180548
C11   C     C_R   0.909475 0.258680 0.163742 0.136797
C12   C     C_R   0.090524 0.741320 0.836258 0.136797
C13   C     C_R   0.112532 0.910517 0.322936 -0.165373
C14   C     C_R   0.887468 0.089483 0.677064 -0.165372
C15   C     C_R   0.194789 0.909388 0.364933 -0.196544
C16   C     C_R   0.805211 0.090612 0.635066 -0.196544
C17   C     C_R   0.882811 0.095814 0.326856 -0.164396
C18   C     C_R   0.117189 0.904186 0.673143 -0.164396
C19   C     C_R   0.802437 0.095399 0.368864 -0.200722
C20   C     C_R   0.197563 0.904601 0.631136 -0.200722
C21   C     C_3   0.994683 0.005074 0.248548 -0.067997
C22   C     C_3   0.005317 0.994926 0.751452 -0.067997
C23   C     C_R   0.654724 0.001497 0.420853 0.870803
C24   C     C_R   0.345276 0.998503 0.579147 0.870803
C25   C     C_R   0.094440 0.003996 0.289535 0.121547
C26   C     C_R   0.905559 0.996004 0.710465 0.121547
C27   C     C_R   0.258364 0.002838 0.375794 -0.024900
C28   C     C_R   0.741636 0.997161 0.624206 -0.024900
C29   C     C_R   0.897751 0.004460 0.290142 0.129680
C30   C     C_R   0.102249 0.995540 0.709858 0.129680
C31   C     C_R   0.738486 0.001979 0.376734 -0.019778
C32   C     C_R   0.261514 0.998021 0.623266 -0.019778
C33   C     C_R   0.996041 0.102802 0.208481 -0.011669
C34   C     C_R   0.003959 0.897198 0.791519 -0.011669
C35   C     C_R   0.999318 0.266701 0.124761 -0.204694
C36   C     C_R   0.000682 0.733299 0.875239 -0.204693
C37   C     C_R   0.992490 0.908174 0.206370 0.109590
C38   C     C_R   0.007510 0.091826 0.793630 0.109590
C39   C     C_R   0.990937 0.746566 0.119845 -0.026569
C40   C     C_R   0.009063 0.253434 0.880155 -0.026569
C41   C     C_R   0.992561 0.661728 0.075605 0.885643
C42   C     C_R   0.007439 0.338272 0.924395 0.885643
C43   C     C_R   0.999334 0.351242 0.080738 0.923828
C44   C     C_R   0.000666 0.648758 0.919262 0.923829
C45   C     C_R   0.158197 0.098222 0.301565 -0.173817
C46   C     C_R   0.841802 0.901778 0.698435 -0.173816
C47   C     C_R   0.239883 0.097200 0.344089 -0.189250
C48   C     C_R   0.760117 0.902800 0.655911 -0.189251
C49   C     C_R   0.835470 0.909381 0.300287 -0.192697
C50   C     C_R   0.164530 0.090619 0.699713 -0.192696
C51   C     C_R   0.755723 0.908772 0.342746 -0.191831
C52   C     C_R   0.244277 0.091228 0.657254 -0.191831
C53   C     C_R   0.086437 0.114522 0.171528 -0.224170
C54   C     C_R   0.913563 0.885478 0.828472 -0.224170
C55   C     C_R   0.087093 0.190925 0.128005 0.421074
C56   C     C_R   0.912907 0.809075 0.871995 0.421075
C57   C     C_R   0.897081 0.888863 0.171853 -0.157877
C58   C     C_R   0.102919 0.111137 0.828147 -0.157876
H1    H     H_    0.287903 0.170559 0.352457 0.157955
H2    H     H_    0.712097 0.829441 0.647543 0.157955
H3    H     H_    0.850050 0.833735 0.277283 0.141339
H4    H     H_    0.149950 0.166265 0.722717 0.141339
H5    H     H_    0.155085 0.059143 0.175251 0.206742
H6    H     H_    0.844915 0.940857 0.824749 0.206743
H7    H     H_    0.823805 0.937732 0.177655 0.151037
H8    H     H_    0.176195 0.062268 0.822345 0.151037
H9    H     H_    0.166716 0.865369 0.216036 0.153196
H10   H     H_    0.833284 0.134631 0.783964 0.153196
H11   H     H_    0.831332 0.161149 0.226638 0.162261
H12   H     H_    0.168668 0.838851 0.773361 0.162261
H13   H     H_    0.061749 0.838346 0.316640 0.138660
H14   H     H_    0.938251 0.161654 0.683360 0.138660
H15   H     H_    0.934065 0.167810 0.322865 0.141080
H16   H     H_    0.065935 0.832190 0.677135 0.141080
H17   H     H_    0.708184 0.835046 0.349220 0.157263
H18   H     H_    0.291816 0.164954 0.650780 0.157263
H19   H     H_    0.820774 0.792450 0.104482 0.189784
H20   H     H_    0.179226 0.207550 0.895517 0.189785
H21   H     H_    0.162608 0.723035 0.144618 0.166415
H22   H     H_    0.837391 0.276965 0.855382 0.166415
H23   H     H_    0.206838 0.836177 0.389758 0.156293
H24   H     H_    0.793162 0.163823 0.610242 0.156293
H25   H     H_    0.791961 0.167366 0.395897 0.156312
H26   H     H_    0.208039 0.832634 0.604103 0.156312
H27   H     H_    0.143223 0.174230 0.279954 0.145604
H28   H     H_    0.856777 0.825770 0.720047 0.145604
O1    O     O_R   0.621380 0.090460 0.561410 -0.629723
O2    O     O_R   0.378620 0.909540 0.438590 -0.629722
O3    O     O_R   0.617150 0.909540 0.438590 -0.627414
O4    O     O_R   0.382850 0.090460 0.561410 -0.627414
O5    O     O_R   0.619720 0.093230 0.440890 -0.629931
O6    O     O_R   0.380280 0.906770 0.559110 -0.629932
O7    O     O_R   0.618800 0.906770 0.559110 -0.626416
O8    O     O_R   0.381200 0.093230 0.440890 -0.626416
O9    O     O_R   0.087590 0.627480 0.058790 -0.634164
O10   O     O_R   0.912410 0.372520 0.941210 -0.634164
O11   O     O_R   0.905660 0.383870 0.059980 -0.629464
O12   O     O_R   0.094340 0.616130 0.940020 -0.629464
O13   O     O_R   0.092570 0.390420 0.063230 -0.552477
O14   O     O_R   0.907430 0.609580 0.936770 -0.552477
O15   O     O_R   0.900680 0.620930 0.055550 -0.600345
O16   O     O_R   0.099320 0.379070 0.944450 -0.600345
Zn1   Zn    Zn3+2 0.501730 0.123520 0.501540 0.945187
Zn2   Zn    Zn3+2 0.498270 0.876480 0.498460 0.945187
Zn3   Zn    Zn3+2 0.125690 0.504390 0.002180 1.042048
Zn4   Zn    Zn3+2 0.874310 0.495610 0.997820 1.042048
S1    S     S_3+6 0.194793 0.180028 0.076426 0.026996
O17   O     O_2   0.147302 0.186831 0.016031 -0.310529
O18   O     O_2   0.277068 0.270661 0.086557 -0.293379
O19   O     O_3   0.260081 0.060376 0.082930 -0.564892
H29   H     H_    0.317118 0.060698 0.052410 0.386586
S2    S     S_3+6 0.805207 0.819972 0.923574 0.026996
O20   O     O_2   0.722933 0.729339 0.913443 -0.293378
O21   O     O_2   0.852698 0.813169 0.983969 -0.310531
O22   O     O_3   0.739919 0.939624 0.917070 -0.564892
H30   H     H_    0.682884 0.939303 0.947591 0.386586
C59   C     C_3   0.816018 0.339651 0.165901 -0.831477
H31   H     H_    0.764731 0.329602 0.205220 0.221901
H32   H     H_    0.849595 0.423947 0.167524 0.228753
H33   H     H_    0.760608 0.328143 0.127538 0.268484
C60   C     C_3   0.183982 0.660349 0.834099 -0.831476
H34   H     H_    0.235269 0.670397 0.794780 0.221901
H35   H     H_    0.239392 0.671857 0.872462 0.268484
H36   H     H_    0.150404 0.576053 0.832476 0.228753

loop_
_geom_bond_atom_site_label_1
_geom_bond_atom_site_label_2
_ccdc_geom_bond_type
C16   C28   A    
C9    C33   A    
C1    O1    A    
C5    C37   A    
C53   H5    S    
C17   C29   A    
C5    H9    S    
C19   C31   A    
S2    O21   D    
C15   H23   S    
C29   C49   A    
O12   Zn3   S    
C42   O10   A    
C43   O13   A    
C59   H32   S    
C19   H25   S    
C21   C33   S    
O22   H30   S    
C22   C38   S    
C24   O6    A    
O16   Zn3   S    
C45   C47   A    
O19   H29   S    
C32   C52   A    
C60   H36   S    
C21   C25   S    
O9    Zn3   S    
C38   C58   A    
C44   O12   A    
C11   C35   A    
C58   H8    S    
C12   C60   S    
C4    C40   A    
C49   C51   A    
C1    C28   S    
C50   C52   A    
S1    O17   D    
C6    C38   A    
C2    O2    A    
C2    C27   S    
C18   C30   A    
C12   C36   A    
C35   C43   S    
C18   C20   A    
C6    H10   S    
C30   C50   A    
C3    C39   A    
C18   H16   S    
C17   H15   S    
S1    O18   D    
C13   C25   A    
O13   Zn3   S    
C42   O16   A    
O7    Zn2   S    
C16   H24   S    
S2    O20   D    
O2    Zn2   S    
C48   H2    S    
C46   C48   A    
C53   C55   A    
C33   C53   A    
C22   C34   S    
C54   C56   A    
C49   H3    S    
C35   C55   A    
C2    O8    A    
C39   C41   S    
C59   H33   S    
O5    Zn1   S    
C5    C7    A    
C26   C46   A    
C6    C8    A    
C13   H13   S    
C21   C29   S    
C55   S1    S    
C23   C31   S    
C45   H27   S    
C24   C32   S    
C4    H20   S    
C36   C56   A    
C15   C27   A    
C57   H7    S    
C23   O3    A    
C10   C34   A    
C14   C26   A    
C9    C11   A    
C60   H34   S    
C10   C12   A    
O1    Zn1   S    
O11   Zn4   S    
C10   H12   S    
O8    Zn1   S    
C34   C54   A    
C13   C15   A    
O3    Zn2   S    
C9    H11   S    
S1    O19   S    
C14   C16   A    
C36   C44   S    
C11   C59   S    
C25   C45   A    
C51   H17   S    
C7    H21   S    
C20   C32   A    
C27   C47   A    
O15   Zn4   S    
O10   Zn4   S    
C28   C48   A    
C22   C30   S    
C14   H14   S    
C43   O11   A    
C31   C51   A    
C52   H18   S    
C24   O4    A    
O14   Zn4   S    
C20   H26   S    
C59   H31   S    
C44   O14   A    
C41   O9    A    
C54   H6    S    
C50   H4    S    
C40   C42   S    
C17   C19   A    
C41   O15   A    
C3    C57   A    
C23   O5    A    
O4    Zn1   S    
C60   H35   S    
O6    Zn2   S    
C47   H1    S    
C21   C37   S    
C1    O7    A    
C22   C26   S    
C4    C58   A    
C8    H22   S    
C7    C39   A    
C8    C40   A    
C56   S2    S    
S2    O22   S    
C37   C57   A    
C46   H28   S    
C3    H19   S    
