data_mof_unit_62209.cif
_audit_creation_date              2012-12-11T14:24:19-0500
_audit_creation_method            fapswitch 2.2
_symmetry_space_group_name_H-M    P1
_symmetry_Int_Tables_number       1
_space_group_crystal_system       triclinic
_cell_length_a                    6.949855
_cell_length_b                    17.485241
_cell_length_c                    18.882675
_cell_angle_alpha                 105.183337
_cell_angle_beta                  89.771708
_cell_angle_gamma                 90.494247
_cell_volume                      2214.43565149

loop_
_atom_site_label
_atom_site_type_symbol
_atom_type_description
_atom_site_fract_x
_atom_site_fract_y
_atom_site_fract_z
_atom_type_partial_charge
O1    O     O_R   0.494360 0.416740 0.414860 -0.529227
O2    O     O_R   0.818980 0.432970 0.557290 -0.522086
O3    O     O_R   0.994290 0.583260 0.585140 -0.510975
C1    C     C_R   0.650007 0.415921 0.580600 0.733428
O4    O     O_R   0.823740 0.407570 0.413690 -0.512209
O5    O     O_R   0.999090 0.557670 0.440510 -0.535833
C2    C     C_R   0.652546 0.383750 0.387298 0.774155
O6    O     O_R   0.489560 0.442330 0.559490 -0.529639
O7    O     O_3   0.662450 0.549280 0.508970 -0.363397
V1    V     V_3+5 0.935350 0.490860 0.498340 1.567058
O8    O     O_R   0.329100 0.567030 0.442710 -0.520462
C3    C     C_R   0.160930 0.584084 0.419405 0.734914
O9    O     O_R   0.324330 0.592430 0.586310 -0.538612
C4    C     C_R   0.153228 0.616606 0.612179 0.723504
V2    V     V_3+5 0.435960 0.509140 0.501660 1.537311
O10   O     O_3   0.158990 0.450720 0.491030 -0.351450
C5    C     C_2   0.179338 0.825012 0.753799 0.006506
C6    C     C_2   0.130581 0.818102 0.821716 -0.257942
H1    H     H_    0.136039 0.760353 0.832917 0.152105
C7    C     C_2   0.237300 0.752623 0.694348 -0.140531
C8    C     C_2   0.123889 0.686328 0.676442 0.162683
C9    C     C_1   0.110721 0.864060 0.132768 -0.158139
C10   C     C_1   0.118281 0.821536 0.176371 0.037629
C11   C     C_1   0.127788 0.771336 0.228275 0.028226
C12   C     C_1   0.135920 0.729036 0.272064 0.024161
C13   C     C_1   0.145432 0.678776 0.323915 0.022591
C14   C     C_1   0.152997 0.636148 0.367427 -0.178747
C15   C     C_1   0.641373 0.363906 0.632564 -0.171128
C16   C     C_1   0.636954 0.321244 0.676072 0.028758
C17   C     C_1   0.633194 0.270930 0.727899 0.023818
C18   C     C_1   0.630343 0.228574 0.771683 0.019272
C19   C     C_1   0.626613 0.178345 0.823579 0.013997
C20   C     C_1   0.622245 0.135821 0.867204 -0.182905
C21   C     C_2   0.718022 0.180478 0.239726 0.414899
C22   C     C_2   0.629548 0.183605 0.176642 -0.361964
H2    H     H_    0.581042 0.239333 0.168381 0.077914
C23   C     C_2   0.749469 0.252244 0.303188 0.305210
C24   C     C_2   0.623480 0.313723 0.322756 -0.336381
O11   O     O_R   0.774180 0.057760 0.940580 -0.524351
O12   O     O_R   0.439830 0.092440 0.086330 -0.530923
O13   O     O_R   0.264640 0.942310 0.059470 -0.528026
C25   C     C_R   0.610048 0.114180 0.113410 0.822364
O14   O     O_R   0.444740 0.067040 0.942730 -0.525819
O15   O     O_R   0.269590 0.916730 0.914840 -0.532107
C26   C     C_R   0.613686 0.083999 0.919333 0.714056
O16   O     O_R   0.769230 0.083340 0.085210 -0.524967
O17   O     O_3   0.601340 0.950770 0.991070 -0.369555
V3    V     V_3+5 0.328370 0.009130 0.001660 1.519256
O18   O     O_R   0.939550 0.907490 0.913620 -0.526532
C27   C     C_R   0.109800 0.885762 0.886617 0.781285
O19   O     O_R   0.934640 0.932890 0.057220 -0.522899
C28   C     C_R   0.102795 0.915968 0.080643 0.736742
V4    V     V_3+5 0.827780 0.990750 0.998250 1.531215
O20   O     O_3   0.104690 0.049230 0.008930 -0.362620
C29   C     C_2   0.177950 0.903261 0.734934 0.805858
O21   O     O_2   0.191570 0.904855 0.670727 -0.528295
O22   O     O_R   0.158412 0.974673 0.789115 -0.673148
H3    H     H_    0.159412 0.022623 0.768380 0.296603
C30   C     C_2   0.412871 0.760603 0.651427 0.844591
O23   O     O_2   0.555976 0.793159 0.683519 -0.510725
O24   O     O_R   0.410972 0.736353 0.574734 -0.654864
H4    H     H_    0.538573 0.746229 0.552326 0.307553
Cl1   Cl    Cl    0.899860 0.684701 0.722066 -0.623260
Cl2   Cl    Cl    0.803398 0.088471 0.249173 -0.527752
Cl3   Cl    Cl    0.952190 0.249325 0.358762 -0.500135
C31   C     C_2   0.428790 0.308635 0.288525 0.789876
O25   O     O_2   0.333311 0.247662 0.278320 -0.495048
O26   O     O_R   0.352427 0.375103 0.270991 -0.670178
H5    H     H_    0.218179 0.365023 0.249559 0.295292

loop_
_geom_bond_atom_site_label_1
_geom_bond_atom_site_label_2
_ccdc_geom_bond_type
O5    V1    S    
O17   V3    S    
O2    C1    A    
C10   C11   S    
C2    C24   S    
C16   C17   S    
O1    V2    S    
C21   C23   S    
C20   C26   S    
O7    V1    S    
C5    C29   S    
O13   C28   A    
C31   O26   S    
C18   C19   S    
O9    V2    S    
O17   V4    S    
C17   C18   T    
C1    O6    A    
C19   C20   T    
C29   O21   D    
O12   C25   A    
C5    C6    D    
O7    V2    S    
O4    V1    S    
O3    V1    S    
V1    O10   S    
O9    C4    A    
C11   C12   T    
C7    C30   S    
V3    O20   S    
O15   V3    S    
O14   C26   A    
O22   H3    S    
O11   V4    S    
O3    C4    A    
C25   O16   A    
O18   V4    S    
O16   V4    S    
C21   Cl2   S    
C15   C16   T    
C1    C15   S    
C23   C24   D    
O18   C27   A    
O6    V2    S    
C29   O22   S    
C13   C14   T    
O24   H4    S    
C21   C22   D    
C30   O24   S    
C8    Cl1   S    
C3    C14   S    
C4    C8    S    
O19   C28   A    
O2    V1    S    
O5    C3    A    
C24   C31   S    
C30   O23   D    
C5    C7    S    
C31   O25   D    
C7    C8    D    
C6    C27   S    
C9    C28   S    
C6    H1    S    
O14   V3    S    
O15   C27   A    
O4    C2    A    
C22   C25   S    
O12   V3    S    
C9    C10   T    
O11   C26   A    
O1    C2    A    
C12   C13   S    
V4    O20   S    
O8    V2    S    
O13   V3    S    
V2    O10   S    
O8    C3    A    
O26   H5    S    
O19   V4    S    
C22   H2    S    
C23   Cl3   S    
