data_mof_unit_9990.cif
_audit_creation_date              2013-03-05T16:09:24-0500
_audit_creation_method            fapswitch 2.2
_symmetry_space_group_name_H-M    P1
_symmetry_Int_Tables_number       1
_space_group_crystal_system       triclinic
_cell_length_a                    10.625984
_cell_length_b                    9.893876
_cell_length_c                    10.771767
_cell_angle_alpha                 89.997872
_cell_angle_beta                  90.666625
_cell_angle_gamma                 89.997094
_cell_volume                      1132.38256759

loop_
_atom_site_label
_atom_site_type_symbol
_atom_site_description
_atom_site_fract_x
_atom_site_fract_y
_atom_site_fract_z
_atom_type_partial_charge
O1    O     O_R   0.316770 0.614620 0.499990 -0.570935
O2    O     O_R   0.683230 0.614620 0.500010 -0.571596
O3    O     O_R   0.316800 0.385290 0.500000 -0.607922
O4    O     O_R   0.683200 0.385290 0.500000 -0.607903
C1    C     C_R   0.260620 0.499960 0.499412 1.004842
C2    C     C_R   0.739386 0.499955 0.500614 1.005386
O5    O     O_R   0.500000 0.614630 0.319080 -0.595107
O6    O     O_R   0.500000 0.614630 0.680920 -0.594871
O7    O     O_R   0.500030 0.385300 0.319080 -0.571250
O8    O     O_R   0.499970 0.385300 0.680920 -0.571752
C3    C     C_R   0.499862 0.499522 0.262627 1.058690
C4    C     C_R   0.500103 0.499520 0.737366 1.058887
Zn1   Zn    Zn3+2 0.500000 0.653120 0.500000 1.119121
Zn2   Zn    Zn3+2 0.500000 0.346880 0.500000 1.070077
C5    C     C_2   0.514701 0.385239 0.934262 0.363769
C6    C     C_2   0.485787 0.385149 0.065717 0.363683
C7    C     C_2   0.487067 0.496704 0.868646 -0.262178
C8    C     C_2   0.512943 0.496735 0.131344 -0.261918
H1    H     H_    0.445694 0.585615 0.911177 0.159712
H2    H     H_    0.553976 0.585830 0.088810 0.159668
C9    C     C_R   0.063448 0.498779 0.385352 0.213061
C10   C     C_R   0.933045 0.500089 0.385968 0.199543
C11   C     C_R   0.871802 0.499975 0.500523 -0.327993
C12   C     C_R   0.128216 0.499987 0.499531 -0.327843
C13   C     C_R   0.936576 0.500125 0.614715 0.213167
C14   C     C_R   0.066986 0.501440 0.614084 0.199345
C15   C     C_R   0.554872 0.072547 0.594790 -0.087436
C16   C     C_R   0.445157 0.072592 0.405204 -0.086813
H3    H     H_    0.600063 0.127437 0.669777 0.228579
H4    H     H_    0.400012 0.127526 0.330211 0.229079
C17   C     C_R   0.555708 0.929228 0.595287 0.302058
C18   C     C_R   0.444335 0.929280 0.404670 0.301566
N1    N     N_R   0.500000 0.857200 0.500000 -0.193508
N2    N     N_R   0.500000 0.142810 0.500000 -0.140059
O9    O     O_3   0.569402 0.273233 0.879779 -0.685688
H5    H     H_    0.594058 0.208461 0.945958 0.376767
O10   O     O_3   0.431566 0.272857 0.120175 -0.685531
H6    H     H_    0.407193 0.207988 0.053987 0.376812
N3    N     N_R   0.129830 0.499006 0.269804 0.242175
O11   O     O_R   0.210565 0.404017 0.245819 -0.339430
O12   O     O_R   0.102698 0.587860 0.184542 -0.217379
N4    N     N_R   0.862844 0.498477 0.271187 0.226244
O13   O     O_R   0.786983 0.597522 0.243788 -0.358356
O14   O     O_R   0.881965 0.403691 0.189828 -0.272094
N5    N     N_R   0.870199 0.501576 0.730262 0.242686
O15   O     O_R   0.897584 0.591059 0.814882 -0.216702
O16   O     O_R   0.789224 0.407068 0.754947 -0.339999
N6    N     N_R   0.137206 0.501005 0.728870 0.225864
O17   O     O_R   0.118116 0.407052 0.811052 -0.272101
O18   O     O_R   0.213122 0.600267 0.755368 -0.357600
N7    N     N_R   0.616464 0.861440 0.696462 0.233608
O19   O     O_R   0.584287 0.890215 0.809604 -0.329574
O20   O     O_R   0.722161 0.798867 0.678059 -0.312265
N8    N     N_R   0.383923 0.861600 0.303209 0.233564
O21   O     O_R   0.415289 0.891808 0.190160 -0.329878
O22   O     O_R   0.279120 0.797353 0.321481 -0.312273

loop_
_geom_bond_atom_site_label_1
_geom_bond_atom_site_label_2
_geom_bond_distance
_ccdc_geom_bond_type
C4    C7    1.422755 S    
Zn2   N2    2.019044 S    
O7    Zn2   1.985543 S    
C17   N1    1.377587 A    
C3    C8    1.422845 S    
Zn1   N1    2.019142 S    
O10   H6    0.991502 S    
C15   H3    1.081208 S    
O9    H5    0.991515 S    
C9    N3    1.437761 S    
C14   N6    1.436698 S    
C6    O10   1.385019 S    
O6    C4    1.291005 A    
C18   N1    1.377927 A    
C16   H4    1.081205 S    
C16   N2    1.360589 A    
N3    O12   1.301231 A    
C6    C8    1.340589 D    
O2    C2    1.281792 A    
N5    O15   1.301248 A    
O5    C3    1.291054 A    
O7    C3    1.283291 A    
C10   N4    1.436628 S    
O3    Zn2   1.983408 S    
N4    O14   1.301153 A    
O1    C1    1.281769 A    
C2    C11   1.407072 S    
O8    C4    1.283279 A    
C16   C18   1.417943 A    
N6    O18   1.300562 A    
N6    O17   1.301161 A    
C7    H1    1.087045 S    
C12   C14   1.401718 A    
C9    C10   1.385818 A    
C8    H2    1.087064 S    
C11   C13   1.402514 A    
C15   N2    1.360826 A    
O4    Zn2   1.983446 S    
N8    O22   1.299287 A    
O1    Zn1   1.983928 S    
N4    O13   1.300591 A    
C15   C17   1.418010 A    
C5    C6    1.452436 S    
O6    Zn1   1.985672 S    
C13   N5    1.437797 S    
O5    Zn1   1.985700 S    
N5    O16   1.300292 A    
O4    C2    1.281996 A    
O8    Zn2   1.985570 S    
C9    C12   1.402412 A    
C18   N8    1.427840 S    
N3    O11   1.300411 A    
C5    O9    1.385015 S    
O2    Zn1   1.983889 S    
N8    O21   1.301046 A    
C1    C12   1.406942 S    
O3    C1    1.281959 A    
C13   C14   1.385892 A    
C5    C7    1.340555 D    
C10   C11   1.401726 A    
N7    O19   1.301156 A    
C17   N7    1.427536 S    
N7    O20   1.299667 A    
