data_mof_unit_68328.cif
_audit_creation_date              2013-03-05T15:41:50-0500
_audit_creation_method            fapswitch 2.2
_symmetry_space_group_name_H-M    P1
_symmetry_Int_Tables_number       1
_space_group_crystal_system       triclinic
_cell_length_a                    7.841456
_cell_length_b                    8.671332
_cell_length_c                    10.492562
_cell_angle_alpha                 91.657508
_cell_angle_beta                  86.282933
_cell_angle_gamma                 93.074366
_cell_volume                      710.693477094

loop_
_atom_site_label
_atom_site_type_symbol
_atom_site_description
_atom_site_fract_x
_atom_site_fract_y
_atom_site_fract_z
_atom_type_partial_charge
O1    O     O_R   0.389250 0.738570 0.508410 -0.612227
O2    O     O_R   0.610750 0.261430 0.491590 -0.612229
O3    O     O_R   0.678390 0.711620 0.486450 -0.552022
O4    O     O_R   0.321610 0.288380 0.513550 -0.552020
C1    C     C_R   0.544381 0.793466 0.495883 0.925351
C2    C     C_R   0.455619 0.206534 0.504117 0.925351
O5    O     O_R   0.355460 0.513510 0.697030 -0.641156
O6    O     O_R   0.644540 0.486490 0.302970 -0.641158
O7    O     O_R   0.644600 0.486560 0.675070 -0.643210
O8    O     O_R   0.355400 0.513440 0.324930 -0.643206
C3    C     C_R   0.501915 0.497496 0.741834 0.955248
C4    C     C_R   0.498085 0.502503 0.258166 0.955250
Zn1   Zn    Zn3+2 0.306940 0.517990 0.514670 1.064308
Zn2   Zn    Zn3+2 0.693060 0.482010 0.485330 1.064304
N1    N     N_2   0.950320 0.457950 0.465730 -0.176460
N2    N     N_2   0.049680 0.542050 0.534270 -0.176457
C5    C     C_3   0.441989 0.632965 0.959416 -0.237790
C6    C     C_3   0.558010 0.367034 0.040583 -0.237792
C7    C     C_3   0.598386 0.617718 0.037528 0.338363
C8    C     C_3   0.401613 0.382281 0.962472 0.338364
H1    H     H_    0.398003 0.742202 0.923193 0.213905
H2    H     H_    0.601996 0.257797 0.076807 0.213905
C9    C     C_3   0.495256 0.504081 0.123728 -0.135954
C10   C     C_3   0.504744 0.495918 0.876272 -0.135953
C11   C     C_3   0.336406 0.516485 0.047105 -0.223816
C12   C     C_3   0.663594 0.483514 0.952894 -0.223816
H3    H     H_    0.202871 0.528741 0.085884 0.186562
H4    H     H_    0.797129 0.471257 0.914116 0.186562
C13   C     C_2   0.568278 0.955332 0.502401 -0.004653
C14   C     C_2   0.431723 0.044668 0.497599 -0.004653
N3    N     N_R   0.706738 0.750131 0.077091 0.214917
O9    O     O_R   0.790691 0.834153 0.990941 -0.295098
O10   O     O_R   0.714875 0.789252 0.197147 -0.364560
N4    N     N_R   0.293263 0.249868 0.922909 0.214916
O11   O     O_R   0.209311 0.165843 0.009060 -0.295098
O12   O     O_R   0.285122 0.210749 0.802853 -0.364561
C15   C     C_2   0.018824 0.415696 0.342958 0.748084
H5    H     H_    0.009431 0.492274 0.264215 -0.000903
O13   O     O_2   0.079332 0.289821 0.323677 -0.493961
C16   C     C_2   0.981176 0.584302 0.657042 0.748087
H6    H     H_    0.990560 0.507719 0.735784 -0.000903
O14   O     O_2   0.920676 0.710181 0.676325 -0.493959
N5    N     N_R   0.738703 0.015303 0.523798 0.246180
O15   O     O_R   0.855590 0.016040 0.430060 -0.221419
O16   O     O_R   0.779192 0.058076 0.638320 -0.289695
N6    N     N_R   0.261297 0.984697 0.476202 0.246181
O17   O     O_R   0.144411 0.983959 0.569940 -0.221417
O18   O     O_R   0.220808 0.941924 0.361680 -0.289694

loop_
_geom_bond_atom_site_label_1
_geom_bond_atom_site_label_2
_geom_bond_distance
_ccdc_geom_bond_type
C7    C9    1.521269 S    
O7    Zn2   2.002111 S    
N3    O10   1.299750 A    
C15   H5    1.083454 S    
C11   H3    1.107918 S    
C13   C14   1.359213 D    
O7    C3    1.287435 A    
N4    O12   1.299746 A    
N3    O9    1.300313 A    
C6    C12   1.554828 S    
O6    C4    1.284534 A    
N5    O15   1.300134 A    
C7    N3    1.458105 S    
C16   O14   1.219739 D    
C8    N4    1.458103 S    
C15   O13   1.219740 D    
C6    H2    1.110642 S    
C13   N5    1.436788 S    
O5    C3    1.284534 A    
N5    O16   1.301283 A    
C4    C9    1.412685 S    
O2    C2    1.282347 A    
O3    Zn2   2.000147 S    
O8    C4    1.287434 A    
N2    C16   1.409371 S    
O1    C1    1.282347 A    
C16   H6    1.083455 S    
C2    C14   1.406330 S    
C10   C12   1.535806 S    
C1    C13   1.406330 S    
C9    C11   1.535808 S    
O2    Zn2   1.987147 S    
N6    O18   1.301283 A    
C5    C10   1.537065 S    
O1    Zn1   1.987147 S    
C8    C11   1.532795 S    
C6    C9    1.537067 S    
C8    C10   1.521271 S    
C3    C10   1.412688 S    
O5    Zn1   1.976799 S    
C6    C8    1.532055 S    
O4    C2    1.296212 A    
N4    O11   1.300327 A    
Zn1   N2    2.035722 S    
O4    Zn1   2.000147 S    
C7    C12   1.532794 S    
N6    O17   1.300134 A    
N1    C15   1.409371 S    
O6    Zn2   1.976797 S    
C5    C7    1.532056 S    
Zn2   N1    2.035722 S    
C12   H4    1.107918 S    
C14   N6    1.436787 S    
C5    H1    1.110644 S    
N1    N2    1.279615 D    
C5    C11   1.554828 S    
O3    C1    1.296212 A    
O8    Zn1   2.002111 S    
