data_mof_unit_43099.cif
_audit_creation_date              2012-12-10T17:57:26-0500
_audit_creation_method            fapswitch 2.2
_symmetry_space_group_name_H-M    P1
_symmetry_Int_Tables_number       1
_space_group_crystal_system       triclinic
_cell_length_a                    9.507874
_cell_length_b                    10.833612
_cell_length_c                    13.501295
_cell_angle_alpha                 90.214193
_cell_angle_beta                  73.161013
_cell_angle_gamma                 90.007832
_cell_volume                      1331.0563686

loop_
_atom_site_label
_atom_site_type_symbol
_atom_type_description
_atom_site_fract_x
_atom_site_fract_y
_atom_site_fract_z
_atom_type_partial_charge
C1    C     C_R   0.499972 0.737962 0.500154 0.793290
C2    C     C_R   0.443671 0.477926 0.976302 0.108129
C3    C     C_R   0.480970 0.454631 0.868700 0.057728
C4    C     C_R   0.549927 0.456201 0.029340 0.003540
C5    C     C_R   0.698818 0.437297 0.972603 0.064456
C6    C     C_R   0.732372 0.404389 0.867609 -0.034716
C7    C     C_R   0.620612 0.402670 0.819708 -0.233029
C8    C     C_R   0.512108 0.450359 0.137421 0.299496
C9    C     C_R   0.768809 0.472908 0.129649 -0.244691
C10   C     C_R   0.379288 0.487472 0.813484 -0.086723
C11   C     C_R   0.627152 0.936209 0.501602 -0.177188
C12   C     C_R   0.422679 0.492667 0.699680 0.790436
C13   C     C_R   0.627173 0.063912 0.501504 -0.181350
C14   C     C_R   0.499924 0.128228 0.500116 -0.015415
C15   C     C_R   0.372619 0.063843 0.498908 -0.155153
C16   C     C_R   0.372589 0.936140 0.499032 -0.180780
C17   C     C_R   0.499894 0.871810 0.500291 -0.021871
C18   C     C_R   0.903608 0.587938 0.553508 -0.021080
C19   C     C_R   0.052575 0.588047 0.553313 -0.017707
C20   C     C_R   0.095480 0.410664 0.448323 0.043250
C21   C     C_R   0.947020 0.411292 0.447549 -0.022025
C22   C     C_R   0.499964 0.262043 0.499994 0.794689
C23   C     C_R   0.577507 0.491841 0.300464 0.846689
C24   C     C_R   0.807902 0.447067 0.023889 -0.187283
C25   C     C_R   0.620289 0.473115 0.187785 -0.118865
C26   C     C_R   0.239552 0.532325 0.867675 -0.178585
C27   C     C_R   0.204161 0.555492 0.973106 -0.176817
C28   C     C_R   0.306320 0.532656 0.026303 -0.100759
Cu1   Cu    Cu3+1 0.359340 0.499980 0.500000 0.985270
Cu2   Cu    Cu3+1 0.640660 0.500020 0.500000 0.945556
H1    H     H_    0.854743 0.485779 0.166687 0.180420
H2    H     H_    0.726661 0.111982 0.502535 0.148921
H3    H     H_    0.273148 0.111859 0.497805 0.152828
H4    H     H_    0.273079 0.888078 0.498046 0.148462
H5    H     H_    0.829852 0.658162 0.596624 0.123195
H6    H     H_    0.091050 0.658389 0.596232 0.115980
H7    H     H_    0.167807 0.338152 0.408039 0.169375
H8    H     H_    0.908318 0.340353 0.405293 0.131048
H9    H     H_    0.923129 0.437094 0.982417 0.163454
H10   H     H_    0.160437 0.557425 0.827393 0.160946
H11   H     H_    0.278578 0.563196 0.105935 0.174213
H12   H     H_    0.099350 0.596892 0.013030 0.144283
H13   H     H_    0.646505 0.362284 0.743312 0.179839
H14   H     H_    0.726624 0.888204 0.502708 0.148327
N1    N     N_R   0.147940 0.499970 0.499970 -0.160297
N2    N     N_R   0.852060 0.500060 0.499990 -0.166518
O1    O     O_R   0.381250 0.680340 0.500010 -0.593859
O2    O     O_R   0.618820 0.680370 0.500010 -0.589431
O3    O     O_R   0.323240 0.499950 0.650980 -0.570017
O4    O     O_R   0.560810 0.499980 0.650980 -0.592370
O5    O     O_R   0.381180 0.319630 0.499990 -0.582303
O6    O     O_R   0.618750 0.319660 0.499990 -0.603522
O7    O     O_R   0.439190 0.500020 0.349020 -0.528942
O8    O     O_R   0.676760 0.500050 0.349020 -0.589051
C29   C     C_1   0.878844 0.367985 0.807841 0.210821
N3    N     N_1   0.995983 0.338970 0.759842 -0.280199
Cl1   Cl    Cl    0.346355 0.373323 0.202752 -0.674094

loop_
_geom_bond_atom_site_label_1
_geom_bond_atom_site_label_2
_ccdc_geom_bond_type
C12   O4    A    
C29   N3    T    
C19   N1    A    
C1    O2    A    
C12   O3    A    
C6    C7    A    
C20   H7    S    
C7    H13   S    
C8    Cl1   S    
C11   C13   A    
C18   H5    S    
C13   H2    S    
C1    C17   S    
C20   N1    A    
C6    C29   S    
C4    C8    A    
C14   C22   S    
C2    C3    A    
Cu2   O4    S    
C9    C25   A    
C11   H14   S    
C9    C24   A    
C3    C10   A    
Cu1   O3    S    
C13   C14   A    
C8    C25   A    
Cu2   O8    S    
C27   H12   S    
C26   H10   S    
C26   C27   A    
Cu1   Cu2   S    
C5    C24   A    
C10   C12   S    
Cu1   O1    S    
C2    C4    A    
C18   N2    A    
Cu2   O2    S    
Cu2   N2    S    
C23   O7    A    
C3    C7    A    
C19   H6    S    
C23   C25   S    
C1    O1    A    
C5    C6    A    
C22   O5    A    
C9    H1    S    
C15   C16   A    
C28   H11   S    
C24   H9    S    
C18   C19   A    
C20   C21   A    
C23   O8    A    
C22   O6    A    
C21   N2    A    
Cu1   O5    S    
C27   C28   A    
Cu2   O6    S    
C14   C15   A    
C4    C5    A    
C2    C28   A    
C16   H4    S    
C15   H3    S    
C10   C26   A    
C11   C17   A    
C21   H8    S    
Cu1   N1    S    
C16   C17   A    
Cu1   O7    S    
