data_mof_unit_9987.cif
_audit_creation_date              2012-12-10T20:44:04-0500
_audit_creation_method            fapswitch 2.2
_symmetry_space_group_name_H-M    P1
_symmetry_Int_Tables_number       1
_space_group_crystal_system       triclinic
_cell_length_a                    17.372202
_cell_length_b                    10.697578
_cell_length_c                    9.865114
_cell_angle_alpha                 89.388277
_cell_angle_beta                  91.957554
_cell_angle_gamma                 90.706558
_cell_volume                      1832.03186939

loop_
_atom_site_label
_atom_site_type_symbol
_atom_type_description
_atom_site_fract_x
_atom_site_fract_y
_atom_site_fract_z
_atom_type_partial_charge
C1    C     C_R   0.502612 0.259815 0.500476 0.883796
C2    C     C_R   0.114698 0.597622 0.518638 0.105817
C3    C     C_R   0.520033 0.062264 0.622833 0.140975
C4    C     C_R   0.352466 0.504650 0.498413 0.852650
C5    C     C_R   0.515838 0.128550 0.500828 -0.109501
C6    C     C_R   0.527169 0.066365 0.378471 -0.224866
C7    C     C_R   0.527529 0.936965 0.377880 -0.227122
C8    C     C_R   0.516697 0.871369 0.499666 -0.104158
C9    C     C_R   0.520745 0.934523 0.622353 0.132537
C10   C     C_3   0.469643 0.923745 0.740752 -0.475722
C11   C     C_3   0.468114 0.064928 0.740047 -0.503768
C12   C     C_R   0.885061 0.593575 0.526668 0.164619
C13   C     C_R   0.479083 0.394773 0.071048 0.215470
C14   C     C_R   0.528828 0.598862 0.072614 -0.136633
C15   C     C_R   0.529362 0.598436 0.928715 -0.145311
C16   C     C_R   0.503077 0.740037 0.499523 0.882804
C17   C     C_R   0.477257 0.396006 0.928243 0.225931
C18   C     C_3   0.399063 0.337296 0.921181 -0.513254
C19   C     C_3   0.402943 0.330586 0.074232 -0.533658
C20   C     C_R   0.647067 0.503287 0.502324 0.855339
C21   C     C_R   0.846850 0.562921 0.644631 -0.167328
C22   C     C_R   0.769389 0.529470 0.636148 -0.199573
C23   C     C_1   0.965943 0.610324 0.532572 -0.071353
C24   C     C_R   0.730057 0.526057 0.509238 -0.036071
C25   C     C_R   0.769265 0.556375 0.391082 -0.202770
C26   C     C_R   0.846745 0.589966 0.399991 -0.167025
C27   C     C_3   0.244824 0.463369 0.254121 -0.399588
C28   C     C_3   0.183013 0.433278 0.144497 -0.923199
C29   C     C_1   0.034406 0.611872 0.530735 -0.058589
C30   C     C_R   0.164212 0.611287 0.630775 -0.173028
C31   C     C_R   0.240874 0.579500 0.621131 -0.220866
C32   C     C_R   0.269058 0.531926 0.499508 -0.117603
C33   C     C_R   0.217725 0.517610 0.384959 0.150665
C34   C     C_R   0.140720 0.552496 0.396954 -0.142816
H1    H     H_    0.877190 0.562718 0.742474 0.132078
H2    H     H_    0.397435 0.244030 0.875046 0.200943
H3    H     H_    0.359839 0.389333 0.119331 0.221601
H4    H     H_    0.740338 0.506937 0.728861 0.157004
H5    H     H_    0.407128 0.233804 0.115808 0.202998
H6    H     H_    0.740039 0.555527 0.292333 0.155619
H7    H     H_    0.877107 0.610931 0.308142 0.130597
H8    H     H_    0.143350 0.644157 0.726202 0.140026
H9    H     H_    0.278161 0.592591 0.710225 0.167208
H10   H     H_    0.099247 0.541912 0.313445 0.147317
H11   H     H_    0.529986 0.116331 0.282628 0.168811
H12   H     H_    0.530398 0.889396 0.281826 0.162738
H13   H     H_    0.139195 0.367359 0.184521 0.266976
H14   H     H_    0.155141 0.520201 0.106085 0.257836
H15   H     H_    0.210342 0.388194 0.057683 0.259936
H16   H     H_    0.285686 0.531723 0.209624 0.226140
H17   H     H_    0.274173 0.374192 0.280342 0.212431
H18   H     H_    0.412727 0.879901 0.714641 0.207992
H19   H     H_    0.499980 0.884302 0.832152 0.194618
H20   H     H_    0.410381 0.102208 0.710738 0.199914
H21   H     H_    0.497189 0.106316 0.831427 0.203908
H22   H     H_    0.550900 0.679565 0.127137 0.142084
H23   H     H_    0.552476 0.678271 0.875068 0.146077
H24   H     H_    0.354291 0.402207 0.880007 0.216239
N1    N     N_R   0.499490 0.499140 0.142800 -0.104742
N2    N     N_R   0.499490 0.499180 0.857150 -0.105847
O1    O     O_R   0.500010 0.316790 0.614690 -0.610581
O2    O     O_R   0.500000 0.316760 0.385350 -0.619885
O3    O     O_R   0.389120 0.500020 0.614710 -0.610903
O4    O     O_R   0.389110 0.499990 0.385370 -0.621458
O5    O     O_R   0.500000 0.683240 0.614650 -0.621387
O6    O     O_R   0.499990 0.683210 0.385310 -0.625637
O7    O     O_R   0.610890 0.500010 0.614630 -0.618876
O8    O     O_R   0.610880 0.499980 0.385290 -0.616830
Zn1   Zn    Zn3+2 0.500010 0.500020 0.653130 0.941686
Zn2   Zn    Zn3+2 0.499990 0.499980 0.346870 0.936565

loop_
_geom_bond_atom_site_label_1
_geom_bond_atom_site_label_2
_ccdc_geom_bond_type
C14   H22   S    
C28   H13   S    
C6    C7    A    
C3    C9    A    
C6    H11   S    
O4    Zn2   S    
C9    C10   S    
C4    O4    A    
C20   O7    A    
C31   C32   A    
C12   C23   S    
C27   H16   S    
C13   C17   A    
C2    C30   A    
C10   H18   S    
C32   C33   A    
C2    C34   A    
C17   C18   S    
C11   H21   S    
C7    C8    A    
C8    C16   S    
O6    Zn2   S    
C21   C22   A    
C27   C33   S    
C14   N1    A    
C15   H23   S    
C4    O3    A    
C4    C32   S    
C11   H20   S    
C31   H9    S    
N2    Zn1   S    
C2    C29   S    
C13   N1    A    
C5    C6    A    
C19   H5    S    
N1    Zn2   S    
O3    Zn1   S    
C27   H17   S    
C33   C34   A    
C22   C24   A    
C25   H6    S    
C20   O8    A    
C30   C31   A    
C1    C5    S    
C21   H1    S    
C3    C11   S    
C10   C11   S    
C13   C19   S    
C17   N2    A    
C22   H4    S    
C7    H12   S    
C23   C29   T    
C34   H10   S    
C24   C25   A    
O2    Zn2   S    
C1    O2    A    
O8    Zn2   S    
C18   C19   S    
C28   H15   S    
O1    Zn1   S    
C27   C28   S    
O5    Zn1   S    
C10   H19   S    
C14   C15   A    
C28   H14   S    
C16   O6    A    
C16   O5    A    
C19   H3    S    
C3    C5    A    
C25   C26   A    
C18   H2    S    
C12   C21   A    
C18   H24   S    
C15   N2    A    
C30   H8    S    
C20   C24   S    
C26   H7    S    
C12   C26   A    
C8    C9    A    
O7    Zn1   S    
C1    O1    A    
