data_mof_unit_24902.cif
_audit_creation_date              2012-12-10T18:09:52-0500
_audit_creation_method            fapswitch 2.2
_symmetry_space_group_name_H-M    P1
_symmetry_Int_Tables_number       1
_space_group_crystal_system       triclinic
_cell_length_a                    10.650907
_cell_length_b                    12.625731
_cell_length_c                    13.123283
_cell_angle_alpha                 83.542357
_cell_angle_beta                  90.952632
_cell_angle_gamma                 102.174107
_cell_volume                      1714.08189726

loop_
_atom_site_label
_atom_site_type_symbol
_atom_type_description
_atom_site_fract_x
_atom_site_fract_y
_atom_site_fract_z
_atom_type_partial_charge
C1    C     C_R   0.493854 0.439949 0.691155 0.930534
C2    C     C_R   0.544936 0.446222 0.974720 0.033532
C3    C     C_R   0.570353 0.471847 0.868930 -0.048639
C4    C     C_R   0.741875 0.499958 0.500569 0.883550
C5    C     C_R   0.589039 0.528143 0.039467 0.032188
C6    C     C_R   0.639576 0.636430 0.997206 0.009883
C7    C     C_R   0.683969 0.654669 0.896187 -0.285081
C8    C     C_R   0.659198 0.568968 0.835479 0.597758
C9    C     C_R   0.584441 0.506209 0.145110 0.398701
C10   C     C_R   0.605983 0.698990 0.160433 -0.225438
C11   C     C_R   0.502492 0.402221 0.800194 -0.094432
C12   C     C_3   0.120813 0.497455 0.502791 0.036679
C13   C     C_R   0.323956 0.086648 0.345066 -0.319492
C14   C     C_R   0.663088 0.803241 0.621624 0.035982
C15   C     C_R   0.703547 0.909575 0.644056 -0.308742
C16   C     C_R   0.526194 0.559271 0.309699 0.858392
C17   C     C_R   0.643878 0.989929 0.597463 -0.094579
C18   C     C_R   0.541207 0.964037 0.528546 0.063407
C19   C     C_R   0.507046 0.854261 0.505644 0.151864
C20   C     C_R   0.475516 0.042447 0.477818 -0.210673
C21   C     C_R   0.385455 0.010541 0.399598 -0.117071
C22   C     C_R   0.357546 0.903029 0.376393 0.612465
C23   C     C_3   0.090570 0.579819 0.413402 -0.491892
C24   C     C_R   0.416724 0.826386 0.429423 -0.296445
C25   C     C_R   0.493296 0.151417 0.500809 0.620272
C26   C     C_R   0.350601 0.193208 0.368266 0.664249
C27   C     C_R   0.257918 0.498898 0.501482 0.887141
C28   C     C_3   0.898797 0.383927 0.483186 -0.425432
C29   C     C_3   0.041575 0.381826 0.485685 0.207266
C30   C     C_3   0.947754 0.584076 0.415909 -0.427664
C31   C     C_3   0.934890 0.526506 0.607224 -0.393658
C32   C     C_3   0.878231 0.498825 0.501707 0.029463
C33   C     C_3   0.079929 0.527513 0.608175 0.281979
C34   C     C_R   0.649227 0.722040 0.058564 -0.142874
C35   C     C_R   0.572021 0.589993 0.204079 -0.183888
C36   C     C_R   0.429133 0.299760 0.837858 -0.156207
C37   C     C_R   0.412625 0.270634 0.942667 -0.169719
C38   C     C_R   0.465416 0.344523 0.010644 -0.064780
F1    F     F_    0.726042 0.578256 0.747058 -0.718006
F2    F     F_    0.292632 0.268000 0.315542 -0.653710
F3    F     F_    0.272103 0.871393 0.301941 -0.680825
F4    F     F_    0.563690 0.188808 0.580909 -0.679794
H1    H     H_    0.859611 0.362694 0.407113 0.162555
H2    H     H_    0.846002 0.320904 0.542550 0.235167
H3    H     H_    0.256173 0.064245 0.284701 0.232618
H4    H     H_    0.713130 0.742337 0.654217 0.201739
H5    H     H_    0.685586 0.071321 0.613533 0.218415
H6    H     H_    0.783282 0.930205 0.695527 0.164709
H7    H     H_    0.392779 0.746016 0.406866 0.224185
H8    H     H_    0.069317 0.360195 0.410114 0.157780
H9    H     H_    0.903880 0.567537 0.340157 0.178591
H10   H     H_    0.114027 0.554419 0.338663 0.192394
H11   H     H_    0.918097 0.607048 0.623453 0.235940
H12   H     H_    0.938107 0.667435 0.429645 0.207589
H13   H     H_    0.885714 0.464670 0.668986 0.196403
H14   H     H_    0.097798 0.464350 0.669714 0.178539
H15   H     H_    0.129161 0.687282 0.585056 0.348444
H16   H     H_    0.665281 0.421074 0.247632 0.333728
H17   H     H_    0.036184 0.230826 0.538716 0.346535
H18   H     H_    0.149950 0.662889 0.417560 0.228985
H19   H     H_    0.603840 0.765298 0.205595 0.185786
H20   H     H_    0.740242 0.733313 0.865547 0.163145
H21   H     H_    0.684259 0.805894 0.026736 0.157945
H22   H     H_    0.378449 0.244430 0.786232 0.182605
H23   H     H_    0.437279 0.322708 0.090179 0.216060
H24   H     H_    0.351920 0.193206 0.971087 0.164044
N1    N     N_R   0.433240 0.222190 0.444680 -0.183362
N2    N     N_R   0.566070 0.776970 0.554790 -0.113480
O1    O     O_R   0.468120 0.366740 0.627160 -0.571029
O2    O     O_3   0.607452 0.407160 0.188341 -0.764411
O3    O     O_3   0.065270 0.303034 0.564304 -0.770158
O4    O     O_R   0.510770 0.544830 0.662520 -0.573566
O5    O     O_R   0.663880 0.410950 0.482330 -0.608359
O6    O     O_R   0.706530 0.589040 0.517700 -0.611095
O7    O     O_R   0.489230 0.455170 0.337480 -0.545902
O8    O     O_R   0.531880 0.633260 0.372840 -0.651275
O9    O     O_R   0.293470 0.410960 0.482300 -0.561396
O10   O     O_R   0.336120 0.589050 0.517670 -0.610607
O11   O     O_3   0.151834 0.628182 0.633490 -0.738582
Zn1   Zn    Zn3+2 0.471520 0.381090 0.476390 1.063094
Zn2   Zn    Zn3+2 0.528480 0.618910 0.523610 0.979962

loop_
_geom_bond_atom_site_label_1
_geom_bond_atom_site_label_2
_ccdc_geom_bond_type
C30   C32   S    
C30   H9    S    
C12   C29   S    
C16   O7    A    
H15   O11   S    
C25   N1    A    
C27   O10   A    
C7    C8    A    
C14   H4    S    
C30   H12   S    
C12   C23   S    
C28   C29   S    
N2    Zn2   S    
C36   C37   A    
C16   C35   S    
C5    C6    A    
C22   F3    S    
C20   C25   A    
C18   C19   A    
C1    C11   S    
C31   C33   S    
C10   C35   A    
C8    F1    S    
O7    Zn1   S    
C4    O6    A    
O4    Zn2   S    
C33   H14   S    
C21   C22   A    
C15   H6    S    
C29   H8    S    
C23   H18   S    
C1    O4    A    
C12   C27   S    
C23   C30   S    
C28   C32   S    
C9    O2    S    
C3    C8    A    
H16   O2    S    
C28   H2    S    
C1    O1    A    
C6    C34   A    
C25   F4    S    
C7    H20   S    
C5    C9    A    
C37   C38   A    
C2    C38   A    
C31   C32   S    
C38   H23   S    
C37   H24   S    
C17   C18   A    
C13   C21   A    
C19   N2    A    
C10   C34   A    
C31   H11   S    
C4    O5    A    
C4    C32   S    
C22   C24   A    
C13   C26   A    
C2    C5    A    
C26   N1    A    
O6    Zn2   S    
O9    Zn1   S    
C24   H7    S    
C15   C17   A    
C11   C36   A    
C16   O8    A    
C33   O11   S    
N1    Zn1   S    
C17   H5    S    
C27   O9    A    
O8    Zn2   S    
C6    C7    A    
C28   H1    S    
C2    C3    A    
C13   H3    S    
O10   Zn2   S    
C26   F2    S    
C23   H10   S    
C34   H21   S    
O5    Zn1   S    
C19   C24   A    
C18   C20   A    
C3    C11   A    
C10   H19   S    
C20   C21   A    
C9    C35   A    
C14   N2    A    
C14   C15   A    
O1    Zn1   S    
C31   H13   S    
C12   C33   S    
C36   H22   S    
H17   O3    S    
C29   O3    S    
