data_mof_unit_67667.cif
_audit_creation_date              2013-03-05T16:47:53-0500
_audit_creation_method            fapswitch 2.2
_symmetry_space_group_name_H-M    P1
_symmetry_Int_Tables_number       1
_space_group_crystal_system       triclinic
_cell_length_a                    11.386024
_cell_length_b                    11.318492
_cell_length_c                    10.023539
_cell_angle_alpha                 90.184542
_cell_angle_beta                  93.621623
_cell_angle_gamma                 99.403679
_cell_volume                      1271.73533003

loop_
_atom_site_label
_atom_site_type_symbol
_atom_site_description
_atom_site_fract_x
_atom_site_fract_y
_atom_site_fract_z
_atom_type_partial_charge
O1    O     O_R   0.499990 0.319640 0.618810 -0.598897
O2    O     O_R   0.500000 0.319660 0.381240 -0.507173
C1    C     C_R   0.504096 0.263433 0.500146 0.830708
O3    O     O_R   0.319640 0.500000 0.618780 -0.569442
O4    O     O_R   0.319650 0.500020 0.381210 -0.571840
C2    C     C_R   0.261815 0.495473 0.496579 0.787126
Cu1   Cu    Cu3+1 0.499990 0.499990 0.640660 1.061000
Cu2   Cu    Cu3+1 0.500010 0.500010 0.359340 1.073209
O5    O     O_R   0.500000 0.680340 0.618760 -0.498176
O6    O     O_R   0.500010 0.680360 0.381190 -0.556092
O7    O     O_R   0.680350 0.499980 0.618790 -0.505012
O8    O     O_R   0.680360 0.500000 0.381220 -0.536472
C3    C     C_R   0.491153 0.734879 0.499273 0.846250
C4    C     C_R   0.736770 0.497371 0.503394 0.839339
C5    C     C_R   0.198936 0.560790 0.072774 0.297763
C6    C     C_R   0.151816 0.561736 0.196394 0.427718
C7    C     C_R   0.088472 0.454068 0.246451 -0.253202
C8    C     C_R   0.071504 0.348543 0.167933 0.367571
C9    C     C_R   0.100113 0.355070 0.035182 0.456817
C10   C     C_R   0.162464 0.462305 0.985872 0.058098
C11   C     C_R   0.915922 0.432894 0.396678 0.211576
C12   C     C_R   0.869741 0.486604 0.505646 -0.148931
C13   C     C_R   0.956373 0.523741 0.611490 0.003615
C14   C     C_R   0.066988 0.482178 0.611929 0.210554
C15   C     C_R   0.124532 0.485844 0.492955 -0.181250
C16   C     C_R   0.043199 0.453681 0.379918 -0.031601
C17   C     C_R   0.981989 0.727538 0.714092 0.057778
C18   C     C_R   0.989881 0.800306 0.829546 0.134444
C19   C     C_R   0.965010 0.747702 0.952568 0.136971
C20   C     C_R   0.913943 0.626650 0.954877 -0.022463
C21   C     C_R   0.899929 0.554302 0.840399 0.189808
C22   C     C_R   0.940246 0.603548 0.721115 -0.065382
C23   C     C_R   0.432318 0.114034 0.721922 0.190998
C24   C     C_R   0.315994 0.067415 0.741970 0.095161
C25   C     C_R   0.307269 0.948721 0.780243 0.172112
C26   C     C_R   0.362205 0.873485 0.701361 0.378237
C27   C     C_R   0.443856 0.929016 0.606677 -0.088892
C28   C     C_R   0.476512 0.058275 0.615625 -0.089295
C29   C     C_R   0.506677 0.127577 0.501194 -0.141345
C30   C     C_R   0.514952 0.063252 0.381955 0.443155
C31   C     C_R   0.496711 0.935432 0.378775 0.331677
C32   C     C_R   0.478296 0.867096 0.496610 -0.197672
C33   C     C_R   0.626560 0.713504 0.139513 0.212909
C34   C     C_R   0.656553 0.815996 0.057943 0.151525
C35   C     C_R   0.656365 0.802021 0.921006 -0.029825
C36   C     C_R   0.632334 0.688532 0.866504 0.403237
C37   C     C_R   0.564037 0.594580 0.930751 0.024365
C38   C     C_R   0.562014 0.600136 0.077939 0.008950
N1    N     N_R   0.501190 0.501210 0.147910 -0.223923
C39   C     C_R   0.438381 0.410215 0.066913 0.246556
C40   C     C_R   0.433636 0.413241 0.922416 0.493099
N2    N     N_R   0.501230 0.501290 0.852040 -0.226319
O9    O     O_3   0.190946 0.467648 0.855298 -0.697268
H1    H     H_    0.199572 0.552165 0.826772 0.367521
I1    I     I_    0.007969 0.850364 0.133990 -0.053514
I2    I     I_    0.846486 0.553370 0.125103 -0.305711
I3    I     I_    0.812596 0.372269 0.846906 -0.108944
O10   O     O_3   0.536711 0.127360 0.267127 -0.648456
H2    H     H_    0.511846 0.075188 0.187775 0.396471
I4    I     I_    0.546469 0.161178 0.894451 -0.141096
I5    I     I_    0.212987 0.093553 0.559716 -0.250183
I6    I     I_    0.304057 0.917665 0.986047 -0.135557
O11   O     O_3   0.317677 0.753501 0.703452 -0.702924
H3    H     H_    0.289194 0.730164 0.610201 0.318259
O12   O     O_3   0.486067 0.879331 0.255976 -0.710697
H4    H     H_    0.411651 0.819763 0.252962 0.393882
I7    I     I_    0.336544 0.257649 0.150074 -0.158258
O13   O     O_3   0.284028 0.655992 0.042581 -0.655461
H5    H     H_    0.331475 0.632675 0.970486 0.335099
I8    I     I_    0.735793 0.750595 0.326839 -0.159925
I9    I     I_    0.734154 0.992160 0.131070 -0.019555
I10   I     I_    0.707306 0.944577 0.785694 -0.191834
O14   O     O_3   0.681755 0.666259 0.751451 -0.658312
H6    H     H_    0.752796 0.725949 0.736992 0.323272
O15   O     O_3   0.355839 0.323868 0.855598 -0.715312
H7    H     H_    0.349937 0.343483 0.760371 0.392240
O16   O     O_3   0.178668 0.667214 0.269483 -0.656336
H8    H     H_    0.119166 0.667361 0.336435 0.347620
O17   O     O_3   0.039671 0.235756 0.219957 -0.590243
H9    H     H_    0.055992 0.239898 0.318313 0.358350
O18   O     O_3   0.079704 0.250067 0.962328 -0.576649
H10   H     H_    0.146134 0.251171 0.903322 0.404124
I11   I     I_    0.799449 0.284278 0.304075 -0.088950
I12   I     I_    0.036501 0.297459 0.654442 -0.183738
I13   I     I_    0.026479 0.803082 0.528447 -0.256179
I14   I     I_    0.021526 0.989503 0.820600 -0.070857

loop_
_geom_bond_atom_site_label_1
_geom_bond_atom_site_label_2
_geom_bond_distance
_ccdc_geom_bond_type
C11   C16   1.450275 A    
O14   H6    0.984169 S    
C9    C10   1.409987 A    
O15   H7    0.981341 S    
O18   H10   0.987697 S    
Cu1   Cu2   2.819837 S    
O16   H8    0.983450 S    
Cu1   O7    2.078992 S    
C18   C19   1.396070 A    
C19   C20   1.399084 A    
O4    C2    1.363480 A    
C7    C16   1.463531 S    
C26   C27   1.443760 A    
C40   O15   1.372721 S    
Cu1   N2    2.117919 S    
C6    O16   1.379227 S    
C20   C21   1.393128 A    
O7    C4    1.360625 A    
C2    C15   1.547144 S    
C5    C6    1.381707 A    
C8    C9    1.389125 A    
C34   I9    2.150978 S    
C24   C25   1.387943 A    
C31   C32   1.421769 A    
C27   C32   1.414784 A    
C17   I13   2.106694 S    
O5    C3    1.354808 A    
O13   H5    0.989144 S    
C37   C38   1.478277 A    
C8    O17   1.381992 S    
C13   C14   1.414390 A    
C26   O11   1.370510 S    
C33   C38   1.482214 A    
C1    C29   1.542817 S    
C11   C12   1.418372 A    
C35   I10   2.141749 S    
O3    Cu1   2.051345 S    
C3    C32   1.527417 S    
C15   C16   1.424245 A    
C23   C24   1.370751 A    
C5    C10   1.403759 A    
C30   O10   1.376703 S    
C40   N2    1.380429 A    
C11   I11   2.134303 S    
C14   C15   1.394024 A    
O3    C2    1.350235 A    
C29   C30   1.413670 A    
C6    C7    1.421077 A    
C31   O12   1.372558 S    
C19   I1    2.141178 S    
C39   C40   1.446689 A    
O10   H2    0.987622 S    
O9    H1    0.990507 S    
C20   I2    2.038559 S    
C24   I5    2.155589 S    
O11   H3    0.990326 S    
O1    C1    1.354083 A    
C25   C26   1.404910 A    
C33   C34   1.429263 A    
C27   C28   1.450475 A    
C21   C22   1.393206 A    
Cu2   O8    2.051345 S    
C7    C8    1.408053 A    
C30   C31   1.427542 A    
O8    C4    1.349154 A    
N1    C39   1.382717 A    
C33   I8    2.185871 S    
C18   I14   2.115834 S    
C34   C35   1.380996 A    
C39   I7    2.120916 S    
Cu1   O5    2.053744 S    
C36   C37   1.395590 A    
C38   N1    1.427678 A    
C17   C22   1.409691 A    
O1    Cu1   2.052304 S    
O2    Cu2   2.053745 S    
C10   O9    1.367313 S    
O6    C3    1.350032 A    
O4    Cu2   2.078992 S    
C37   N2    1.387582 A    
C23   I4    2.109065 S    
C23   C28   1.397823 A    
C13   C22   1.459580 S    
C21   I3    2.139532 S    
O2    C1    1.354724 A    
C14   I12   2.112003 S    
C4    C12   1.537392 S    
C28   C29   1.419995 A    
C5    O13   1.374549 S    
C25   I6    2.095322 S    
O17   H9    0.991156 S    
C35   C36   1.372979 A    
Cu2   O6    2.052303 S    
O12   H4    0.991645 S    
C17   C18   1.407911 A    
C12   C13   1.415861 A    
C9    O18   1.372038 S    
Cu2   N1    2.120241 S    
C36   O14   1.355220 S    
