data_mof_unit_27490.cif
_audit_creation_date              2012-12-10T19:57:56-0500
_audit_creation_method            fapswitch 2.2
_symmetry_space_group_name_H-M    P1
_symmetry_Int_Tables_number       1
_space_group_crystal_system       triclinic
_cell_length_a                    21.146513
_cell_length_b                    20.974943
_cell_length_c                    14.194838
_cell_angle_alpha                 90.326266
_cell_angle_beta                  90.058083
_cell_angle_gamma                 89.93443
_cell_volume                      6295.9670636

loop_
_atom_site_label
_atom_site_type_symbol
_atom_type_description
_atom_site_fract_x
_atom_site_fract_y
_atom_site_fract_z
_atom_type_partial_charge
C1    C     C_R   0.086713 0.414552 0.499938 0.916968
C2    C     C_R   0.914522 0.586552 0.499986 0.914059
C3    C     C_R   0.913267 0.414259 0.499961 0.920775
C4    C     C_R   0.086307 0.585984 0.500214 0.906299
C5    C     C_R   0.586818 0.914430 0.499871 0.899014
C6    C     C_R   0.413946 0.086265 0.500009 0.904637
C7    C     C_R   0.414541 0.913289 0.499900 0.908463
C8    C     C_R   0.585149 0.086534 0.500247 0.906059
C9    C     C_R   0.779515 0.315231 0.588249 0.492754
C10   C     C_R   0.193077 0.718181 0.430840 0.469674
C11   C     C_R   0.236517 0.664351 0.569062 0.430054
C12   C     C_R   0.801063 0.288144 0.422065 0.465295
C13   C     C_R   0.240864 0.338739 0.438699 0.478732
C14   C     C_R   0.839736 0.742294 0.551666 0.443865
C15   C     C_R   0.776932 0.685580 0.431844 0.489437
C16   C     C_R   0.188805 0.278644 0.565889 0.466829
C17   C     C_R   0.275174 0.816195 0.562454 0.483059
C18   C     C_R   0.657001 0.246423 0.514268 0.507499
C19   C     C_R   0.740380 0.165213 0.502940 0.507237
C20   C     C_R   0.340852 0.755373 0.450877 0.464873
C21   C     C_R   0.733339 0.830247 0.424287 0.470939
C22   C     C_R   0.331821 0.235119 0.569017 0.466781
C23   C     C_R   0.284366 0.194177 0.422640 0.488107
C24   C     C_R   0.696403 0.785349 0.573851 0.471840
C25   C     C_R   0.827685 0.360769 0.583768 -0.399230
C26   C     C_R   0.142267 0.676165 0.430784 -0.319157
C27   C     C_R   0.184709 0.623994 0.569764 -0.332522
C28   C     C_R   0.849407 0.332751 0.420423 -0.334537
C29   C     C_R   0.189605 0.381373 0.439622 -0.382300
C30   C     C_R   0.880760 0.690758 0.556322 -0.328015
C31   C     C_R   0.819920 0.635260 0.435914 -0.351724
C32   C     C_R   0.138194 0.320624 0.563489 -0.314423
C33   C     C_R   0.316751 0.866883 0.557087 -0.312838
C34   C     C_R   0.611900 0.198530 0.512128 -0.377326
C35   C     C_R   0.694719 0.118369 0.495900 -0.308548
C36   C     C_R   0.383583 0.806355 0.449360 -0.310874
C37   C     C_R   0.683174 0.873344 0.426725 -0.335300
C38   C     C_R   0.371836 0.183130 0.571279 -0.313191
C39   C     C_R   0.326399 0.142899 0.425266 -0.355562
C40   C     C_R   0.645622 0.827421 0.573211 -0.340680
C41   C     C_R   0.862639 0.368503 0.501005 -0.144728
C42   C     C_R   0.138034 0.629987 0.500803 -0.157566
C43   C     C_R   0.138758 0.371018 0.500333 -0.137011
C44   C     C_R   0.870421 0.637921 0.498719 -0.143932
C45   C     C_R   0.370266 0.861837 0.500535 -0.142401
C46   C     C_R   0.631265 0.135377 0.501330 -0.132050
C47   C     C_R   0.638943 0.870568 0.499542 -0.151675
C48   C     C_R   0.369493 0.137785 0.499405 -0.150235
C49   C     C_R   0.987170 0.444373 0.104772 -0.407528
C50   C     C_R   0.988708 0.556316 0.895047 -0.396016
C51   C     C_R   0.012029 0.556041 0.105861 -0.394046
C52   C     C_R   0.010980 0.444017 0.894421 -0.391465
C53   C     C_R   0.481914 0.945834 0.104558 -0.377108
C54   C     C_R   0.483905 0.055375 0.895270 -0.371545
C55   C     C_R   0.512331 0.055996 0.105499 -0.403032
C56   C     C_R   0.511222 0.944390 0.895113 -0.400997
C57   C     C_R   0.768113 0.278799 0.506675 -0.020537
C58   C     C_R   0.238629 0.713279 0.502393 0.014128
C59   C     C_R   0.238432 0.287214 0.501551 -0.000123
C60   C     C_R   0.786738 0.737852 0.492538 0.015408
C61   C     C_R   0.287095 0.761320 0.508169 -0.018987
C62   C     C_R   0.721087 0.229332 0.509587 -0.040269
C63   C     C_R   0.738878 0.786445 0.497990 0.015859
C64   C     C_R   0.286747 0.238975 0.496574 0.013364
C65   C     C_R   0.990183 0.444307 0.204415 0.542813
C66   C     C_R   0.991074 0.555948 0.795535 0.544156
C67   C     C_R   0.009324 0.555764 0.205260 0.541661
C68   C     C_R   0.008399 0.444142 0.795036 0.541847
C69   C     C_R   0.486791 0.945191 0.203552 0.543922
C70   C     C_R   0.488102 0.055358 0.796241 0.543594
C71   C     C_R   0.511433 0.055476 0.205178 0.527774
C72   C     C_R   0.510064 0.944493 0.795418 0.531358
C73   C     C_R   0.999784 0.500214 0.053423 0.089650
C74   C     C_R   0.999948 0.500230 0.946626 0.084111
C75   C     C_R   0.496860 0.000819 0.053379 0.083852
C76   C     C_R   0.497204 0.000122 0.946853 0.081775
H1    H     H_    0.838787 0.390841 0.643351 0.163359
H2    H     H_    0.105448 0.680588 0.378180 0.188727
H3    H     H_    0.181856 0.587102 0.622780 0.176246
H4    H     H_    0.877660 0.338248 0.357536 0.200402
H5    H     H_    0.187919 0.422986 0.395290 0.156824
H6    H     H_    0.920597 0.691854 0.604197 0.185240
H7    H     H_    0.813549 0.592988 0.393186 0.153175
H8    H     H_    0.097482 0.312931 0.608272 0.181642
H9    H     H_    0.306962 0.910485 0.595717 0.170363
H10   H     H_    0.562253 0.210492 0.518700 0.133710
H11   H     H_    0.708628 0.068852 0.487985 0.156396
H12   H     H_    0.427532 0.803103 0.410708 0.159201
H13   H     H_    0.678701 0.909248 0.372731 0.160976
H14   H     H_    0.405209 0.178744 0.628735 0.211724
H15   H     H_    0.324250 0.105609 0.372419 0.161941
H16   H     H_    0.610600 0.825472 0.628452 0.192414
N1    N     N_R   1.000000 0.500000 0.252470 -0.161472
N2    N     N_R   0.000000 0.500000 0.747530 -0.165598
N3    N     N_R   0.500000 0.000000 0.252470 -0.168753
N4    N     N_R   0.500000 0.000000 0.747530 -0.168149
O1    O     O_R   0.065470 0.434530 0.579480 -0.577297
O2    O     O_R   0.934530 0.565470 0.420520 -0.632702
O3    O     O_R   0.934530 0.565470 0.579480 -0.569960
O4    O     O_R   0.065470 0.434530 0.420520 -0.619069
O5    O     O_R   0.934530 0.434530 0.420520 -0.576653
O6    O     O_R   0.065470 0.565470 0.579480 -0.629845
O7    O     O_R   0.065470 0.565470 0.420520 -0.575225
O8    O     O_R   0.934530 0.434530 0.579480 -0.632764
O9    O     O_R   0.565470 0.934530 0.579480 -0.569595
O10   O     O_R   0.434530 0.065470 0.420520 -0.626748
O11   O     O_R   0.434530 0.065470 0.579480 -0.581122
O12   O     O_R   0.565470 0.934530 0.420520 -0.642422
O13   O     O_R   0.434530 0.934530 0.420520 -0.570943
O14   O     O_R   0.565470 0.065470 0.579480 -0.642890
O15   O     O_R   0.565470 0.065470 0.420520 -0.560648
O16   O     O_R   0.434530 0.934530 0.579480 -0.625837
Zn1   Zn    Zn3+2 1.000000 0.500000 0.606140 0.991712
Zn2   Zn    Zn3+2 1.000000 0.500000 0.393860 0.992462
Zn3   Zn    Zn3+2 0.500000 0.000000 0.606140 0.983323
Zn4   Zn    Zn3+2 0.500000 1.000000 0.393860 0.987599
H17   H     H_    0.974296 0.400813 0.068643 0.157836
H18   H     H_    0.977099 0.600396 0.930786 0.158294
H19   H     H_    0.023920 0.600099 0.070989 0.160045
H20   H     H_    0.021861 0.399778 0.929543 0.159438
H21   H     H_    0.466178 0.903326 0.068185 0.158001
H22   H     H_    0.469772 0.098680 0.931219 0.160167
H23   H     H_    0.526204 0.099174 0.069722 0.155379
H24   H     H_    0.523701 0.900859 0.931211 0.155600
O17   O     O_3   0.741065 0.303943 0.666880 -0.614187
C77   C     C_3   0.758347 0.336052 0.750990 0.112690
H25   H     H_    0.738125 0.308825 0.810696 0.154218
H26   H     H_    0.810177 0.335152 0.764008 0.068606
C78   C     C_3   0.730949 0.404039 0.755035 -0.377625
H27   H     H_    0.748334 0.428070 0.820028 0.170693
H28   H     H_    0.746876 0.432560 0.693990 0.215302
C79   C     C_3   0.658817 0.403975 0.756133 -0.789578
H29   H     H_    0.640120 0.379430 0.692550 0.311311
H30   H     H_    0.641122 0.453835 0.756508 0.231769
H31   H     H_    0.641226 0.379867 0.820308 0.235610
O18   O     O_3   0.196563 0.767320 0.366239 -0.635346
C80   C     C_3   0.205409 0.741850 0.274800 0.071379
H32   H     H_    0.159378 0.725151 0.245814 0.145501
H33   H     H_    0.239708 0.701337 0.274613 0.140482
C81   C     C_3   0.231435 0.794104 0.211170 -0.301050
H34   H     H_    0.197141 0.834254 0.208282 0.231199
H35   H     H_    0.276617 0.812304 0.241040 0.228318
C82   C     C_3   0.243294 0.769239 0.111486 -1.006738
H36   H     H_    0.278667 0.730041 0.112577 0.257515
H37   H     H_    0.261857 0.808396 0.067080 0.267269
H38   H     H_    0.198571 0.751450 0.079765 0.267483
O19   O     O_3   0.283287 0.657609 0.636321 -0.670925
C83   C     C_3   0.324619 0.607919 0.608297 0.094685
H39   H     H_    0.362313 0.628194 0.563139 0.184287
H40   H     H_    0.300589 0.568795 0.568221 0.130399
C84   C     C_3   0.354672 0.578496 0.695704 -0.337780
H41   H     H_    0.378714 0.616057 0.737829 0.232323
H42   H     H_    0.317095 0.556969 0.739998 0.221596
C85   C     C_3   0.402648 0.527145 0.669026 -1.006098
H43   H     H_    0.379139 0.488069 0.629172 0.266945
H44   H     H_    0.423846 0.507107 0.734017 0.268973
H45   H     H_    0.441006 0.547683 0.625258 0.269803
O20   O     O_3   0.789382 0.248397 0.345491 -0.593373
C86   C     C_3   0.772886 0.284434 0.265276 0.083957
H46   H     H_    0.816180 0.304573 0.232566 0.106687
H47   H     H_    0.739778 0.324220 0.282740 0.112750
C87   C     C_3   0.741440 0.240723 0.192451 -0.347527
H48   H     H_    0.734630 0.267428 0.125785 0.160207
H49   H     H_    0.772934 0.199425 0.177476 0.232304
C88   C     C_3   0.677259 0.216472 0.226140 -0.778763
H50   H     H_    0.682037 0.190920 0.294104 0.290982
H51   H     H_    0.657308 0.183020 0.173015 0.245952
H52   H     H_    0.643912 0.256960 0.234846 0.213950
O21   O     O_3   0.293434 0.342138 0.378661 -0.645422
C89   C     C_3   0.298099 0.397613 0.322825 0.110207
H53   H     H_    0.253506 0.409208 0.285437 0.083341
H54   H     H_    0.331684 0.386981 0.264651 0.162723
C90   C     C_3   0.324082 0.454337 0.379862 -0.375893
H55   H     H_    0.315562 0.499053 0.340169 0.183646
H56   H     H_    0.299171 0.458574 0.448468 0.212547
C91   C     C_3   0.395062 0.447604 0.397519 -0.893505
H57   H     H_    0.406328 0.400254 0.427345 0.277236
H58   H     H_    0.410951 0.484926 0.447903 0.248582
H59   H     H_    0.421501 0.453080 0.330494 0.246976
O22   O     O_3   0.846875 0.794002 0.611753 -0.663236
C92   C     C_3   0.900072 0.829810 0.583858 0.065580
H60   H     H_    0.895147 0.845255 0.509119 0.164477
H61   H     H_    0.944334 0.801532 0.591988 0.143569
C93   C     C_3   0.904915 0.889021 0.646594 -0.335158
H62   H     H_    0.861479 0.918397 0.638352 0.225872
H63   H     H_    0.908646 0.874219 0.721490 0.224967
C94   C     C_3   0.962564 0.929129 0.621355 -0.943593
H64   H     H_    0.006614 0.900883 0.630459 0.271863
H65   H     H_    0.964901 0.971508 0.668418 0.268313
H66   H     H_    0.959194 0.945624 0.547291 0.270486
O23   O     O_3   0.720992 0.682005 0.380024 -0.624322
C95   C     C_3   0.730163 0.658236 0.287257 0.107416
H67   H     H_    0.780454 0.658572 0.263591 0.068133
H68   H     H_    0.704962 0.690415 0.238012 0.146696
C96   C     C_3   0.702292 0.590997 0.276399 -0.357673
H69   H     H_    0.711228 0.573620 0.203509 0.168230
H70   H     H_    0.725699 0.557471 0.325417 0.207164
C97   C     C_3   0.631227 0.589628 0.294900 -0.820358
H71   H     H_    0.620517 0.608064 0.366633 0.290791
H72   H     H_    0.613890 0.539777 0.289658 0.228211
H73   H     H_    0.605843 0.618593 0.241790 0.246222
O24   O     O_3   0.186844 0.224364 0.621220 -0.609668
C98   C     C_3   0.186454 0.241586 0.717695 0.128776
H74   H     H_    0.140436 0.263466 0.737381 0.090307
H75   H     H_    0.224876 0.276076 0.734894 0.168013
C99   C     C_3   0.195062 0.181966 0.777965 -0.378054
H76   H     H_    0.191393 0.195561 0.853570 0.163001
H77   H     H_    0.156632 0.147446 0.761879 0.224407
C100  C     C_3   0.259026 0.149970 0.761119 -0.722541
H78   H     H_    0.262972 0.133482 0.686872 0.286072
H79   H     H_    0.263713 0.107923 0.807788 0.215504
H80   H     H_    0.298133 0.183627 0.777215 0.265193
O25   O     O_3   0.219497 0.822781 0.612730 -0.611860
C101  C     C_3   0.228791 0.803179 0.707136 0.106499
H81   H     H_    0.269453 0.769908 0.716858 0.125115
H82   H     H_    0.186131 0.776375 0.729457 0.162395
C102  C     C_3   0.237292 0.860682 0.773019 -0.409004
H83   H     H_    0.241405 0.843328 0.846620 0.180734
H84   H     H_    0.281831 0.886003 0.755723 0.203409
C103  C     C_3   0.181759 0.907117 0.767194 -0.761561
H85   H     H_    0.178234 0.927601 0.695401 0.285246
H86   H     H_    0.189010 0.946739 0.818261 0.224709
H87   H     H_    0.136838 0.882518 0.784667 0.248854
O26   O     O_3   0.639555 0.309513 0.527093 -0.607473
C104  C     C_3   0.613131 0.333069 0.442775 0.072900
H88   H     H_    0.563750 0.315677 0.435316 0.115657
H89   H     H_    0.640751 0.318034 0.379590 0.123380
C105  C     C_3   0.611659 0.405990 0.445912 -0.346022
H90   H     H_    0.587901 0.423819 0.381317 0.167496
H91   H     H_    0.583844 0.422411 0.507737 0.225299
C106  C     C_3   0.678012 0.434469 0.451638 -0.804184
H92   H     H_    0.701727 0.419795 0.517837 0.290162
H93   H     H_    0.674711 0.487285 0.451308 0.241627
H94   H     H_    0.706927 0.418824 0.390449 0.228975
O27   O     O_3   0.803566 0.148493 0.496189 -0.611524
C107  C     C_3   0.831196 0.147341 0.587090 0.068638
H95   H     H_    0.881197 0.162748 0.579835 0.172948
H96   H     H_    0.808804 0.181102 0.638272 0.128824
C108  C     C_3   0.830159 0.079526 0.626527 -0.351136
H97   H     H_    0.780432 0.063915 0.636376 0.213632
H98   H     H_    0.853387 0.046418 0.575815 0.241896
C109  C     C_3   0.864413 0.076097 0.721033 -0.972859
H99   H     H_    0.914830 0.089740 0.712650 0.269438
H100  H     H_    0.862249 0.026635 0.748288 0.266128
H101  H     H_    0.841651 0.108527 0.773069 0.270402
O28   O     O_3   0.351017 0.697194 0.405268 -0.651806
C110  C     C_3   0.382464 0.701943 0.317584 0.097058
H102  H     H_    0.382487 0.750658 0.286827 0.104608
H103  H     H_    0.356202 0.672097 0.265864 0.141937
C111  C     C_3   0.449916 0.675602 0.325221 -0.367138
H104  H     H_    0.472349 0.676955 0.254664 0.187075
H105  H     H_    0.478359 0.705504 0.374174 0.213011
C112  C     C_3   0.450631 0.606698 0.359167 -0.810780
H106  H     H_    0.431686 0.603623 0.431834 0.272245
H107  H     H_    0.499852 0.588400 0.359576 0.234291
H108  H     H_    0.421892 0.576246 0.311357 0.249406
O29   O     O_3   0.780434 0.832941 0.356033 -0.639560
C113  C     C_3   0.755240 0.833201 0.263423 0.107522
H109  H     H_    0.703526 0.823446 0.259787 0.085892
H110  H     H_    0.778150 0.794110 0.222748 0.142338
C114  C     C_3   0.769246 0.896786 0.215095 -0.368700
H111  H     H_    0.744100 0.898061 0.146329 0.170059
H112  H     H_    0.751463 0.936996 0.258831 0.221228
C115  C     C_3   0.839852 0.905954 0.197720 -0.796155
H113  H     H_    0.866613 0.903592 0.264989 0.286768
H114  H     H_    0.848009 0.953337 0.165469 0.236370
H115  H     H_    0.857582 0.868713 0.148539 0.240844
O30   O     O_3   0.332125 0.277605 0.643934 -0.667679
C116  C     C_3   0.370353 0.330780 0.622221 0.046618
H116  H     H_    0.359079 0.368667 0.674576 0.177189
H117  H     H_    0.358783 0.350801 0.551982 0.156798
C117  C     C_3   0.441151 0.314623 0.629323 -0.370166
H118  H     H_    0.449849 0.286093 0.693680 0.241352
H119  H     H_    0.455807 0.285980 0.566938 0.205921
C118  C     C_3   0.481809 0.374458 0.633860 -0.969121
H120  H     H_    0.472487 0.405336 0.572160 0.264306
H121  H     H_    0.532411 0.360609 0.633664 0.283186
H122  H     H_    0.471978 0.401408 0.699737 0.272224
O31   O     O_3   0.235466 0.197590 0.357079 -0.605823
C119  C     C_3   0.258177 0.189739 0.264004 0.126432
H123  H     H_    0.269036 0.138775 0.249676 0.087969
H124  H     H_    0.301239 0.218923 0.251071 0.130415
C120  C     C_3   0.206972 0.209498 0.193793 -0.338541
H125  H     H_    0.223530 0.198414 0.121216 0.160406
H126  H     H_    0.163300 0.181509 0.206834 0.224618
C121  C     C_3   0.191866 0.280542 0.200332 -0.806904
H127  H     H_    0.171620 0.292475 0.270378 0.285556
H128  H     H_    0.156781 0.293185 0.145340 0.216347
H129  H     H_    0.235262 0.309077 0.188418 0.242653
O32   O     O_3   0.701352 0.738098 0.641515 -0.614450
C122  C     C_3   0.709461 0.765912 0.731714 0.127598
H130  H     H_    0.664218 0.787072 0.756752 0.100635
H131  H     H_    0.746455 0.803789 0.731346 0.162883
C123  C     C_3   0.728726 0.714542 0.802305 -0.382753
H132  H     H_    0.731290 0.736230 0.873839 0.161896
H133  H     H_    0.692167 0.676513 0.803474 0.222552
C124  C     C_3   0.792836 0.684949 0.778525 -0.722960
H134  H     H_    0.790727 0.660045 0.709365 0.288927
H135  H     H_    0.805765 0.649595 0.833206 0.216790
H136  H     H_    0.830027 0.722252 0.776592 0.256485
O33   O     O_3   0.977125 0.389700 0.255121 -0.627167
C125  C     C_3   0.017779 0.338669 0.229894 0.073720
H137  H     H_    0.044399 0.324439 0.293988 0.179754
H138  H     H_    0.053908 0.350591 0.175486 0.113704
C126  C     C_3   0.978023 0.281973 0.196515 -0.359110
H139  H     H_    0.944808 0.267903 0.253339 0.239644
H140  H     H_    0.949748 0.295840 0.133873 0.209194
C127  C     C_3   0.019448 0.224882 0.170958 -0.946682
H141  H     H_    0.051761 0.237131 0.112159 0.256701
H142  H     H_    0.989090 0.184449 0.148275 0.268211
H143  H     H_    0.047680 0.209800 0.232994 0.275693
O34   O     O_3   0.978160 0.610861 0.745537 -0.620464
C128  C     C_3   0.025056 0.657945 0.761424 0.082008
H144  H     H_    0.047098 0.669011 0.692407 0.178402
H145  H     H_    0.064255 0.643067 0.809418 0.113068
C129  C     C_3   0.994041 0.718646 0.800111 -0.366257
H146  H     H_    0.953642 0.732445 0.754503 0.235804
H147  H     H_    0.975562 0.709641 0.872029 0.212472
C130  C     C_3   0.040901 0.773874 0.804098 -0.981631
H148  H     H_    0.081639 0.761708 0.850112 0.262792
H149  H     H_    0.017111 0.816909 0.833144 0.268639
H150  H     H_    0.058380 0.785016 0.732264 0.270711
O35   O     O_3   0.020458 0.611116 0.255880 -0.626466
C131  C     C_3   0.971220 0.655938 0.241384 0.078003
H151  H     H_    0.946653 0.663652 0.309608 0.180623
H152  H     H_    0.934349 0.640728 0.189432 0.107961
C132  C     C_3   0.999635 0.719333 0.210149 -0.362787
H153  H     H_    0.034656 0.735864 0.263313 0.229205
H154  H     H_    0.024413 0.712665 0.141790 0.214692
C133  C     C_3   0.948617 0.770233 0.199161 -0.968662
H155  H     H_    0.913689 0.755420 0.144796 0.255243
H156  H     H_    0.970709 0.815717 0.176927 0.270277
H157  H     H_    0.923771 0.778303 0.267156 0.278648
O36   O     O_3   0.017730 0.388202 0.744893 -0.624648
C134  C     C_3   0.966125 0.346021 0.757984 0.084776
H158  H     H_    0.944808 0.336233 0.687957 0.179487
H159  H     H_    0.927420 0.365117 0.803810 0.102485
C135  C     C_3   0.989846 0.282755 0.797688 -0.367933
H160  H     H_    0.025307 0.261829 0.748774 0.223956
H161  H     H_    0.012894 0.291020 0.867036 0.213334
C136  C     C_3   0.935625 0.235504 0.809764 -0.978082
H162  H     H_    0.900217 0.254598 0.860367 0.258356
H163  H     H_    0.954328 0.189781 0.837364 0.270927
H164  H     H_    0.912170 0.226167 0.740999 0.261540
O37   O     O_3   0.475467 0.889338 0.251536 -0.631079
C137  C     C_3   0.530821 0.851169 0.251540 0.129366
H165  H     H_    0.532972 0.826847 0.320812 0.162589
H166  H     H_    0.575684 0.878980 0.245238 0.119742
C138  C     C_3   0.527515 0.800191 0.173904 -0.409607
H167  H     H_    0.481047 0.775749 0.177040 0.222327
H168  H     H_    0.532162 0.822486 0.103656 0.212415
C139  C     C_3   0.580498 0.751345 0.183919 -1.004101
H169  H     H_    0.626643 0.773758 0.167651 0.255446
H170  H     H_    0.572736 0.711542 0.133347 0.263073
H171  H     H_    0.581748 0.731872 0.256485 0.278428
O38   O     O_3   0.475703 0.110985 0.748264 -0.639612
C140  C     C_3   0.531464 0.148043 0.742065 0.125094
H172  H     H_    0.529600 0.173258 0.673625 0.168001
H173  H     H_    0.575901 0.119170 0.741895 0.140241
C141  C     C_3   0.534373 0.198145 0.820852 -0.444514
H174  H     H_    0.488197 0.223192 0.826427 0.235072
H175  H     H_    0.544517 0.174697 0.889098 0.212995
C142  C     C_3   0.586408 0.246784 0.802263 -0.908716
H176  H     H_    0.633115 0.222717 0.797064 0.273095
H177  H     H_    0.587988 0.281656 0.861294 0.252277
H178  H     H_    0.576930 0.272739 0.735761 0.285806
O39   O     O_3   0.528269 0.109294 0.255764 -0.609312
C143  C     C_3   0.481524 0.156940 0.245736 0.100746
H179  H     H_    0.432986 0.137231 0.255694 0.129516
H180  H     H_    0.484973 0.179075 0.174877 0.117545
C144  C     C_3   0.492902 0.208314 0.320729 -0.316178
H181  H     H_    0.489005 0.186701 0.391696 0.222983
H182  H     H_    0.541447 0.227687 0.312772 0.212399
C145  C     C_3   0.445406 0.262836 0.313461 -0.990701
H183  H     H_    0.447846 0.285263 0.242880 0.261132
H184  H     H_    0.456210 0.299487 0.367778 0.261585
H185  H     H_    0.396876 0.245057 0.326028 0.279888
O40   O     O_3   0.523463 0.889456 0.745468 -0.625700
C146  C     C_3   0.473164 0.845807 0.755804 0.077669
H186  H     H_    0.426729 0.868749 0.739989 0.147544
H187  H     H_    0.472219 0.826540 0.828696 0.118410
C147  C     C_3   0.483110 0.790363 0.687099 -0.321202
H188  H     H_    0.487146 0.808922 0.614159 0.227388
H189  H     H_    0.527746 0.765164 0.705069 0.215230
C148  C     C_3   0.428655 0.743000 0.691112 -0.943460
H190  H     H_    0.424411 0.723091 0.763140 0.253149
H191  H     H_    0.437711 0.703465 0.640595 0.270862
H192  H     H_    0.383598 0.766604 0.671674 0.268611

loop_
_geom_bond_atom_site_label_1
_geom_bond_atom_site_label_2
_ccdc_geom_bond_type
C77   H25   S    
C33   C45   A    
C122  H130  S    
C83   C84   S    
C53   C69   A    
C5    O9    A    
O33   C125  S    
C98   H75   S    
C140  H172  S    
C87   H48   S    
O2    Zn2   S    
C71   N3    A    
C111  H105  S    
C82   H36   S    
C22   C38   A    
C104  C105  S    
C141  H174  S    
C17   C61   A    
C91   H59   S    
C118  H120  S    
C131  H151  S    
C56   C72   A    
C4    O6    A    
C109  H100  S    
C86   H47   S    
C127  H143  S    
C96   C97   S    
C58   C61   S    
C90   H56   S    
C53   C75   A    
C16   O24   S    
C39   H15   S    
C105  H90   S    
C87   H49   S    
C92   H61   S    
C80   C81   S    
C55   H23   S    
C109  H101  S    
O24   C98   S    
O35   C131  S    
C95   C96   S    
C81   H34   S    
C8    O15   A    
C25   C41   A    
C134  H159  S    
C99   H76   S    
C77   C78   S    
O25   C101  S    
C129  H146  S    
C30   H6    S    
C75   C76   S    
C87   C88   S    
C54   C70   A    
C11   C27   A    
C139  H169  S    
C118  H122  S    
C6    O10   A    
C142  H176  S    
C131  C132  S    
C85   H43   S    
C23   C64   A    
C24   C63   A    
C116  H117  S    
O20   C86   S    
C49   C73   A    
C114  H112  S    
C110  C111  S    
C15   O23   S    
C23   O31   S    
C121  H129  S    
C69   N3    A    
C38   H14   S    
C19   C35   A    
C121  H128  S    
C21   O29   S    
C117  C118  S    
C70   O38   S    
C106  H94   S    
N1    Zn2   S    
C84   H42   S    
C9    O17   S    
C134  H158  S    
C72   N4    A    
C132  H153  S    
C79   H30   S    
C97   H72   S    
O40   C146  S    
C143  C144  S    
C55   C71   A    
C148  H191  S    
C130  H149  S    
C138  H167  S    
C15   C60   A    
O19   C83   S    
C81   C82   S    
C36   H12   S    
C26   H2    S    
C129  C130  S    
C122  H131  S    
C83   H40   S    
C52   C74   A    
C50   C74   A    
C112  H106  S    
C101  H82   S    
C128  H145  S    
C89   H53   S    
C139  H171  S    
C93   H62   S    
O29   C113  S    
C20   C61   A    
C33   H9    S    
C145  H183  S    
C35   H11   S    
C1    C43   S    
C49   H17   S    
C2    C44   S    
C115  H113  S    
C126  H140  S    
C51   H19   S    
C34   C46   A    
C37   C47   A    
C11   C58   A    
C38   C48   A    
C55   C75   A    
C3    O5    A    
C13   O21   S    
C88   H51   S    
C120  C121  S    
C124  H135  S    
C103  H85   S    
N2    Zn1   S    
C127  H142  S    
C136  H163  S    
C125  H138  S    
O7    Zn2   S    
O4    Zn2   S    
C119  H123  S    
C132  H154  S    
C66   O34   S    
O36   C134  S    
C18   C62   A    
C146  C147  S    
C65   O33   S    
C102  H83   S    
C68   N2    A    
C96   H69   S    
C145  H185  S    
C95   H68   S    
C70   N4    A    
C8    O14   A    
C18   C34   A    
C137  H166  S    
N3    Zn4   S    
C84   H41   S    
C144  C145  S    
C100  H78   S    
C108  H98   S    
C51   C67   A    
C67   O35   S    
C12   C57   A    
C2    O3    A    
C138  C139  S    
C135  H161  S    
C142  H178  S    
C26   C42   A    
C137  C138  S    
C78   H27   S    
O28   C110  S    
C77   H26   S    
C50   H18   S    
O9    Zn3   S    
O18   C80   S    
C71   O39   S    
C114  C115  S    
C15   C31   A    
C13   C59   A    
C16   C32   A    
C135  C136  S    
C14   C60   A    
C93   C94   S    
C113  H109  S    
C27   C42   A    
C4    C42   S    
C111  C112  S    
C115  H115  S    
C104  H89   S    
C32   C43   A    
C105  C106  S    
C8    C46   S    
O8    Zn1   S    
C131  H152  S    
C120  H125  S    
C67   N1    A    
C12   O20   S    
C5    O12   A    
C141  C142  S    
C24   O32   S    
C96   H70   S    
C82   H38   S    
C147  H188  S    
C73   C74   S    
C108  H97   S    
C119  C120  S    
O26   C104  S    
C105  H91   S    
C9    C25   A    
C146  H186  S    
C92   H60   S    
C102  C103  S    
C80   H33   S    
C133  H156  S    
C12   C28   A    
C56   H24   S    
C13   C29   A    
C81   H35   S    
C14   O22   S    
C123  H132  S    
C99   H77   S    
C136  H164  S    
C144  H181  S    
C28   C41   A    
C100  H80   S    
C129  H147  S    
O32   C122  S    
C124  H134  S    
C143  H179  S    
C94   H66   S    
O13   Zn4   S    
C72   O40   S    
C133  H157  S    
C139  H170  S    
O27   C107  S    
O15   Zn4   S    
C18   O26   S    
C85   H44   S    
C78   C79   S    
C140  H173  S    
C116  H116  S    
C29   C43   A    
O5    Zn2   S    
C30   C44   A    
C17   C33   A    
C1    O4    A    
C141  H175  S    
C110  H103  S    
C32   H8    S    
C98   C99   S    
C85   H45   S    
C133  H155  S    
C147  C148  S    
C111  H104  S    
C136  H162  S    
O23   C95   S    
O10   Zn4   S    
C29   H5    S    
C112  H108  S    
C86   H46   S    
C109  H99   S    
C86   C87   S    
C106  H93   S    
C6    C48   S    
C123  C124  S    
O17   C77   S    
O22   C92   S    
C148  H190  S    
C92   C93   S    
C10   C58   A    
C10   O18   S    
C19   O27   S    
O3    Zn1   S    
C134  C135  S    
C107  C108  S    
C140  C141  S    
C37   H13   S    
O12   Zn4   S    
O31   C119  S    
C94   H64   S    
O6    Zn1   S    
C53   H21   S    
C11   O19   S    
C128  H144  S    
C114  H111  S    
C89   H54   S    
C69   O37   S    
C65   N1    A    
C93   H63   S    
C145  H184  S    
C21   C63   A    
C22   C64   A    
C130  H148  S    
C20   C36   A    
C21   C37   A    
O30   C116  S    
C115  H114  S    
C126  H139  S    
C116  C117  S    
C35   C46   A    
O14   Zn3   S    
C39   C48   A    
C89   C90   S    
C3    O8    A    
C40   C47   A    
C98   H74   S    
C88   H50   S    
C56   C76   A    
C120  H126  S    
O21   C89   S    
O39   C143  S    
C103  H86   S    
C57   C62   S    
C90   H55   S    
C107  H95   S    
C5    C47   S    
C125  C126  S    
C59   C64   S    
C49   C65   A    
C60   C63   S    
C25   H1    S    
C7    C45   S    
C118  H121  S    
C119  H124  S    
C27   H3    S    
C121  H127  S    
C146  H187  S    
C19   C62   A    
C107  H96   S    
C4    O7    A    
C31   H7    S    
C34   H10   S    
C84   C85   S    
C24   C40   A    
C79   H29   S    
C144  H182  S    
N4    Zn3   S    
C97   H71   S    
C52   C68   A    
C66   N2    A    
C148  H192  S    
C10   C26   A    
C20   O28   S    
C54   H22   S    
C6    O11   A    
C138  H168  S    
C142  H177  S    
C14   C30   A    
C17   O25   S    
C94   H65   S    
C31   C44   A    
C122  C123  S    
C83   H39   S    
C1    O1    A    
C112  H107  S    
C101  H81   S    
C128  C129  S    
C7    O13   A    
C16   C59   A    
C113  H110  S    
C143  H180  S    
O34   C128  S    
C126  C127  S    
C97   H73   S    
C104  H88   S    
C36   C45   A    
C40   H16   S    
C50   C66   A    
O11   Zn3   S    
C54   C76   A    
C52   H20   S    
C117  H119  S    
C91   H57   S    
C88   H52   S    
C124  H136  S    
C113  C114  S    
C117  H118  S    
O1    Zn1   S    
C127  H141  S    
C7    O16   A    
C90   C91   S    
C82   H37   S    
C125  H137  S    
C3    C41   S    
C147  H189  S    
C51   C73   A    
C101  C102  S    
C132  C133  S    
C110  H102  S    
C102  H84   S    
C80   H32   S    
C95   H67   S    
C123  H133  S    
C99   C100  S    
C137  H165  S    
C79   H31   S    
C23   C39   A    
C91   H58   S    
O38   C140  S    
C100  H79   S    
C108  C109  S    
C9    C57   A    
C103  H87   S    
C68   O36   S    
C28   H4    S    
C130  H150  S    
C22   O30   S    
C2    O2    A    
C135  H160  S    
C106  H92   S    
O37   C137  S    
O16   Zn3   S    
C78   H28   S    
