data_mof_unit_53668.cif
_audit_creation_date              2012-12-10T20:43:26-0500
_audit_creation_method            fapswitch 2.2
_symmetry_space_group_name_H-M    P1
_symmetry_Int_Tables_number       1
_space_group_crystal_system       triclinic
_cell_length_a                    18.443844
_cell_length_b                    19.12095
_cell_length_c                    19.179803
_cell_angle_alpha                 110.575344
_cell_angle_beta                  109.289865
_cell_angle_gamma                 108.804906
_cell_volume                      5189.40725173

loop_
_atom_site_label
_atom_site_type_symbol
_atom_type_description
_atom_site_fract_x
_atom_site_fract_y
_atom_site_fract_z
_atom_type_partial_charge
C1    C     C_R   0.379680 0.500817 0.380431 0.938792
C2    C     C_R   0.835527 0.798052 0.830421 -0.190868
C3    C     C_R   0.038471 0.827953 0.023458 -0.161351
C4    C     C_R   0.999353 0.781676 0.055801 0.450164
C5    C     C_R   0.054013 0.790872 0.134140 -0.114920
C6    C     C_R   0.302691 0.488276 0.047258 -0.181431
C7    C     C_R   0.232132 0.451059 0.964233 0.410171
C8    C     C_R   0.173162 0.361057 0.915719 -0.092891
C9    C     C_R   0.194936 0.310133 0.947623 -0.216191
C10   C     C_R   0.266307 0.347954 0.029613 -0.110715
C11   C     C_R   0.318711 0.437089 0.080256 -0.146591
C12   C     C_R   0.085938 0.253499 0.761331 -0.252725
C13   C     C_R   0.826885 0.810505 0.570073 -0.097943
C14   C     C_R   0.005467 0.193767 0.684895 -0.095889
C15   C     C_R   0.928686 0.198883 0.674753 0.049876
C16   C     C_R   0.933285 0.262688 0.742064 -0.202120
C17   C     C_R   0.011757 0.319184 0.820125 -0.052859
C18   C     C_R   0.090496 0.315332 0.831083 0.072555
C19   C     C_R   0.784041 0.107124 0.534113 -0.065558
C20   C     C_R   0.699609 0.034050 0.482618 -0.162296
C21   C     C_R   0.673325 0.977165 0.511049 -0.254488
C22   C     C_R   0.732321 0.993084 0.590597 0.465612
C23   C     C_R   0.815134 0.065726 0.641365 -0.219993
C24   C     C_R   0.809266 0.811560 0.494217 -0.142971
C25   C     C_R   0.841402 0.122513 0.613909 0.030815
C26   C     C_R   0.727076 0.750205 0.417986 -0.102106
C27   C     C_R   0.666233 0.682037 0.416917 0.386480
C28   C     C_R   0.684476 0.684237 0.496306 -0.170295
C29   C     C_R   0.764640 0.749879 0.573627 0.084657
C30   C     C_R   0.647040 0.799569 0.331551 -0.130353
C31   C     C_R   0.619806 0.809851 0.260564 -0.226207
C32   C     C_R   0.645299 0.782017 0.199917 -0.152847
C33   C     C_R   0.619434 0.619555 0.498938 0.997054
C34   C     C_R   0.699305 0.744863 0.210712 0.479300
C35   C     C_R   0.728293 0.736167 0.283102 -0.122790
C36   C     C_R   0.701118 0.762420 0.343198 0.144801
C37   C     C_R   0.361229 0.741343 0.542159 0.084903
C38   C     C_R   0.318525 0.665963 0.461583 0.096364
C39   C     C_R   0.357092 0.659113 0.408876 0.044836
C40   C     C_R   0.428382 0.733477 0.429665 -0.198439
C41   C     C_R   0.462999 0.811749 0.503894 -0.167233
C42   C     C_R   0.432696 0.815895 0.562488 0.425659
C43   C     C_R   0.253894 0.574919 0.253978 -0.221654
C44   C     C_R   0.620137 0.499376 0.619313 0.919061
C45   C     C_R   0.186955 0.495745 0.180754 -0.073164
C46   C     C_R   0.178780 0.417165 0.175563 0.071760
C47   C     C_R   0.248669 0.423030 0.239202 -0.158463
C48   C     C_R   0.313037 0.501986 0.314813 -0.027101
C49   C     C_R   0.312030 0.578628 0.324650 0.093372
C50   C     C_R   0.060127 0.263122 0.119942 0.429538
C51   C     C_R   0.995823 0.179535 0.050363 -0.183982
C52   C     C_R   0.969214 0.160521 0.966094 -0.149906
C53   C     C_R   0.005687 0.225063 0.950401 -0.128419
C54   C     C_R   0.070800 0.308063 0.019038 -0.148170
C55   C     C_R   0.376209 0.380763 0.497338 0.858877
C56   C     C_R   0.101704 0.328844 0.104719 -0.014774
C57   C     C_R   0.208514 0.511766 0.571782 -0.079735
C58   C     C_R   0.251303 0.463357 0.563708 -0.180257
C59   C     C_R   0.206552 0.379862 0.492669 0.076066
C60   C     C_R   0.119667 0.347525 0.428929 -0.049226
C61   C     C_R   0.076564 0.395122 0.438126 -0.126334
C62   C     C_R   0.119983 0.476395 0.510794 0.256678
C63   C     C_R   0.175878 0.251256 0.501048 -0.249369
C64   C     C_R   0.192172 0.186840 0.505714 -0.045350
C65   C     C_R   0.272843 0.190226 0.514793 0.041883
C66   C     C_R   0.762419 0.801710 0.783540 0.421388
C67   C     C_R   0.331688 0.256052 0.512835 -0.211411
C68   C     C_R   0.312014 0.317188 0.501814 -0.028390
C69   C     C_R   0.234120 0.316726 0.498702 0.039087
C70   C     C_R   0.317243 0.126016 0.602927 -0.164262
C71   C     C_R   0.349820 0.073527 0.618960 -0.134442
C72   C     C_R   0.370220 0.026896 0.561788 -0.145844
C73   C     C_R   0.359022 0.033145 0.489250 -0.092174
C74   C     C_R   0.322289 0.082044 0.470074 0.244540
C75   C     C_R   0.299982 0.128545 0.526955 0.037765
C76   C     C_R   0.506711 0.536391 0.793474 0.410160
C77   C     C_R   0.737874 0.782486 0.699180 -0.113509
C78   C     C_R   0.583282 0.545959 0.788964 -0.141186
C79   C     C_R   0.591040 0.473398 0.750456 0.030009
C80   C     C_R   0.523310 0.391465 0.719825 -0.176741
C81   C     C_R   0.447813 0.382198 0.726145 -0.182786
C82   C     C_R   0.438993 0.454228 0.762038 -0.206758
C83   C     C_R   0.733283 0.477235 0.804012 -0.157769
C84   C     C_R   0.813038 0.491820 0.806163 -0.100362
C85   C     C_R   0.830573 0.507379 0.744630 -0.057485
C86   C     C_R   0.764875 0.505219 0.679067 0.398710
C87   C     C_R   0.687275 0.497553 0.683027 -0.207414
C88   C     C_R   0.785916 0.759832 0.660223 -0.019103
C89   C     C_R   0.671835 0.483638 0.745520 -0.002279
C90   C     C_R   0.984862 0.618189 0.803628 -0.228766
C91   C     C_R   0.069018 0.645261 0.811750 0.388744
C92   C     C_R   0.086855 0.583522 0.765289 0.429935
C93   C     C_R   0.019694 0.496704 0.711853 -0.222286
C94   C     C_R   0.936662 0.470200 0.705685 0.177522
C95   C     C_R   0.918833 0.531306 0.751792 0.073677
C96   C     C_R   0.001419 0.880432 0.380310 0.957544
C97   C     C_R   0.878453 0.879026 0.497942 0.898128
C98   C     C_R   0.001487 0.122169 0.619696 0.866309
C99   C     C_R   0.861303 0.758976 0.709878 0.247857
C100  C     C_R   0.122029 0.118592 0.500100 0.941904
C101  C     C_R   0.007160 0.381423 0.885967 0.808959
C102  C     C_R   0.120550 0.498317 0.117593 0.841201
C103  C     C_R   0.998972 0.620200 0.118682 0.967283
C104  C     C_R   0.879453 0.496398 0.876974 0.923084
C105  C     C_R   0.178909 0.836208 0.550270 -0.173460
C106  C     C_R   0.140661 0.814926 0.464950 -0.167260
C107  C     C_R   0.050117 0.755012 0.407216 -0.025172
C108  C     C_R   0.000162 0.708861 0.434047 0.420471
C109  C     C_R   0.040953 0.729373 0.519935 -0.195970
C110  C     C_R   0.883863 0.775686 0.793159 -0.235729
C111  C     C_R   0.128780 0.794961 0.578451 0.216576
C112  C     C_R   0.001475 0.681140 0.253836 -0.072842
C113  C     C_R   0.000970 0.688758 0.184402 -0.059628
C114  C     C_R   0.016887 0.767077 0.185592 0.025157
C115  C     C_R   0.012669 0.829846 0.247715 0.459482
C116  C     C_R   0.007305 0.818040 0.315201 -0.201378
C117  C     C_R   0.012366 0.748459 0.322694 0.053616
C118  C     C_R   0.147549 0.834843 0.170223 0.435152
C119  C     C_R   0.184154 0.878276 0.134537 -0.137843
C120  C     C_R   0.129908 0.878090 0.064167 -0.096466
H1    H     H_    0.856278 0.814879 0.896420 0.237746
H2    H     H_    0.622096 0.788522 0.144036 0.206437
H3    H     H_    0.769750 0.707437 0.291826 0.200029
H4    H     H_    0.454809 0.731728 0.386730 0.186740
H5    H     H_    0.514973 0.869197 0.516718 0.208238
H6    H     H_    0.254197 0.633514 0.260068 0.189037
H7    H     H_    0.250065 0.364791 0.231990 0.181702
H8    H     H_    0.964763 0.128924 0.061260 0.218172
H9    H     H_    0.919170 0.096053 0.912928 0.209743
H10   H     H_    0.984009 0.210343 0.884808 0.152799
H11   H     H_    0.098378 0.356928 0.005669 0.121667
H12   H     H_    0.242916 0.574765 0.627998 0.224829
H13   H     H_    0.315906 0.488217 0.616471 0.169218
H14   H     H_    0.082137 0.281553 0.376374 0.226221
H15   H     H_    0.008255 0.367286 0.390421 0.184762
H16   H     H_    0.683154 0.789087 0.665676 0.269761
H17   H     H_    0.116200 0.250539 0.499466 0.151589
H18   H     H_    0.394234 0.260121 0.520688 0.152038
H19   H     H_    0.306488 0.165473 0.650445 0.150203
H20   H     H_    0.360887 0.070356 0.676544 0.161066
H21   H     H_    0.395635 0.986445 0.573668 0.225261
H22   H     H_    0.378586 0.999239 0.447628 0.219258
H23   H     H_    0.379513 0.445657 0.765302 0.179874
H24   H     H_    0.636190 0.609577 0.814180 0.220485
H25   H     H_    0.528988 0.334990 0.691109 0.156837
H26   H     H_    0.395713 0.319080 0.702694 0.156706
H27   H     H_    0.721002 0.466041 0.851719 0.167105
H28   H     H_    0.970857 0.664666 0.839836 0.196892
H29   H     H_    0.031333 0.448941 0.674004 0.216168
H30   H     H_    0.940969 0.773784 0.829610 0.206052
H31   H     H_    0.246774 0.886774 0.594977 0.204148
H32   H     H_    0.180491 0.849829 0.445404 0.221928
H33   H     H_    0.003809 0.694789 0.541380 0.219890
H34   H     H_    0.002618 0.626433 0.258333 0.177842
H35   H     H_    0.255087 0.914871 0.162684 0.205142
H36   H     H_    0.159154 0.916090 0.040387 0.214697
H37   H     H_    0.997964 0.828464 0.968777 0.164012
H38   H     H_    0.888558 0.860860 0.628949 0.183251
H39   H     H_    0.373256 0.466351 0.144240 0.223479
H40   H     H_    0.347359 0.557133 0.085495 0.177223
H41   H     H_    0.153573 0.240738 0.910475 0.171708
H42   H     H_    0.279935 0.308068 0.054440 0.166925
H43   H     H_    0.144589 0.248318 0.768755 0.168931
H44   H     H_    0.872943 0.263502 0.736042 0.178106
H45   H     H_    0.804319 0.151052 0.512224 0.168352
H46   H     H_    0.654588 0.021550 0.420912 0.168917
H47   H     H_    0.608006 0.921291 0.470932 0.135147
H48   H     H_    0.860156 0.079010 0.703692 0.175462
H49   H     H_    0.624277 0.818584 0.376261 0.118109
H50   H     H_    0.577602 0.838009 0.251779 0.179487
O1    O     O_R   0.408360 0.551710 0.460090 -0.621460
O2    O     O_R   0.948280 0.908380 0.356650 -0.554791
O3    O     O_R   0.960110 0.908350 0.551690 -0.613534
O4    O     O_R   0.856660 0.908370 0.448270 -0.633833
O5    O     O_R   0.051720 0.091580 0.643310 -0.626450
O6    O     O_R   0.948270 0.091600 0.539890 -0.623426
O7    O     O_R   0.143340 0.091590 0.551680 -0.649387
O8    O     O_R   0.039890 0.091610 0.448270 -0.596956
O9    O     O_R   0.051730 0.460050 0.908360 -0.547272
O10   O     O_R   0.948290 0.356630 0.908390 -0.627290
O11   O     O_R   0.143340 0.551690 0.091580 -0.622680
O12   O     O_R   0.408400 0.448280 0.356670 -0.600471
O13   O     O_R   0.039900 0.448270 0.091610 -0.600369
O14   O     O_R   0.051710 0.643320 0.091560 -0.623683
O15   O     O_R   0.948270 0.539900 0.091590 -0.601718
O16   O     O_R   0.960100 0.551680 0.908340 -0.620534
O17   O     O_R   0.856660 0.448270 0.908370 -0.619996
O18   O     O_R   0.591600 0.643340 0.551710 -0.636459
O19   O     O_R   0.591630 0.539900 0.448290 -0.517419
O20   O     O_R   0.591600 0.551720 0.643330 -0.627776
O21   O     O_R   0.591640 0.448290 0.539910 -0.557163
O22   O     O_R   0.408370 0.460100 0.551710 -0.642478
O23   O     O_R   0.408400 0.356660 0.448290 -0.608024
O24   O     O_R   0.051730 0.908360 0.460060 -0.631907
Zn1   Zn    Zn3+2 0.499980 0.569060 0.569060 1.081961
Zn2   Zn    Zn3+2 0.500020 0.430940 0.430940 1.156885
Zn3   Zn    Zn3+2 0.069070 0.999960 0.569030 0.985984
Zn4   Zn    Zn3+2 0.930930 0.999990 0.430930 1.031062
Zn5   Zn    Zn3+2 0.069070 0.569030 0.999960 1.101196
Zn6   Zn    Zn3+2 0.930930 0.430930 0.000000 1.049138
S1    S     S_3+6 0.725937 0.705504 0.130833 0.085360
O25   O     O_2   0.740650 0.765104 0.096413 -0.203325
O26   O     O_2   0.807731 0.699266 0.166923 -0.269083
O27   O     O_3   0.640672 0.607326 0.050911 -0.507361
H51   H     H_    0.648802 0.597015 0.000392 0.378327
S2    S     S_3+6 0.484287 0.914876 0.659665 0.065489
O28   O     O_2   0.542437 0.910459 0.732418 -0.147176
O29   O     O_2   0.539312 0.988156 0.654218 -0.308040
O30   O     O_3   0.408457 0.933466 0.680147 -0.605379
H52   H     H_    0.443097 0.988423 0.735852 0.387841
I1    I     I_    0.320383 0.739748 0.633382 -0.088046
I2    I     I_    0.185209 0.573433 0.408568 -0.240955
S3    S     S_3+6 0.705313 0.836264 0.832302 0.101129
O31   O     O_2   0.750049 0.932756 0.877209 -0.258306
O32   O     O_2   0.611181 0.798661 0.765113 -0.217332
O33   O     O_3   0.707612 0.805432 0.904644 -0.479284
H53   H     H_    0.682968 0.834705 0.935591 0.421471
S4    S     S_3+6 0.077669 0.282636 0.222483 -0.014720
O34   O     O_2   0.151975 0.268616 0.264468 -0.298738
O35   O     O_2   0.100231 0.373207 0.277553 -0.301831
O36   O     O_3   0.985369 0.214166 0.212834 -0.556806
H54   H     H_    0.941924 0.232822 0.194257 0.366646
I3    I     I_    0.049039 0.542175 0.527289 -0.193342
I4    I     I_    0.303691 0.083569 0.355078 -0.177142
S5    S     S_3+6 0.495759 0.627383 0.837220 0.062351
O37   O     O_2   0.566450 0.686408 0.930234 -0.206415
O38   O     O_2   0.506527 0.674075 0.789492 -0.262770
O39   O     O_3   0.396166 0.598830 0.829565 -0.476091
H55   H     H_    0.354677 0.573339 0.767903 0.363785
I5    I     I_    0.948734 0.739305 0.667853 -0.199753
S6    S     S_3+6 0.776671 0.507827 0.590225 0.054931
O40   O     O_2   0.716300 0.418783 0.512396 -0.241735
O41   O     O_2   0.749116 0.568024 0.572127 -0.328181
O42   O     O_3   0.879243 0.538746 0.604757 -0.540505
H56   H     H_    0.872638 0.527639 0.547922 0.418687
S7    S     S_3+6 0.149279 0.755388 0.886085 0.064582
O43   O     O_2   0.104033 0.808026 0.885502 -0.359990
O44   O     O_2   0.189687 0.765904 0.973660 -0.306128
O45   O     O_3   0.230603 0.793337 0.865708 -0.438098
H57   H     H_    0.272716 0.852762 0.915191 0.387014
S8    S     S_3+6 0.190725 0.611457 0.771192 0.113948
O46   O     O_2   0.194000 0.531855 0.725046 -0.352529
O47   O     O_2   0.204227 0.664135 0.729472 -0.254679
O48   O     O_3   0.271990 0.669337 0.874561 -0.384976
H58   H     H_    0.326148 0.701101 0.874314 0.414377
I6    I     I_    0.837085 0.339871 0.617583 -0.331731
I7    I     I_    0.186220 0.836695 0.710350 -0.124924
S9    S     S_3+6 0.888229 0.626041 0.365468 0.023866
O49   O     O_2   0.883815 0.542838 0.354917 -0.245290
O50   O     O_2   0.835766 0.645324 0.407485 -0.300807
O51   O     O_3   0.843357 0.614987 0.267835 -0.550145
H59   H     H_    0.781820 0.566936 0.236120 0.409798
S10   S     S_3+6 0.026880 0.928566 0.249903 0.083161
O52   O     O_2   0.094199 0.002006 0.339750 -0.339441
O53   O     O_2   0.058103 0.944895 0.191371 -0.285925
O54   O     O_3   0.929778 0.927475 0.222024 -0.456298
H60   H     H_    0.945083 0.988167 0.241329 0.387556
S11   S     S_3+6 0.220938 0.840824 0.262308 -0.002331
O55   O     O_2   0.315479 0.896614 0.289472 -0.331250
O56   O     O_2   0.204324 0.878255 0.334431 -0.333956
O57   O     O_3   0.205231 0.742901 0.242534 -0.564177
H61   H     H_    0.229976 0.727288 0.204607 0.371555
S12   S     S_3+6 0.882655 0.721845 0.001136 0.025251
O58   O     O_2   0.848725 0.782820 0.025714 -0.165100
O59   O     O_2   0.848209 0.679364 0.905942 -0.390283
O60   O     O_3   0.846256 0.645826 0.025128 -0.555467
H62   H     H_    0.781411 0.612067 0.985819 0.382727
S13   S     S_3+6 0.231771 0.517471 0.920046 0.079431
O61   O     O_2   0.219131 0.588066 0.971010 -0.232802
O62   O     O_2   0.320115 0.557713 0.926398 -0.213154
O63   O     O_3   0.151713 0.461100 0.816625 -0.526517
H63   H     H_    0.173359 0.427992 0.784976 0.368477
S14   S     S_3+6 0.565318 0.597442 0.318408 0.011168
O64   O     O_2   0.561157 0.512308 0.297408 -0.209088
O65   O     O_2   0.489474 0.596284 0.331828 -0.426400
O66   O     O_3   0.551982 0.606462 0.231405 -0.534814
H64   H     H_    0.504735 0.621788 0.217953 0.361981
S15   S     S_3+6 0.708413 0.924502 0.630292 -0.016086
O67   O     O_2   0.793180 0.929833 0.682692 -0.370471
O68   O     O_2   0.674604 0.955631 0.688909 -0.158365
O69   O     O_3   0.633459 0.822637 0.550755 -0.593676
H65   H     H_    0.641614 0.816883 0.501100 0.318933

loop_
_geom_bond_atom_site_label_1
_geom_bond_atom_site_label_2
_ccdc_geom_bond_type
C8    C9    A    
S12   O60   S    
C79   C80   A    
C78   C79   A    
C93   C94   A    
C98   O5    A    
C5    C114  S    
C51   H8    S    
S1    O26   D    
C41   C42   A    
C57   H12   S    
C93   H29   S    
C35   C36   A    
C103  O15   A    
C100  O8    A    
S5    O39   S    
C81   C82   A    
C90   C91   A    
C11   H39   S    
O51   H59   S    
C53   C54   A    
C116  C117  A    
C54   H11   S    
C26   C27   A    
O36   H54   S    
C83   C84   A    
C101  O9    A    
C52   H9    S    
C13   C29   A    
C28   C29   A    
C103  C113  S    
C76   C78   A    
C34   C35   A    
S5    O38   D    
C78   H24   S    
C109  C111  A    
C44   O21   A    
C85   C86   A    
S10   O52   D    
S2    O29   D    
S3    O33   S    
O24   Zn3   S    
C106  C107  A    
C34   S1    S    
C15   C16   A    
C74   I4    S    
C45   C102  S    
C120  H36   S    
S14   O66   S    
S7    O45   S    
O48   H58   S    
C33   O19   A    
S8    O46   D    
C73   C74   A    
C37   C42   A    
C104  O17   A    
C67   H18   S    
C17   C101  S    
O21   Zn2   S    
C37   I1    S    
C29   C88   S    
C90   H28   S    
C44   O20   A    
C2    C110  A    
C118  C119  A    
O5    Zn3   S    
O45   H57   S    
C77   C88   A    
C16   C17   A    
C65   C67   A    
S15   O69   S    
C47   C48   A    
C107  C108  A    
O2    Zn4   S    
C70   C71   A    
C77   H16   S    
C108  C109  A    
S6    O42   S    
C44   C87   S    
C109  H33   S    
C9    C10   A    
C61   C62   A    
C91   C92   A    
S9    O51   S    
C27   S14   S    
O14   Zn5   S    
C96   O24   A    
O63   H63   S    
O8    Zn4   S    
C59   C60   A    
C10   H42   S    
C112  H34   S    
C21   C22   A    
O27   H51   S    
C63   H17   S    
C94   C95   A    
C83   C89   A    
C100  O7    A    
C43   H6    S    
O39   H55   S    
S9    O50   D    
C14   C98   S    
C73   H22   S    
S3    O32   D    
C58   H13   S    
C72   H21   S    
C105  H31   S    
O30   H52   S    
C54   C56   A    
O4    Zn4   S    
C97   O3    A    
C74   C75   A    
O3    Zn3   S    
C67   C68   A    
O22   Zn1   S    
C63   C69   A    
S5    O37   D    
C7    C8    A    
C38   C39   A    
C84   C85   A    
O18   Zn1   S    
C72   C73   A    
O1    Zn1   S    
S7    O43   D    
C3    C120  A    
C76   C82   A    
C6    C11   A    
S10   O53   D    
C55   C68   S    
C86   C87   A    
C82   H23   S    
C57   C62   A    
O69   H65   S    
C45   C46   A    
C99   C110  A    
C91   S7    S    
C1    O1    A    
C8    C18   S    
C23   H48   S    
C13   C24   A    
C60   C61   A    
S8    O47   D    
C32   C34   A    
S11   O56   D    
C103  O14   A    
C30   H49   S    
C37   C38   A    
O10   Zn6   S    
C41   H5    S    
C98   O6    A    
C92   S8    S    
S4    O35   D    
C31   C32   A    
C115  S10   S    
S13   O63   S    
S3    O31   D    
C30   C31   A    
C1    O12   A    
O23   Zn2   S    
S4    O34   D    
O54   H60   S    
C14   C15   A    
C17   C18   A    
C50   C51   A    
C62   I3    S    
O33   H53   S    
C40   H4    S    
C9    H41   S    
C43   C45   A    
C71   H20   S    
O20   Zn1   S    
C94   I6    S    
C83   H27   S    
C26   C36   S    
C48   C49   A    
C39   C49   S    
S13   O62   D    
C28   C33   S    
C10   C11   A    
C59   C69   S    
C84   C104  S    
S1    O27   S    
S15   O68   D    
O16   Zn5   S    
C58   C59   A    
C106  H32   S    
O12   Zn2   S    
O42   H56   S    
C86   S6    S    
C112  C117  A    
C12   C18   A    
C3    C4    A    
O11   Zn5   S    
C60   H14   S    
C13   H38   S    
C39   C40   A    
C99   I5    S    
C104  O16   A    
S9    O49   D    
C61   H15   S    
S4    O36   S    
C113  C114  A    
C2    H1    S    
S12   O59   D    
C66   C77   A    
S2    O30   S    
C46   C47   A    
C40   C41   A    
C119  H35   S    
C97   O4    A    
C55   O23   A    
C76   S5    S    
S2    O28   D    
C102  O11   A    
C32   H2    S    
C68   C69   A    
C22   C23   A    
C43   C49   A    
C24   C26   A    
O6    Zn4   S    
C80   C81   A    
C2    C66   A    
C65   C75   S    
S10   O54   S    
C6    H40   S    
C119  C120  A    
C22   S15   S    
C1    C48   S    
C114  C115  A    
C6    C7    A    
C118  S11   S    
C31   H50   S    
C20   H46   S    
C105  C106  A    
C108  S9    S    
O13   Zn6   S    
C21   H47   S    
S1    O25   D    
C30   C36   A    
O17   Zn6   S    
S8    O48   S    
C55   O22   A    
C19   C20   A    
S12   O58   D    
S11   O55   D    
C12   C14   A    
C64   C100  S    
C51   C52   A    
C16   H44   S    
C101  O10   A    
C64   C65   A    
C12   H43   S    
O66   H64   S    
C85   C95   S    
O19   Zn2   S    
C57   C58   A    
O57   H61   S    
O9    Zn5   S    
C110  H30   S    
C66   S3    S    
C4    S12   S    
C4    C5    A    
C35   H3    S    
C92   C93   A    
S14   O65   D    
S7    O44   D    
C42   S2    S    
C33   O18   A    
C112  C113  A    
C24   C97   S    
C23   C25   A    
O15   Zn6   S    
C105  C111  A    
C7    S13   S    
C19   C25   A    
C50   C56   A    
C79   C89   S    
C88   C99   A    
C80   H25   S    
O60   H62   S    
S6    O41   D    
C63   C64   A    
S11   O57   S    
C5    C118  A    
C70   H19   S    
C71   C72   A    
C20   C21   A    
C70   C75   A    
C15   C25   S    
C111  I7    S    
C81   H26   S    
C96   O2    A    
C46   C56   S    
S6    O40   D    
C3    H37   S    
C87   C89   A    
C47   H7    S    
S15   O67   D    
C96   C116  S    
O7    Zn3   S    
C53   H10   S    
C19   H45   S    
C38   I2    S    
C50   S4    S    
C107  C117  S    
C90   C95   A    
C102  O13   A    
C115  C116  A    
C52   C53   A    
S13   O61   D    
C27   C28   A    
S14   O64   D    
