data_mof_unit_62394.cif
_audit_creation_date              2012-12-10T17:30:40-0500
_audit_creation_method            fapswitch 2.2
_symmetry_space_group_name_H-M    P1
_symmetry_Int_Tables_number       1
_space_group_crystal_system       triclinic
_cell_length_a                    21.820839
_cell_length_b                    21.719742
_cell_length_c                    22.195121
_cell_angle_alpha                 60.806674
_cell_angle_beta                  119.788591
_cell_angle_gamma                 90.186295
_cell_volume                      7562.4791857

loop_
_atom_site_label
_atom_site_type_symbol
_atom_type_description
_atom_site_fract_x
_atom_site_fract_y
_atom_site_fract_z
_atom_type_partial_charge
C1    C     C_R   0.619999 0.500279 0.500048 0.810753
C2    C     C_3   0.293118 0.707857 0.083169 -0.293246
C3    C     C_3   0.181945 0.742476 0.971454 -0.299606
C4    C     C_3   0.209045 0.790981 0.916730 -0.240836
C5    C     C_3   0.220589 0.771858 0.027572 0.632331
C6    C     C_3   0.246204 0.821698 0.971666 -0.315702
C7    C     C_1   0.338994 0.662148 0.174873 0.237000
C8    C     C_1   0.163129 0.836356 0.825037 0.196871
C9    C     C_3   0.720817 0.428387 0.512622 0.306867
C10   C     C_3   0.795338 0.425099 0.519918 0.378441
C11   C     C_3   0.667782 0.568951 0.409955 0.185669
C12   C     C_R   0.420955 0.579860 0.340055 0.843144
C13   C     C_3   0.751201 0.506462 0.570014 0.451656
C14   C     C_3   0.687834 0.502572 0.497729 -0.319056
C15   C     C_3   0.807984 0.501634 0.494777 -0.280319
C16   C     C_3   0.736616 0.564889 0.405205 0.090946
C17   C     C_3   0.815810 0.517996 0.559117 -0.438885
C18   C     C_3   0.719918 0.199563 0.026734 0.185554
C19   C     C_3   0.679594 0.284273 0.971087 -0.318377
C20   C     C_1   0.625235 0.375609 0.749704 -0.014540
C21   C     C_1   0.874870 0.126094 0.250485 -0.000042
C22   C     C_3   0.746979 0.208950 0.971588 0.585323
C23   C     C_R   0.380705 0.500457 0.500344 0.969906
C24   C     C_3   0.708144 0.293161 0.916784 -0.164930
C25   C     C_3   0.818016 0.219311 0.027906 0.183841
C26   C     C_3   0.791170 0.209456 0.083361 -0.216423
C27   C     C_3   0.779729 0.304405 0.972312 -0.306351
C28   C     C_3   0.752045 0.293731 0.027871 0.697991
C29   C     C_1   0.662684 0.338374 0.825131 0.163900
C30   C     C_1   0.837006 0.163876 0.175086 0.203633
C31   C     C_3   0.257666 0.477510 0.440564 0.907425
C32   C     C_3   0.192129 0.461647 0.451740 0.387861
C33   C     C_3   0.329414 0.448977 0.587227 0.105384
C34   C     C_R   0.580428 0.420124 0.659961 0.803028
C35   C     C_3   0.267999 0.589083 0.460438 0.484177
C36   C     C_3   0.311280 0.505270 0.497524 -0.480660
C37   C     C_3   0.187636 0.502138 0.494575 -0.426943
C38   C     C_3   0.259146 0.460681 0.585951 -0.425322
C39   C     C_3   0.188552 0.585301 0.441922 0.070315
C40   C     C_R   0.000408 0.879079 0.502349 0.937941
C41   C     C_R   0.080039 0.919074 0.659829 0.854113
C42   C     C_R   0.001696 0.117985 0.503003 0.871071
C43   C     C_R   0.919998 0.080822 0.340191 0.831370
C44   C     C_R   0.995376 0.379704 0.499737 0.906143
C45   C     C_3   0.281520 0.727091 0.971798 0.600495
C46   C     C_R   0.878988 0.500046 0.498837 0.821602
C47   C     C_R   0.999771 0.620513 0.500021 0.912386
C48   C     C_R   0.120252 0.500193 0.499117 1.019195
C49   C     C_3   0.982239 0.829368 0.416482 0.606620
C50   C     C_3   0.993513 0.755671 0.422532 0.461472
C51   C     C_3   0.074348 0.748060 0.575955 1.092325
C52   C     C_3   0.934153 0.778776 0.510206 0.183124
C53   C     C_3   0.997530 0.810447 0.501910 -0.428141
C54   C     C_3   0.997983 0.689689 0.500052 -0.304010
C55   C     C_3   0.068655 0.674753 0.581996 -0.485469
C56   C     C_3   0.318719 0.756445 0.027525 0.508836
C57   C     C_3   0.929769 0.713620 0.497841 -0.480403
C58   C     C_3   0.083199 0.181401 0.569796 0.527698
C59   C     C_3   0.075094 0.260266 0.552195 0.398781
C60   C     C_3   0.960782 0.257121 0.410331 0.081488
C61   C     C_3   0.950787 0.196473 0.531954 -0.399818
C62   C     C_3   0.002286 0.186077 0.503914 -0.323213
C63   C     C_3   0.992634 0.310347 0.499240 -0.295583
C64   C     C_3   0.950996 0.329480 0.407546 0.140184
C65   C     C_3   0.952531 0.265179 0.537764 -0.333474
C66   C     C_1   0.376531 0.624526 0.250309 -0.006400
C67   C     C_1   0.125232 0.873910 0.749595 -0.000357
C68   C     C_3   0.255654 0.678744 0.027281 0.516312
Cu1   Cu    Cu3+1 0.500030 0.437550 0.499970 1.195724
Cu2   Cu    Cu3+1 0.499970 0.562450 0.500030 1.227754
Cu3   Cu    Cu3+1 0.062480 0.999860 0.500010 1.254984
Cu4   Cu    Cu3+1 0.937520 0.999990 0.499990 1.153909
Cu5   Cu    Cu3+1 0.041430 0.458600 0.582880 1.147874
Cu6   Cu    Cu3+1 0.958570 0.541400 0.417120 1.252350
H1    H     H_    0.795252 0.408728 0.479761 0.209044
H2    H     H_    0.622500 0.560583 0.363713 0.198774
H3    H     H_    0.772333 0.452815 0.630718 0.105195
H4    H     H_    0.869096 0.481029 0.621620 0.236409
H5    H     H_    0.816795 0.576011 0.537458 0.222337
H6    H     H_    0.750213 0.617627 0.390879 0.174981
H7    H     H_    0.622416 0.311316 0.947549 0.228881
H8    H     H_    0.804367 0.347857 0.949861 0.227509
H9    H     H_    0.341058 0.394788 0.597388 0.195863
H10   H     H_    0.242026 0.880822 0.948591 0.229299
H11   H     H_    0.258954 0.405506 0.628581 0.237289
H12   H     H_    0.155820 0.601313 0.377565 0.205596
H13   H     H_    0.259670 0.491856 0.612968 0.302944
H14   H     H_    0.047127 0.743151 0.431279 0.200314
H15   H     H_    0.120252 0.645159 0.597218 0.233570
H16   H     H_    0.879849 0.823505 0.459255 0.197378
H17   H     H_    0.877778 0.731017 0.437097 0.238600
H18   H     H_    0.926718 0.665125 0.546282 0.238973
H19   H     H_    0.066233 0.636356 0.636235 0.270766
H20   H     H_    0.125364 0.736913 0.948290 0.235652
H21   H     H_    0.095662 0.289579 0.513130 0.169649
H22   H     H_    0.977536 0.364693 0.378853 0.199160
H23   H     H_    0.892077 0.204625 0.486153 0.235404
H24   H     H_    0.965141 0.146112 0.591722 0.260800
H25   H     H_    0.980242 0.248750 0.603153 0.268561
H26   H     H_    0.894847 0.299574 0.504565 0.232513
H27   H     H_    0.905210 0.250742 0.378896 0.191827
H28   H     H_    0.731045 0.380020 0.571712 0.161580
O1    O     O_R   0.591180 0.447260 0.499980 -0.563482
O2    O     O_R   0.947190 0.908860 0.499960 -0.553164
O3    O     O_R   0.113220 0.939420 0.620930 -0.545071
O4    O     O_R   0.007690 0.939530 0.620920 -0.560399
O5    O     O_R   0.052810 0.090990 0.500040 -0.494921
O6    O     O_R   0.947280 0.091100 0.500030 -0.606432
O7    O     O_R   0.992310 0.060320 0.379080 -0.538499
O8    O     O_R   0.886780 0.060430 0.379070 -0.555551
O9    O     O_R   0.035070 0.373890 0.570020 -0.504690
O10   O     O_R   0.965090 0.443800 0.430050 -0.542726
O11   O     O_R   0.943830 0.465050 0.569970 -0.561776
O12   O     O_R   0.591140 0.552730 0.500040 -0.478154
O13   O     O_R   0.873850 0.534970 0.430000 -0.543289
O14   O     O_R   0.034910 0.556200 0.569950 -0.606208
O15   O     O_R   0.964930 0.626120 0.429980 -0.489276
O16   O     O_R   0.126150 0.465040 0.570000 -0.570047
O17   O     O_R   0.056170 0.534950 0.430030 -0.516344
O18   O     O_R   0.439570 0.507730 0.379050 -0.553557
O19   O     O_R   0.439520 0.613200 0.379110 -0.543319
O20   O     O_R   0.408860 0.447270 0.499960 -0.508875
O21   O     O_R   0.408820 0.552740 0.500020 -0.515573
O22   O     O_R   0.560480 0.386800 0.620890 -0.573200
O23   O     O_R   0.560430 0.492270 0.620950 -0.547423
O24   O     O_R   0.052720 0.908740 0.499970 -0.490018
F1    F     F_    0.389424 0.762773 0.056712 -0.531191
S1    S     S_3+6 0.708739 0.562747 0.313770 0.095720
O25   O     O_2   0.633782 0.620362 0.241600 -0.185476
O26   O     O_2   0.761147 0.581966 0.287262 -0.186513
O27   O     O_3   0.700241 0.479984 0.330304 -0.450777
H29   H     H_    0.676782 0.487531 0.274857 0.411829
F2    F     F_    0.727523 0.560954 0.576039 -0.557135
S2    S     S_3+6 0.627574 0.663104 0.373929 0.091072
O28   O     O_2   0.676393 0.681502 0.435683 -0.178877
O29   O     O_2   0.619445 0.716290 0.292855 -0.189562
O30   O     O_3   0.542373 0.676269 0.354676 -0.503211
H30   H     H_    0.524425 0.729223 0.332790 0.394097
F3    F     F_    0.313116 0.703880 0.942658 -0.528249
S3    S     S_3+6 0.680244 0.129721 0.062025 0.157243
O31   O     O_2   0.735684 0.054463 0.113696 -0.111416
O32   O     O_2   0.660606 0.137264 0.114626 -0.220637
O33   O     O_3   0.603268 0.138764 0.979089 -0.405920
H31   H     H_    0.571336 0.190698 0.945360 0.351797
F4    F     F_    0.755097 0.337262 0.057864 -0.555638
S4    S     S_3+6 0.909451 0.175912 0.064989 0.133494
O34   O     O_2   0.964673 0.195132 0.122831 -0.180221
O35   O     O_2   0.925867 0.093047 0.111723 -0.198202
O36   O     O_3   0.916256 0.206468 0.983556 -0.436783
H32   H     H_    0.876588 0.194859 0.946575 0.377679
F5    F     F_    0.744155 0.164982 0.942126 -0.563775
F6    F     F_    0.296118 0.414027 0.457924 -0.538133
F7    F     F_    0.229173 0.530380 0.357510 -0.561608
S5    S     S_3+6 0.106393 0.493806 0.348489 0.149244
O37   O     O_2   0.071522 0.576723 0.288910 -0.214689
O38   O     O_2   0.124816 0.465610 0.307652 -0.121724
O39   O     O_3   0.042399 0.457798 0.360989 -0.522774
H33   H     H_    0.998191 0.479039 0.303326 0.392537
S6    S     S_3+6 0.209331 0.360659 0.516389 0.090016
O40   O     O_2   0.179074 0.346763 0.567821 -0.319681
O41   O     O_2   0.169919 0.333848 0.460576 -0.133009
O42   O     O_3   0.298804 0.306362 0.581701 -0.452190
H34   H     H_    0.308453 0.275873 0.638132 0.385940
S7    S     S_3+6 0.314839 0.622535 0.531003 0.154267
O43   O     O_2   0.392588 0.620595 0.554755 -0.175488
O44   O     O_2   0.274806 0.702714 0.486755 -0.163731
O45   O     O_3   0.318636 0.576608 0.619844 -0.483187
H35   H     H_    0.342689 0.601500 0.648743 0.406340
S8    S     S_3+6 0.256725 0.660769 0.360669 0.142520
O46   O     O_2   0.288245 0.627821 0.332376 -0.274093
O47   O     O_2   0.176218 0.704420 0.290593 -0.159365
O48   O     O_3   0.301302 0.721673 0.372098 -0.423030
H36   H     H_    0.292961 0.756696 0.316949 0.389547
S9    S     S_3+6 0.134337 0.658678 0.428364 0.077452
O49   O     O_2   0.141592 0.732712 0.379398 -0.139396
O50   O     O_2   0.053458 0.666956 0.378299 -0.210177
O51   O     O_3   0.162684 0.636749 0.523646 -0.586197
H37   H     H_    0.179697 0.678065 0.526743 0.413105
S10   S     S_3+6 0.414457 0.427872 0.682800 0.054943
O52   O     O_2   0.457069 0.481188 0.668103 -0.199202
O53   O     O_2   0.397838 0.426254 0.741600 -0.214584
O54   O     O_3   0.469917 0.342840 0.730427 -0.529941
H38   H     H_    0.445839 0.307837 0.752354 0.366091
F8    F     F_    0.033970 0.861059 0.404612 -0.588780
S11   S     S_3+6 0.891307 0.896625 0.323832 0.136279
O55   O     O_2   0.831193 0.860500 0.310211 -0.178140
O56   O     O_2   0.870160 0.957630 0.330348 -0.335657
O57   O     O_3   0.894891 0.934346 0.239518 -0.334927
H39   H     H_    0.921511 0.971009 0.241798 0.389148
F9    F     F_    0.939626 0.763692 0.348259 -0.522242
F10   F     F_    0.189484 0.794583 0.057423 -0.546794
F11   F     F_    0.129578 0.767100 0.563226 -0.590163
S12   S     S_3+6 0.940674 0.749854 0.605865 0.085682
O58   O     O_2   0.975209 0.794861 0.640213 -0.219087
O59   O     O_2   0.863141 0.760088 0.585440 -0.212772
O60   O     O_3   0.990875 0.659675 0.680827 -0.498641
H40   H     H_    0.986382 0.648054 0.727239 0.403491
F12   F     F_    0.095986 0.737550 0.651371 -0.580739
S13   S     S_3+6 0.161599 0.154974 0.567527 0.131684
O61   O     O_2   0.224077 0.177998 0.613503 -0.170962
O62   O     O_2   0.189391 0.071931 0.612812 -0.214672
O63   O     O_3   0.143320 0.193632 0.471935 -0.435376
H41   H     H_    0.191514 0.177610 0.481479 0.402302
S14   S     S_3+6 0.115054 0.111228 0.679227 0.105794
O64   O     O_2   0.080519 0.137885 0.709735 -0.236891
O65   O     O_2   0.097007 0.042146 0.686702 -0.364882
O66   O     O_3   0.207847 0.088538 0.744280 -0.375264
H42   H     H_    0.221659 0.044076 0.798574 0.383001
F13   F     F_    0.119320 0.254748 0.627207 -0.525263
S15   S     S_3+6 0.983769 0.269908 0.337605 0.068373
O67   O     O_2   0.014926 0.198175 0.353483 -0.232419
O68   O     O_2   0.912722 0.313855 0.251241 -0.192424
O69   O     O_3   0.043121 0.319647 0.338322 -0.446121
H43   H     H_    0.044484 0.331919 0.289861 0.413642
F14   F     F_    0.261362 0.605018 0.056177 -0.536618
S16   S     S_3+6 0.852457 0.384066 0.337970 0.050237
O70   O     O_2   0.803514 0.335168 0.338517 -0.267687
O71   O     O_2   0.835951 0.431673 0.362558 -0.256741
O72   O     O_3   0.830970 0.439306 0.240124 -0.433064
H44   H     H_    0.778027 0.469057 0.205540 0.403855
F15   F     F_    0.670651 0.420929 0.448566 -0.586883
F16   F     F_    0.853316 0.370641 0.601639 -0.653957

loop_
_geom_bond_atom_site_label_1
_geom_bond_atom_site_label_2
_ccdc_geom_bond_type
C58   C62   S    
C63   C65   S    
O39   H33   S    
C57   H18   S    
Cu3   O5    S    
C33   S10   S    
Cu5   Cu6   S    
C54   C55   S    
C52   H16   S    
C2    C7    S    
C18   C26   S    
S3    O33   S    
C45   F3    S    
C4    C8    S    
S1    O25   D    
S2    O30   S    
C41   C67   S    
C31   C32   S    
O69   H43   S    
Cu2   O12   S    
Cu6   O17   S    
C28   F4    S    
C50   C54   S    
Cu5   O14   S    
C41   O3    A    
C46   O13   A    
S7    O43   D    
S3    O32   D    
S4    O34   D    
S16   O71   D    
C2    C68   S    
C11   H2    S    
Cu6   O10   S    
C5    C6    S    
C11   C14   S    
S11   O56   D    
C15   C16   S    
S4    O36   S    
C17   H5    S    
C33   C36   S    
Cu5   O11   S    
C27   H8    S    
C60   C62   S    
C18   C19   S    
S8    O46   D    
C56   F1    S    
C68   F14   S    
S9    O49   D    
C12   O18   A    
Cu2   O21   S    
C12   O19   A    
C3    C68   S    
C45   C56   S    
C9    H28   S    
S12   O59   D    
C22   C25   S    
C5    F10   S    
S13   O63   S    
C24   C27   S    
Cu3   O24   S    
C25   S4    S    
C43   O8    A    
C23   O20   A    
C42   O5    A    
C1    O1    A    
C21   C30   T    
S5    O38   D    
S12   O58   D    
C50   H14   S    
C4    C45   S    
C32   S6    S    
C20   C34   S    
C58   S14   S    
S13   O61   D    
C21   C43   S    
C13   C14   S    
S8    O47   D    
C61   C62   S    
C59   H21   S    
C39   S9    S    
C9    F15   S    
C31   F7    S    
C60   C64   S    
Cu5   O9    S    
C48   O17   A    
S4    O35   D    
C20   C29   T    
Cu1   O1    S    
C44   C63   S    
C47   O14   A    
Cu4   O8    S    
C58   S13   S    
C6    H10   S    
C41   O4    A    
C38   H11   S    
O66   H42   S    
Cu4   O6    S    
S16   O70   D    
C64   H22   S    
S5    O39   S    
C4    C6    S    
O63   H41   S    
C11   S2    S    
C6    C56   S    
O45   H35   S    
S11   O57   S    
C23   O21   A    
Cu4   O2    S    
Cu1   O22   S    
C58   C59   S    
C12   C66   S    
C3    C4    S    
C48   O16   A    
O57   H39   S    
C51   C53   S    
C35   C36   S    
C35   C39   S    
C9    C14   S    
C37   C38   S    
C19   C28   S    
C51   F12   S    
C61   C65   S    
C40   O2    A    
C49   F8    S    
C16   S1    S    
C10   H1    S    
S6    O40   D    
S14   O66   S    
C47   O15   A    
S12   O60   S    
C40   O24   A    
C45   C68   S    
S6    O41   D    
S6    O42   S    
C32   C37   S    
S3    O31   D    
C37   C48   S    
C18   S3    S    
O54   H38   S    
C33   H9    S    
S9    O51   S    
C65   H25   S    
S5    O37   D    
C47   C54   S    
C32   S5    S    
C44   O10   A    
Cu2   O23   S    
Cu4   O4    S    
O51   H37   S    
S15   O68   D    
Cu3   O3    S    
C13   H3    S    
C35   S8    S    
S8    O48   S    
C22   C24   S    
C59   C63   S    
C2    C5    S    
C1    O12   A    
C61   H24   S    
C60   H27   S    
S1    O27   S    
O72   H44   S    
O48   H36   S    
O42   H34   S    
C9    C10   S    
C15   C17   S    
Cu6   O15   S    
C42   C62   S    
C22   F5    S    
C34   O22   A    
Cu5   O16   S    
C57   H17   S    
C46   O11   A    
C18   C22   S    
C13   F2    S    
C64   S16   S    
S7    O45   S    
C61   H23   S    
C52   S12   S    
C33   C38   S    
C65   H26   S    
S14   O65   D    
O60   H40   S    
C3    C5    S    
S1    O26   D    
S2    O29   D    
C40   C53   S    
C26   C30   S    
S2    O28   D    
C23   C36   S    
S10   O52   D    
C25   C27   S    
S15   O69   S    
O30   H30   S    
Cu1   O18   S    
C26   C28   S    
C35   S7    S    
C39   H12   S    
C13   C17   S    
C38   H13   S    
C10   C15   S    
S16   O72   S    
S10   O54   S    
S7    O44   D    
C19   C24   S    
C25   C26   S    
Cu3   Cu4   S    
C37   C39   S    
C2    C56   S    
O27   H29   S    
C7    C66   T    
C31   F6    S    
Cu2   O19   S    
S11   O55   D    
C60   S15   S    
Cu1   O20   S    
C34   O23   A    
C49   C53   S    
Cu6   O13   S    
Cu3   O7    S    
C19   H7    S    
C17   H4    S    
C3    H20   S    
C51   C55   S    
S15   O67   D    
Cu1   Cu2   S    
C50   F9    S    
S9    O50   D    
C11   C16   S    
C52   C57   S    
C10   F16   S    
C63   C64   S    
C44   O9    A    
C59   F13   S    
C24   C29   S    
C49   S11   S    
S14   O64   D    
C8    C67   T    
C55   H15   S    
C49   C50   S    
C27   C28   S    
S13   O62   D    
C31   C36   S    
C1    C14   S    
C43   O7    A    
C15   C46   S    
C16   H6    S    
O36   H32   S    
C42   O6    A    
C55   H19   S    
C51   F11   S    
O33   H31   S    
C52   C53   S    
S10   O53   D    
C54   C57   S    
