data_mof_unit_15452.cif
_audit_creation_date              2012-12-11T15:34:43-0500
_audit_creation_method            fapswitch 2.2
_symmetry_space_group_name_H-M    P1
_symmetry_Int_Tables_number       1
_space_group_crystal_system       triclinic
_cell_length_a                    17.209118
_cell_length_b                    17.20913
_cell_length_c                    17.712931
_cell_angle_alpha                 90.00005
_cell_angle_beta                  89.999698
_cell_angle_gamma                 89.999868
_cell_volume                      5245.75446122

loop_
_atom_site_label
_atom_site_type_symbol
_atom_type_description
_atom_site_fract_x
_atom_site_fract_y
_atom_site_fract_z
_atom_type_partial_charge
C1    C     C_R   0.801897 0.106968 0.401309 -0.146902
C2    C     C_R   0.196955 0.105674 0.397616 -0.133761
C3    C     C_3   0.473855 0.656313 0.307039 -0.949699
C4    C     C_3   0.881019 0.673371 0.815536 -0.908080
C5    C     C_3   0.343717 0.473835 0.307016 -0.949745
C6    C     C_3   0.326628 0.881028 0.815513 -0.908096
C7    C     C_3   0.526149 0.343681 0.307032 -0.949680
C8    C     C_3   0.118976 0.673352 0.184496 -0.908110
C9    C     C_3   0.656309 0.473854 0.692962 -0.949706
C10   C     C_3   0.673374 0.881006 0.184449 -0.908156
C11   C     C_3   0.473834 0.343710 0.692989 -0.949673
C12   C     C_3   0.881027 0.326627 0.184479 -0.908100
C13   C     C_R   0.893031 0.198103 0.598690 -0.146897
C14   C     C_3   0.343674 0.526145 0.692959 -0.949709
C15   C     C_3   0.326604 0.118963 0.184474 -0.908071
C16   C     C_3   0.526156 0.656307 0.692971 -0.949682
C17   C     C_3   0.619330 0.824921 0.448507 -0.989020
C18   C     C_3   0.368135 0.094249 0.685397 -0.996538
C19   C     C_3   0.175064 0.619364 0.448535 -0.989040
C20   C     C_3   0.905755 0.368117 0.685418 -0.996528
C21   C     C_3   0.380632 0.175035 0.448513 -0.989054
C22   C     C_3   0.631879 0.905755 0.685412 -0.996536
C23   C     C_3   0.824929 0.380653 0.448514 -0.989039
C24   C     C_R   0.105676 0.803046 0.397615 -0.133733
C25   C     C_3   0.094236 0.631894 0.685430 -0.996532
C26   C     C_3   0.619356 0.175063 0.551473 -0.989038
C27   C     C_3   0.368112 0.905757 0.314575 -0.996532
C28   C     C_3   0.175095 0.380715 0.551530 -0.989022
C29   C     C_3   0.905757 0.631878 0.314590 -0.996533
C30   C     C_3   0.380645 0.824930 0.551478 -0.989036
C31   C     C_3   0.631888 0.094239 0.314578 -0.996528
C32   C     C_3   0.824918 0.619316 0.551500 -0.989031
C33   C     C_3   0.094256 0.368142 0.314613 -0.996532
C34   C     C_R   0.198102 0.106970 0.598691 -0.146914
C35   C     C_R   0.803045 0.894324 0.397617 -0.133739
C36   C     C_R   0.106968 0.801897 0.598690 -0.146902
C37   C     C_R   0.894324 0.196954 0.397616 -0.133731
C38   C     C_R   0.315377 0.595794 0.871552 -0.117997
C39   C     C_R   0.682681 0.411579 0.131059 -0.113138
C40   C     C_R   0.404199 0.315371 0.871560 -0.118017
C41   C     C_R   0.196954 0.894324 0.602384 -0.133728
C42   C     C_R   0.588422 0.682684 0.131057 -0.113135
C43   C     C_R   0.684621 0.404207 0.871548 -0.118005
C44   C     C_R   0.317321 0.588417 0.131063 -0.113136
C45   C     C_R   0.595797 0.684625 0.871555 -0.118009
C46   C     C_R   0.411577 0.317316 0.131057 -0.113139
C47   C     C_R   0.315373 0.404202 0.128444 -0.118020
C48   C     C_R   0.682684 0.588422 0.868942 -0.113138
C49   C     C_R   0.404206 0.684621 0.128451 -0.118011
C50   C     C_R   0.588416 0.317322 0.868936 -0.113140
C51   C     C_R   0.684625 0.595797 0.128445 -0.118012
C52   C     C_R   0.893031 0.801898 0.401309 -0.146884
C53   C     C_R   0.317314 0.411576 0.868946 -0.113137
C54   C     C_R   0.595796 0.315375 0.128446 -0.117999
C55   C     C_R   0.411580 0.682680 0.868939 -0.113136
C56   C     C_R   0.241052 0.243221 0.640421 -0.032955
C57   C     C_R   0.756780 0.758945 0.359582 -0.032939
C58   C     C_R   0.756779 0.241057 0.640414 -0.032934
C59   C     C_R   0.241059 0.756780 0.359586 -0.032933
C60   C     C_R   0.758945 0.756779 0.640416 -0.032950
C61   C     C_R   0.243224 0.241052 0.359582 -0.032929
C62   C     C_R   0.243218 0.758942 0.640418 -0.032934
C63   C     C_R   0.105676 0.196956 0.602379 -0.133709
C64   C     C_R   0.758943 0.243218 0.359581 -0.032939
C65   C     C_R   0.683508 0.690993 0.238057 -0.038468
C66   C     C_R   0.309001 0.316486 0.761951 -0.038476
C67   C     C_R   0.309015 0.683498 0.238069 -0.038473
C68   C     C_R   0.683499 0.309014 0.761932 -0.038479
C69   C     C_R   0.316490 0.309004 0.238055 -0.038468
C70   C     C_R   0.690993 0.683507 0.761942 -0.038479
C71   C     C_R   0.690990 0.316493 0.238059 -0.038487
C72   C     C_R   0.316494 0.690988 0.761939 -0.038488
C73   C     C_R   0.815257 0.184747 0.385890 0.114740
C74   C     C_R   0.198103 0.893031 0.401309 -0.146896
C75   C     C_R   0.184746 0.815257 0.614110 0.114735
C76   C     C_R   0.815252 0.815258 0.385891 0.114756
C77   C     C_R   0.184742 0.184749 0.614107 0.114744
C78   C     C_R   0.184743 0.815253 0.385890 0.114739
C79   C     C_R   0.815252 0.184743 0.614109 0.114743
C80   C     C_R   0.184749 0.184740 0.385889 0.114759
C81   C     C_R   0.815258 0.815252 0.614107 0.114754
C82   C     C_R   0.344547 0.659940 0.833167 0.118256
C83   C     C_R   0.659942 0.344545 0.166830 0.118253
C84   C     C_R   0.340050 0.344538 0.833178 0.118250
C85   C     C_R   0.803045 0.105676 0.602384 -0.133735
C86   C     C_R   0.655456 0.659945 0.166829 0.118248
C87   C     C_R   0.655449 0.340063 0.833162 0.118253
C88   C     C_R   0.340062 0.655448 0.166838 0.118257
C89   C     C_R   0.659945 0.655456 0.833171 0.118252
C90   C     C_R   0.344541 0.340054 0.166827 0.118260
C91   C     C_R   0.233896 0.337897 0.737857 0.052289
C92   C     C_R   0.729103 0.643927 0.285936 0.113030
C93   C     C_R   0.662086 0.233911 0.737834 0.052243
C94   C     C_R   0.356079 0.729098 0.285944 0.113027
C95   C     C_R   0.766097 0.662094 0.737843 0.052278
C96   C     C_R   0.106970 0.198102 0.401308 -0.146872
C97   C     C_R   0.270904 0.356072 0.285941 0.113040
C98   C     C_R   0.337907 0.766091 0.737839 0.052242
C99   C     C_R   0.643925 0.270896 0.285936 0.113033
C100  C     C_R   0.233912 0.662083 0.262170 0.052247
C101  C     C_R   0.729097 0.356079 0.714055 0.113032
C102  C     C_R   0.662094 0.766096 0.262157 0.052278
C103  C     C_R   0.356069 0.270898 0.714067 0.113032
C104  C     C_R   0.766093 0.337906 0.262157 0.052249
C105  C     C_R   0.270895 0.643923 0.714063 0.113032
C106  C     C_R   0.337899 0.233898 0.262147 0.052218
C107  C     C_R   0.894324 0.803045 0.602381 -0.133726
C108  C     C_R   0.643926 0.729102 0.714063 0.113033
C109  C     C_R   0.685756 0.789571 0.333396 0.124721
C110  C     C_R   0.318343 0.223570 0.661207 0.077032
C111  C     C_R   0.210437 0.685750 0.333408 0.124757
C112  C     C_R   0.776432 0.318348 0.661201 0.077024
C113  C     C_R   0.314246 0.210424 0.333390 0.124764
C114  C     C_R   0.681654 0.776432 0.661205 0.077026
C115  C     C_R   0.789567 0.314244 0.333397 0.124758
C116  C     C_R   0.223562 0.681653 0.661209 0.077038
C117  C     C_R   0.685751 0.210435 0.666596 0.124758
C118  C     C_R   0.801897 0.893030 0.598690 -0.146891
C119  C     C_R   0.318349 0.776434 0.338796 0.077029
C120  C     C_R   0.210421 0.314240 0.666617 0.124732
C121  C     C_R   0.776434 0.681655 0.338793 0.077022
C122  C     C_R   0.314245 0.789565 0.666600 0.124762
C123  C     C_R   0.681653 0.223564 0.338792 0.077037
C124  C     C_R   0.789571 0.685756 0.666604 0.124736
C125  C     C_R   0.223574 0.318344 0.338800 0.076992
C126  C     C_3   0.118982 0.326611 0.815559 -0.908095
C127  C     C_3   0.656308 0.526156 0.307028 -0.949688
C128  C     C_3   0.673362 0.118976 0.815511 -0.908099
H1    H     H_    0.747426 0.078010 0.410165 0.148674
H2    H     H_    0.250269 0.073204 0.397766 0.133337
H3    H     H_    0.577219 0.776063 0.445048 0.259842
H4    H     H_    0.407065 0.170238 0.602801 0.184574
H5    H     H_    0.390095 0.042114 0.655241 0.254255
H6    H     H_    0.312382 0.078861 0.713284 0.268456
H7    H     H_    0.410856 0.110463 0.729571 0.247956
H8    H     H_    0.123296 0.600677 0.344944 0.173362
H9    H     H_    0.124931 0.590722 0.476508 0.253016
H10   H     H_    0.192813 0.670308 0.482946 0.269983
H11   H     H_    0.223932 0.577263 0.445110 0.259843
H12   H     H_    0.829786 0.407069 0.602815 0.184567
H13   H     H_    0.921989 0.252574 0.589835 0.148672
H14   H     H_    0.957897 0.390077 0.655274 0.254244
H15   H     H_    0.921133 0.312357 0.713298 0.268458
H16   H     H_    0.889538 0.410832 0.729597 0.247958
H17   H     H_    0.399329 0.123290 0.344911 0.173357
H18   H     H_    0.409274 0.124898 0.476479 0.253025
H19   H     H_    0.329685 0.192775 0.482925 0.269977
H20   H     H_    0.422731 0.223906 0.445098 0.259839
H21   H     H_    0.592932 0.829778 0.602814 0.184565
H22   H     H_    0.609920 0.957895 0.655263 0.254255
H23   H     H_    0.687637 0.921136 0.713293 0.268459
H24   H     H_    0.073207 0.749731 0.397762 0.133314
H25   H     H_    0.589162 0.889541 0.729590 0.247958
H26   H     H_    0.876716 0.399311 0.344926 0.173362
H27   H     H_    0.875059 0.409297 0.476488 0.253015
H28   H     H_    0.807169 0.329719 0.482932 0.269981
H29   H     H_    0.776064 0.422758 0.445072 0.259845
H30   H     H_    0.170204 0.592928 0.602831 0.184573
H31   H     H_    0.042093 0.609934 0.655288 0.254248
H32   H     H_    0.078861 0.687657 0.713304 0.268460
H33   H     H_    0.110450 0.589182 0.729613 0.247960
H34   H     H_    0.600680 0.123291 0.655064 0.173360
H35   H     H_    0.252574 0.078010 0.589841 0.148673
H36   H     H_    0.590714 0.124931 0.523501 0.253018
H37   H     H_    0.670297 0.192816 0.517059 0.269982
H38   H     H_    0.577254 0.223930 0.554904 0.259835
H39   H     H_    0.407070 0.829792 0.397179 0.184567
H40   H     H_    0.390071 0.957901 0.344717 0.254256
H41   H     H_    0.312352 0.921132 0.286697 0.268462
H42   H     H_    0.410828 0.889541 0.270395 0.247958
H43   H     H_    0.123236 0.399273 0.655102 0.173354
H44   H     H_    0.124968 0.409353 0.523545 0.253016
H45   H     H_    0.192904 0.329813 0.517089 0.269975
H46   H     H_    0.749731 0.926794 0.397767 0.133302
H47   H     H_    0.223935 0.422843 0.555029 0.259844
H48   H     H_    0.829777 0.592933 0.397188 0.184565
H49   H     H_    0.957896 0.609919 0.344740 0.254254
H50   H     H_    0.921139 0.687635 0.286708 0.268457
H51   H     H_    0.889544 0.589159 0.270413 0.247958
H52   H     H_    0.399317 0.876708 0.655068 0.173360
H53   H     H_    0.409290 0.875061 0.523505 0.253012
H54   H     H_    0.329706 0.807177 0.517063 0.269981
H55   H     H_    0.422747 0.776063 0.554913 0.259844
H56   H     H_    0.592929 0.170211 0.397176 0.184571
H57   H     H_    0.078010 0.747426 0.589834 0.148675
H58   H     H_    0.609928 0.042097 0.344724 0.254250
H59   H     H_    0.687649 0.078861 0.286701 0.268461
H60   H     H_    0.589174 0.110453 0.270397 0.247955
H61   H     H_    0.876741 0.600708 0.655080 0.173356
H62   H     H_    0.875048 0.590677 0.523520 0.253015
H63   H     H_    0.807131 0.670234 0.517072 0.269979
H64   H     H_    0.776067 0.577197 0.554970 0.259844
H65   H     H_    0.170245 0.407063 0.397212 0.184562
H66   H     H_    0.042120 0.390100 0.344770 0.254255
H67   H     H_    0.078867 0.312392 0.286721 0.268454
H68   H     H_    0.926793 0.250269 0.397765 0.133307
H69   H     H_    0.110471 0.410867 0.270443 0.247954
H70   H     H_    0.258947 0.569836 0.864045 0.102085
H71   H     H_    0.731253 0.448095 0.142724 0.120457
H72   H     H_    0.430156 0.258940 0.864054 0.102092
H73   H     H_    0.250269 0.926793 0.602237 0.133310
H74   H     H_    0.551907 0.731257 0.142719 0.120471
H75   H     H_    0.741051 0.430164 0.864039 0.102089
H76   H     H_    0.268750 0.551900 0.142728 0.120466
H77   H     H_    0.569839 0.741055 0.864047 0.102088
H78   H     H_    0.448093 0.268744 0.142722 0.120441
H79   H     H_    0.258943 0.430159 0.135952 0.102093
H80   H     H_    0.731257 0.551907 0.857281 0.120462
H81   H     H_    0.430164 0.741050 0.135961 0.102091
H82   H     H_    0.551898 0.268753 0.857270 0.120464
H83   H     H_    0.741055 0.569839 0.135952 0.102090
H84   H     H_    0.921990 0.747426 0.410163 0.148673
H85   H     H_    0.268741 0.448091 0.857283 0.120459
H86   H     H_    0.569838 0.258945 0.135953 0.102085
H87   H     H_    0.448096 0.731252 0.857274 0.120455
H88   H     H_    0.160999 0.429196 0.768339 0.148704
H89   H     H_    0.079926 0.307873 0.769015 0.247058
H90   H     H_    0.084258 0.359354 0.857727 0.246811
H91   H     H_    0.144139 0.274671 0.843720 0.261521
H92   H     H_    0.775533 0.532029 0.300457 0.170449
H93   H     H_    0.661667 0.462050 0.305603 0.258026
H94   H     H_    0.606851 0.542945 0.270322 0.269773
H95   H     H_    0.073207 0.250271 0.602224 0.133281
H96   H     H_    0.644508 0.544071 0.366230 0.255205
H97   H     H_    0.570778 0.161030 0.768321 0.148700
H98   H     H_    0.640623 0.084259 0.857687 0.246813
H99   H     H_    0.725320 0.144112 0.843653 0.261527
H100  H     H_    0.692068 0.079918 0.768956 0.247063
H101  H     H_    0.467975 0.775538 0.300457 0.170451
H102  H     H_    0.537960 0.661676 0.305613 0.258033
H103  H     H_    0.457071 0.606852 0.270336 0.269773
H104  H     H_    0.455941 0.644517 0.366241 0.255200
H105  H     H_    0.838986 0.570788 0.768320 0.148697
H106  H     H_    0.252574 0.921990 0.410165 0.148674
H107  H     H_    0.920073 0.692105 0.768986 0.247059
H108  H     H_    0.915745 0.640625 0.857699 0.246808
H109  H     H_    0.855871 0.725313 0.843701 0.261518
H110  H     H_    0.224492 0.467973 0.300486 0.170464
H111  H     H_    0.338360 0.537941 0.305615 0.258030
H112  H     H_    0.393156 0.457060 0.270285 0.269786
H113  H     H_    0.355545 0.455901 0.366206 0.255220
H114  H     H_    0.429213 0.838974 0.768327 0.148699
H115  H     H_    0.359364 0.915745 0.857691 0.246812
H116  H     H_    0.274668 0.855893 0.843654 0.261526
H117  H     H_    0.749730 0.073206 0.602236 0.133313
H118  H     H_    0.307925 0.920085 0.768957 0.247059
H119  H     H_    0.532028 0.224457 0.300445 0.170442
H120  H     H_    0.462043 0.338322 0.305597 0.258035
H121  H     H_    0.542943 0.393145 0.270338 0.269771
H122  H     H_    0.544054 0.355470 0.366239 0.255199
H123  H     H_    0.161034 0.570772 0.231689 0.148701
H124  H     H_    0.084260 0.640611 0.142321 0.246814
H125  H     H_    0.144109 0.725310 0.156351 0.261528
H126  H     H_    0.079918 0.692058 0.231051 0.247065
H127  H     H_    0.775534 0.467975 0.699536 0.170454
H128  H     H_    0.078011 0.252574 0.410159 0.148672
H129  H     H_    0.661671 0.537959 0.694385 0.258034
H130  H     H_    0.606850 0.457069 0.729669 0.269773
H131  H     H_    0.644509 0.455937 0.633761 0.255202
H132  H     H_    0.570794 0.838996 0.231682 0.148709
H133  H     H_    0.692136 0.920050 0.230991 0.247083
H134  H     H_    0.640623 0.915742 0.142299 0.246814
H135  H     H_    0.725295 0.855844 0.156267 0.261535
H136  H     H_    0.467971 0.224482 0.699528 0.170444
H137  H     H_    0.537939 0.338353 0.694404 0.258025
H138  H     H_    0.457048 0.393156 0.729714 0.269771
H139  H     H_    0.926794 0.749730 0.602230 0.133295
H140  H     H_    0.455909 0.355529 0.633793 0.255203
H141  H     H_    0.838977 0.429211 0.231670 0.148701
H142  H     H_    0.915745 0.359364 0.142303 0.246812
H143  H     H_    0.855889 0.274670 0.156336 0.261527
H144  H     H_    0.920084 0.307919 0.231034 0.247059
H145  H     H_    0.224451 0.532028 0.699561 0.170454
H146  H     H_    0.338314 0.462040 0.694395 0.258039
H147  H     H_    0.393143 0.542937 0.729649 0.269776
H148  H     H_    0.355457 0.544052 0.633752 0.255198
H149  H     H_    0.429198 0.161014 0.231643 0.148693
H150  H     H_    0.747426 0.921989 0.589836 0.148675
H151  H     H_    0.307905 0.079908 0.231033 0.247063
H152  H     H_    0.359332 0.084244 0.142292 0.246810
H153  H     H_    0.274641 0.144100 0.156341 0.261523
H154  H     H_    0.532029 0.775532 0.699542 0.170445
H155  H     H_    0.462050 0.661665 0.694396 0.258024
H156  H     H_    0.542944 0.606849 0.729678 0.269772
H157  H     H_    0.544071 0.644507 0.633769 0.255204
H158  H     H_    0.600702 0.876734 0.344925 0.173352
H159  H     H_    0.590687 0.875050 0.476484 0.253012
H160  H     H_    0.670255 0.807147 0.482931 0.269977
N1    N     N_R   0.868470 0.074730 0.422590 -0.044691
N2    N     N_R   0.131530 0.074730 0.422590 -0.044890
N3    N     N_R   0.925270 0.131530 0.577410 -0.044693
N4    N     N_R   0.074730 0.868470 0.422590 -0.044892
N5    N     N_R   0.131530 0.074730 0.577410 -0.044690
N6    N     N_R   0.868470 0.925270 0.422590 -0.044892
N7    N     N_R   0.074730 0.868470 0.577410 -0.044691
N8    N     N_R   0.925270 0.131530 0.422590 -0.044893
N9    N     N_R   0.368470 0.574730 0.922590 -0.048181
N10   N     N_R   0.631530 0.425270 0.077410 -0.049239
N11   N     N_R   0.425270 0.368470 0.922590 -0.048179
N12   N     N_R   0.131530 0.925270 0.577410 -0.044891
N13   N     N_R   0.574730 0.631530 0.077410 -0.049240
N14   N     N_R   0.631530 0.425270 0.922590 -0.048181
N15   N     N_R   0.368470 0.574730 0.077410 -0.049241
N16   N     N_R   0.574730 0.631530 0.922590 -0.048179
N17   N     N_R   0.425270 0.368470 0.077410 -0.049236
N18   N     N_R   0.368470 0.425270 0.077410 -0.048180
N19   N     N_R   0.631530 0.574730 0.922590 -0.049239
N20   N     N_R   0.425270 0.631530 0.077410 -0.048181
N21   N     N_R   0.574730 0.368470 0.922590 -0.049239
N22   N     N_R   0.631530 0.574730 0.077410 -0.048179
N23   N     N_R   0.925270 0.868470 0.422590 -0.044694
N24   N     N_R   0.368470 0.425270 0.922590 -0.049238
N25   N     N_R   0.574730 0.368470 0.077410 -0.048180
N26   N     N_R   0.425270 0.631530 0.922590 -0.049238
N27   N     N_2   0.180297 0.375814 0.786750 -0.116025
N28   N     N_2   0.727662 0.561055 0.280311 -0.117542
N29   N     N_2   0.624168 0.180310 0.786725 -0.116019
N30   N     N_2   0.438951 0.727662 0.280316 -0.117539
N31   N     N_2   0.819696 0.624173 0.786732 -0.116022
N32   N     N_2   0.272351 0.438945 0.280320 -0.117540
N33   N     N_2   0.375823 0.819693 0.786731 -0.116018
N34   N     N_R   0.074730 0.131530 0.577410 -0.044894
N35   N     N_2   0.561053 0.272333 0.280308 -0.117544
N36   N     N_2   0.180312 0.624162 0.213282 -0.116020
N37   N     N_2   0.727660 0.438951 0.719681 -0.117540
N38   N     N_2   0.624172 0.819695 0.213267 -0.116028
N39   N     N_2   0.438941 0.272345 0.719689 -0.117540
N40   N     N_2   0.819695 0.375822 0.213265 -0.116019
N41   N     N_2   0.272330 0.561052 0.719692 -0.117542
N42   N     N_2   0.375805 0.180296 0.213248 -0.116014
N43   N     N_2   0.561054 0.727660 0.719688 -0.117542
N44   N     N_2   0.643705 0.847704 0.373775 -0.117644
N45   N     N_R   0.131530 0.925270 0.422590 -0.044691
N46   N     N_2   0.356853 0.157034 0.631703 -0.118158
N47   N     N_2   0.152301 0.643702 0.373787 -0.117645
N48   N     N_2   0.842978 0.356851 0.631712 -0.118157
N49   N     N_2   0.356300 0.152285 0.373759 -0.117641
N50   N     N_2   0.643149 0.842975 0.631711 -0.118156
N51   N     N_2   0.847701 0.356296 0.373774 -0.117644
N52   N     N_2   0.157015 0.643151 0.631723 -0.118158
N53   N     N_2   0.643701 0.152299 0.626219 -0.117645
N54   N     N_2   0.356851 0.842981 0.368283 -0.118158
N55   N     N_2   0.152289 0.356294 0.626240 -0.117645
N56   N     N_R   0.868470 0.074730 0.577410 -0.044892
N57   N     N_2   0.842975 0.643149 0.368290 -0.118156
N58   N     N_2   0.356297 0.847699 0.626222 -0.117644
N59   N     N_2   0.643150 0.157019 0.368282 -0.118159
N60   N     N_2   0.847705 0.643704 0.626226 -0.117645
N61   N     N_2   0.157039 0.356853 0.368307 -0.118154
N62   N     N_R   0.074730 0.131530 0.422590 -0.044696
N63   N     N_R   0.925270 0.868470 0.577410 -0.044893
N64   N     N_R   0.868470 0.925270 0.577410 -0.044694
Ni1   Ni    Ni4+2 0.869670 0.000000 0.500000 0.206938
Ni2   Ni    Ni4+2 0.130330 0.000000 0.500000 0.206935
Ni3   Ni    Ni4+2 1.000000 0.869670 0.500000 0.206938
Ni4   Ni    Ni4+2 0.000000 0.130330 0.500000 0.206939
Ni5   Ni    Ni4+2 0.369670 0.500000 0.000000 0.211741
Ni6   Ni    Ni4+2 0.630330 0.500000 0.000000 0.211741
Ni7   Ni    Ni4+2 0.500000 0.369670 0.000000 0.211742
Ni8   Ni    Ni4+2 0.500000 0.630330 0.000000 0.211741

loop_
_geom_bond_atom_site_label_1
_geom_bond_atom_site_label_2
_ccdc_geom_bond_type
C95   C124  A    
C71   C104  A    
C13   C79   A    
C9    H131  S    
N15   Ni5   S    
C23   H27   S    
C17   H3    S    
C20   H16   S    
C105  C116  A    
C95   N31   S    
H43   N55   S    
C92   N28   S    
C19   N47   S    
N14   Ni6   S    
C58   C112  A    
C10   N38   S    
C57   C76   S    
C15   H152  S    
C1    H1    S    
N4    N45   A    
C17   H159  S    
C28   H45   S    
C61   C80   S    
N16   Ni8   S    
C18   H5    S    
C45   N16   A    
N16   N19   A    
C57   C109  A    
C33   N61   S    
C25   H31   S    
C67   C94   A    
C59   C111  A    
C4    H109  S    
H26   N51   S    
C42   C86   A    
C74   H106  S    
C27   H41   S    
C64   C115  A    
C29   H49   S    
C9    H130  S    
C30   H54   S    
N6    Ni1   S    
N10   N25   A    
C54   C83   A    
C7    H122  S    
C7    N35   S    
N2    N62   A    
C68   C101  A    
C118  H150  S    
C71   C99   A    
H149  N42   S    
C10   H134  S    
C32   H63   S    
C54   N25   A    
C47   N18   A    
C16   H156  S    
C30   N58   S    
N5    N34   A    
C48   H80   S    
C1    N1    A    
C116  N52   S    
C104  N40   S    
C46   N17   A    
C23   N51   S    
C58   C79   S    
C33   H66   S    
C34   H35   S    
C62   C75   S    
C79   C85   A    
C54   H86   S    
N20   Ni8   S    
C123  N59   S    
C105  N41   S    
C66   C103  A    
C6    H118  S    
C6    N33   S    
C21   N49   S    
C25   N52   S    
C28   H47   S    
C31   N59   S    
C44   N15   A    
C21   H18   S    
C12   N40   S    
C63   N34   A    
N21   Ni7   S    
H127  N37   S    
H110  N32   S    
N2    Ni2   S    
C39   N10   A    
H123  N36   S    
N11   Ni7   S    
C14   H148  S    
C100  C111  A    
C128  H98   S    
C29   H51   S    
C31   H59   S    
C52   H84   S    
C102  C109  A    
C16   H157  S    
C121  N57   S    
C126  H90   S    
C5    H112  S    
H105  N31   S    
C60   C114  A    
N63   N64   A    
C12   H143  S    
C49   N20   A    
C113  N49   S    
C101  C112  A    
C103  C110  A    
N24   Ni5   S    
C8    N36   S    
C107  N63   A    
C55   H87   S    
C41   N12   A    
N34   Ni4   S    
H21   N50   S    
N3    N56   A    
C28   H44   S    
N6    N23   A    
C25   H33   S    
C64   C73   S    
C38   H70   S    
C115  N51   S    
H52   N58   S    
N56   Ni1   S    
C19   H9    S    
C51   N22   A    
H97   N29   S    
C85   H117  S    
C4    H108  S    
C6    H116  S    
C93   C117  A    
N10   Ni6   S    
C59   C78   S    
C71   C83   S    
C43   N14   A    
C35   C76   A    
C106  C113  A    
C21   H20   S    
C63   H95   S    
C15   N42   S    
C96   H128  S    
C55   N26   A    
C3    H103  S    
C58   C117  A    
C36   C75   A    
C16   N43   S    
H158  N44   S    
C60   C81   S    
C14   H146  S    
H61   N60   S    
C128  H100  S    
H65   N61   S    
C32   H62   S    
N45   Ni2   S    
C72   C105  A    
C127  H96   S    
C50   C87   A    
C19   H11   S    
N13   N22   A    
C47   C90   A    
C42   H74   S    
C70   C89   S    
C49   H81   S    
C62   C122  A    
C98   C122  A    
C39   H71   S    
C22   H23   S    
C8    H124  S    
C53   H85   S    
C48   N19   A    
C52   C76   A    
H34   N53   S    
N8    Ni4   S    
C17   N44   S    
C124  N60   S    
N15   N20   A    
H141  N40   S    
C3    N30   S    
C2    N2    A    
C15   H151  S    
C110  N46   S    
C45   H77   S    
C107  H139  S    
C23   H29   S    
N14   N21   A    
C26   H36   S    
C11   H138  S    
C18   H6    S    
C96   N62   A    
C50   N21   A    
C14   N41   S    
C99   N35   S    
N11   N24   A    
C50   H82   S    
C44   H76   S    
C68   C87   S    
C103  N39   S    
N3    Ni4   S    
C22   H25   S    
C69   C97   A    
C27   N54   S    
C81   C107  A    
C26   H37   S    
C9    H129  S    
C30   H55   S    
C40   C84   A    
C20   H15   S    
C18   N46   S    
C65   C86   S    
C67   C88   S    
C7    H121  S    
C12   H142  S    
N9    N26   A    
C34   C77   A    
N63   Ni3   S    
C8    H125  S    
C10   H135  S    
C32   H64   S    
C46   H78   S    
C36   H57   S    
C108  C114  A    
N5    Ni2   S    
C24   H24   S    
C127  H94   S    
H88   N27   S    
C98   N33   S    
C13   H13   S    
C45   C89   A    
C27   H40   S    
C23   H28   S    
C38   C82   A    
C49   C88   A    
C51   C86   A    
C126  N27   S    
C111  N47   S    
C97   C125  A    
C17   H160  S    
C40   H72   S    
C81   C118  A    
H56   N59   S    
H8    N47   S    
C41   C75   A    
C104  C115  A    
N7    Ni3   S    
C25   H32   S    
C29   N57   S    
C27   H42   S    
C24   N4    A    
C22   N50   S    
C24   C78   A    
C29   H50   S    
C53   C84   A    
C30   H53   S    
C41   H73   S    
H12   N48   S    
C126  H91   S    
C112  N48   S    
C119  N54   S    
H136  N39   S    
C59   C119  A    
C5    H111  S    
C40   N11   A    
C12   H144  S    
C69   C106  A    
H92   N28   S    
N7    N12   A    
C46   C90   A    
C106  N42   S    
C64   C123  A    
C10   H133  S    
C1    C73   A    
C16   H155  S    
C39   C83   A    
C120  N55   S    
C117  N53   S    
C2    H2    S    
N4    Ni3   S    
N1    Ni1   S    
C125  N61   S    
C20   N48   S    
C61   C113  A    
C35   N6    A    
C22   H22   S    
C33   H67   S    
N18   Ni5   S    
N17   N18   A    
C74   C78   A    
N23   Ni3   S    
C70   C108  A    
C122  N58   S    
C5    N32   S    
C93   N29   S    
C65   C92   A    
H114  N33   S    
C114  N50   S    
C28   N55   S    
H132  N38   S    
C72   C98   A    
N19   Ni6   S    
C33   H69   S    
C21   H19   S    
H17   N49   S    
C19   H10   S    
H30   N52   S    
C53   N24   A    
C3    H102  S    
C85   N56   A    
C60   C124  A    
H39   N54   S    
N12   Ni2   S    
C14   H147  S    
C36   N7    A    
C31   H60   S    
C80   C96   A    
C126  H89   S    
C127  N28   S    
N64   Ni1   S    
H145  N41   S    
C56   C120  A    
C32   N60   S    
C65   C102  A    
C26   N53   S    
C56   C110  A    
H119  N35   S    
N25   Ni7   S    
C101  N37   S    
N1    N8    A    
C37   H68   S    
C20   H14   S    
H101  N30   S    
C91   N27   S    
C66   C84   S    
C7    H120  S    
C97   N32   S    
C56   C77   S    
C62   C116  A    
N13   Ni8   S    
C34   N5    A    
C94   C119  A    
N62   Ni4   S    
C11   H140  S    
C94   N30   S    
H154  N43   S    
C11   H137  S    
C18   H7    S    
C55   C82   A    
C4    N31   S    
C67   C100  A    
C9    N37   S    
C13   N3    A    
C37   N8    A    
C48   C89   A    
C43   H75   S    
C4    H107  S    
C11   N39   S    
C6    H115  S    
C15   H153  S    
N26   Ni8   S    
C69   C90   S    
C99   C123  A    
C63   C77   A    
C37   C73   A    
C26   H38   S    
C35   H46   S    
N22   Ni6   S    
C74   N45   A    
C3    H104  S    
N17   Ni7   S    
H4    N46   S    
C66   C91   A    
C68   C93   A    
C52   N23   A    
C47   H79   S    
C43   C87   A    
C100  N36   S    
C70   C95   A    
C92   C121  A    
C128  H99   S    
C31   H58   S    
C8    H126  S    
N9    Ni5   S    
C108  N43   S    
H48   N57   S    
C102  N38   S    
C2    C80   A    
C127  H93   S    
C57   C121  A    
C51   H83   S    
C38   N9    A    
C128  N29   S    
C91   C120  A    
C61   C125  A    
C5    H113  S    
C44   C88   A    
C118  N64   A    
C42   N13   A    
C109  N44   S    
C72   C82   S    
