data_mof_unit_33058.cif
_audit_creation_date              2012-12-10T18:41:21-0500
_audit_creation_method            fapswitch 2.2
_symmetry_space_group_name_H-M    P1
_symmetry_Int_Tables_number       1
_space_group_crystal_system       triclinic
_cell_length_a                    15.144207
_cell_length_b                    13.837837
_cell_length_c                    10.851509
_cell_angle_alpha                 89.884921
_cell_angle_beta                  90.265291
_cell_angle_gamma                 89.812886
_cell_volume                      2274.03435852

loop_
_atom_site_label
_atom_site_type_symbol
_atom_type_description
_atom_site_fract_x
_atom_site_fract_y
_atom_site_fract_z
_atom_type_partial_charge
C1    C     C_R   0.329830 0.500048 0.501688 0.828206
C2    C     C_R   0.670284 0.499785 0.498711 0.825215
C3    C     C_R   0.185928 0.420911 0.550959 0.436143
C4    C     C_R   0.815289 0.417209 0.460711 0.436925
C5    C     C_R   0.093675 0.424916 0.552543 -0.263994
C6    C     C_R   0.907470 0.421352 0.458563 -0.262724
C7    C     C_R   0.048566 0.504273 0.502208 0.072995
C8    C     C_R   0.951905 0.504088 0.498679 0.072569
C9    C     C_R   0.529803 0.107347 0.603116 -0.289013
C10   C     C_R   0.469308 0.107739 0.397881 -0.305323
C11   C     C_R   0.530527 0.208945 0.600367 0.055018
C12   C     C_R   0.469105 0.209321 0.400025 0.069519
C13   C     C_R   0.499520 0.054450 0.500602 0.146681
C14   C     C_R   0.436008 0.892438 0.433745 -0.320466
C15   C     C_R   0.563372 0.891819 0.567198 -0.320232
C16   C     C_R   0.437609 0.790849 0.434297 0.087759
C17   C     C_R   0.562296 0.790248 0.565819 0.069301
C18   C     C_R   0.499585 0.945223 0.500633 0.133052
C19   C     C_R   0.499099 0.499998 0.262530 0.823747
C20   C     C_R   0.499834 0.499850 0.737463 0.821519
C21   C     C_R   0.497124 0.583805 0.061678 0.030759
C22   C     C_R   0.498258 0.583594 0.937675 0.032489
C23   C     C_R   0.497026 0.498970 0.129993 -0.092047
C24   C     C_R   0.498193 0.498706 0.869965 -0.094588
C25   C     C_R   0.495589 0.410763 0.064808 -0.206395
C26   C     C_R   0.495961 0.410637 0.935658 -0.203203
C27   C     C_3   0.504080 0.690765 0.927523 0.218576
C28   C     C_3   0.500852 0.691269 0.070251 0.209493
C29   C     C_R   0.095861 0.582481 0.454692 -0.165724
C30   C     C_R   0.903942 0.585308 0.536170 -0.167663
C31   C     C_R   0.187597 0.580751 0.455978 -0.262152
C32   C     C_R   0.812208 0.583312 0.535002 -0.263443
C33   C     C_R   0.233228 0.500313 0.503419 -0.110170
C34   C     C_R   0.767091 0.499684 0.497690 -0.114946
Cu1   Cu    Cu3+1 0.500000 0.596430 0.500000 0.962862
Cu2   Cu    Cu3+1 0.500000 0.403570 0.500000 0.956947
H1    H     H_    0.494832 0.342081 0.112810 0.156588
H2    H     H_    0.495210 0.341913 0.888074 0.157297
H3    H     H_    0.384435 0.928961 0.382252 0.132019
H4    H     H_    0.614492 0.927786 0.619520 0.133691
H5    H     H_    0.388544 0.751571 0.381979 0.107723
H6    H     H_    0.611424 0.750517 0.618091 0.110693
H7    H     H_    0.568077 0.712155 0.885062 0.077564
H8    H     H_    0.439625 0.721235 0.112508 0.081742
H9    H     H_    0.061836 0.644223 0.415137 0.139967
H10   H     H_    0.937443 0.649760 0.567816 0.140315
H11   H     H_    0.222943 0.641823 0.418027 0.159691
H12   H     H_    0.776533 0.646989 0.564964 0.161521
H13   H     H_    0.057014 0.366592 0.594813 0.133742
H14   H     H_    0.944550 0.360011 0.424278 0.135153
H15   H     H_    0.552534 0.070865 0.685664 0.126845
H16   H     H_    0.446400 0.071560 0.315495 0.126638
H17   H     H_    0.555600 0.247658 0.679405 0.119020
H18   H     H_    0.444066 0.248323 0.320862 0.117671
N1    N     N_R   0.500000 0.258690 0.500000 -0.170402
N2    N     N_R   0.500000 0.741330 0.500000 -0.160172
O1    O     O_R   0.371460 0.581430 0.500010 -0.597489
O2    O     O_R   0.628540 0.581430 0.499990 -0.598476
O3    O     O_R   0.371470 0.418560 0.500010 -0.555666
O4    O     O_R   0.628530 0.418560 0.499990 -0.550320
O5    O     O_R   0.499990 0.581450 0.319660 -0.564605
O6    O     O_R   0.500010 0.581450 0.680340 -0.567827
O7    O     O_R   0.500010 0.418580 0.319660 -0.604768
O8    O     O_R   0.499990 0.418580 0.680340 -0.604605
O9    O     O_3   0.426573 0.728894 0.872581 -0.598959
C35   C     C_3   0.438530 0.826505 0.836895 0.087746
H19   H     H_    0.412774 0.834514 0.741378 0.184496
H20   H     H_    0.508692 0.850733 0.834751 0.102550
C36   C     C_3   0.385289 0.893119 0.921014 -0.364534
H21   H     H_    0.314256 0.873564 0.915497 0.230556
H22   H     H_    0.407675 0.883881 0.017898 0.193661
C37   C     C_3   0.396275 0.998885 0.883931 -0.936078
H23   H     H_    0.466485 0.020818 0.893277 0.247429
H24   H     H_    0.355613 0.045311 0.944907 0.255746
H25   H     H_    0.374444 0.010206 0.787114 0.263720
O10   O     O_3   0.581016 0.720771 0.125121 -0.595708
C38   C     C_3   0.580288 0.822117 0.139119 0.054215
H26   H     H_    0.523273 0.845765 0.196251 0.139808
H27   H     H_    0.576747 0.858069 0.047334 0.127562
C39   C     C_3   0.665312 0.853192 0.203729 -0.286040
H28   H     H_    0.668866 0.819218 0.296590 0.230828
H29   H     H_    0.723023 0.828260 0.149268 0.217909
C40   C     C_3   0.669556 0.962799 0.217436 -0.955529
H30   H     H_    0.664529 0.998464 0.125863 0.253468
H31   H     H_    0.733552 0.983064 0.260168 0.259876
H32   H     H_    0.615119 0.988869 0.277065 0.270081
O11   O     O_3   0.229852 0.345286 0.608796 -0.599069
C41   C     C_3   0.218368 0.259692 0.539754 0.064769
H33   H     H_    0.245726 0.268899 0.445243 0.140061
H34   H     H_    0.147378 0.239635 0.532965 0.122477
C42   C     C_3   0.267564 0.177080 0.604107 -0.292833
H35   H     H_    0.338771 0.195030 0.610931 0.240235
H36   H     H_    0.241620 0.167981 0.699072 0.217154
C43   C     C_3   0.256821 0.082168 0.534269 -0.946471
H37   H     H_    0.186329 0.060295 0.532559 0.253333
H38   H     H_    0.295856 0.024512 0.580689 0.261016
H39   H     H_    0.280674 0.089902 0.438167 0.255081
O12   O     O_3   0.772615 0.336714 0.414131 -0.597280
C44   C     C_3   0.782925 0.258817 0.497492 0.064234
H40   H     H_    0.748070 0.275087 0.585309 0.141792
H41   H     H_    0.853829 0.243723 0.517807 0.120907
C45   C     C_3   0.742995 0.167998 0.440429 -0.289175
H42   H     H_    0.671793 0.180312 0.421049 0.241830
H43   H     H_    0.776430 0.152284 0.351702 0.216210
C46   C     C_3   0.753565 0.081026 0.526016 -0.963986
H44   H     H_    0.824638 0.064285 0.540506 0.254590
H45   H     H_    0.721259 0.017086 0.484232 0.267195
H46   H     H_    0.722414 0.095719 0.616519 0.253886

loop_
_geom_bond_atom_site_label_1
_geom_bond_atom_site_label_2
_ccdc_geom_bond_type
C15   C18   A    
C35   H20   S    
O11   C41   S    
C7    C29   A    
C4    O12   S    
C14   C18   A    
Cu1   Cu2   S    
C9    H15   S    
Cu2   O3    S    
C10   H16   S    
C1    C33   S    
C7    C8    S    
C38   H26   S    
C46   H45   S    
C13   C18   S    
Cu1   O2    S    
C24   C26   A    
C1    O3    A    
C45   H43   S    
C2    O4    A    
C35   C36   S    
C3    C33   A    
C45   C46   S    
C36   H22   S    
C9    C13   A    
C17   H6    S    
C25   H1    S    
C14   H3    S    
C20   C24   S    
C19   O7    A    
C31   C33   A    
Cu2   O7    S    
C11   H17   S    
C37   H23   S    
C2    C34   S    
C35   H19   S    
C31   H11   S    
C21   C22   A    
C32   H12   S    
C5    H13   S    
C36   H21   S    
C39   C40   S    
C38   H27   S    
C46   H46   S    
C4    C34   A    
C3    O11   S    
C45   H42   S    
O10   C38   S    
C37   H24   S    
C42   H35   S    
C5    C7    A    
C26   H2    S    
C6    C8    A    
C43   H39   S    
C3    C5    A    
C25   C26   A    
C28   H8    S    
C29   H9    S    
C32   C34   A    
C20   O8    A    
C36   C37   S    
C19   C23   S    
C16   N2    A    
C27   O9    S    
C1    O1    A    
C42   H36   S    
C44   H40   S    
C41   C42   S    
C44   C45   S    
Cu1   O5    S    
C6    H14   S    
C43   H38   S    
C9    C11   A    
C17   N2    A    
C10   C12   A    
C4    C6    A    
C44   H41   S    
C21   C28   S    
C41   H34   S    
O12   C44   S    
C22   C27   S    
C21   C23   A    
C14   C16   A    
C40   H30   S    
C28   O10   S    
C11   N1    A    
C38   C39   S    
C15   C17   A    
C40   H31   S    
Cu1   N2    S    
C30   H10   S    
C39   H28   S    
Cu2   O4    S    
C10   C13   A    
C2    O2    A    
C46   H44   S    
Cu1   O1    S    
C8    C30   A    
C29   C31   A    
Cu2   N1    S    
C42   C43   S    
C30   C32   A    
C37   H25   S    
C19   O5    A    
C39   H29   S    
Cu1   O6    S    
C22   C24   A    
C23   C25   A    
C20   O6    A    
C43   H37   S    
C15   H4    S    
C12   N1    A    
C27   H7    S    
C40   H32   S    
C41   H33   S    
O9    C35   S    
C27   C28   S    
Cu2   O8    S    
C16   H5    S    
C12   H18   S    
