data_mof_unit_44985.cif
_audit_creation_date              2012-12-10T19:09:06-0500
_audit_creation_method            fapswitch 2.2
_symmetry_space_group_name_H-M    P1
_symmetry_Int_Tables_number       1
_space_group_crystal_system       triclinic
_cell_length_a                    17.736317
_cell_length_b                    10.856866
_cell_length_c                    9.543384
_cell_angle_alpha                 90.652058
_cell_angle_beta                  90.18252
_cell_angle_gamma                 90.661589
_cell_volume                      1837.4302042

loop_
_atom_site_label
_atom_site_type_symbol
_atom_type_description
_atom_site_fract_x
_atom_site_fract_y
_atom_site_fract_z
_atom_type_partial_charge
C1    C     C_R   0.497395 0.262467 0.499121 0.807147
C2    C     C_R   0.886244 0.480467 0.503797 0.022150
C3    C     C_1   0.966896 0.480228 0.504895 0.021551
C4    C     C_1   0.034497 0.481533 0.506275 0.031252
C5    C     C_R   0.153466 0.577002 0.586129 0.447344
C6    C     C_R   0.232509 0.587252 0.577043 -0.106512
C7    C     C_R   0.273037 0.496701 0.500095 -0.194459
C8    C     C_R   0.233626 0.400643 0.427879 -0.051230
C9    C     C_R   0.154714 0.398288 0.430730 -0.190045
C10   C     C_R   0.115181 0.485331 0.508485 -0.014931
C11   C     C_R   0.473200 0.065652 0.619142 0.187364
C12   C     C_R   0.355862 0.499213 0.499897 0.868280
C13   C     C_R   0.487754 0.129785 0.496287 -0.145563
C14   C     C_R   0.490548 0.063298 0.369233 -0.180728
C15   C     C_R   0.491455 0.934757 0.370351 -0.200951
C16   C     C_R   0.490374 0.871389 0.498448 -0.088749
C17   C     C_R   0.475294 0.938804 0.620456 0.188330
C18   C     C_3   0.511254 0.938265 0.761991 -0.571405
C19   C     C_3   0.508128 0.078048 0.761468 -0.213868
C20   C     C_R   0.561365 0.542507 0.075332 0.270986
C21   C     C_R   0.442585 0.447232 0.073298 -0.068532
C22   C     C_R   0.442412 0.447834 0.924613 -0.044435
C23   C     C_R   0.498759 0.738021 0.500300 0.854002
C24   C     C_R   0.561338 0.543800 0.927291 0.187059
C25   C     C_3   0.589734 0.674225 0.930415 -0.250104
C26   C     C_3   0.593676 0.668507 0.089065 -0.456888
C27   C     C_R   0.644438 0.492681 0.499496 0.826767
C28   C     C_R   0.846155 0.503382 0.627370 0.526198
C29   C     C_R   0.767474 0.499963 0.624447 -0.296416
C30   C     C_R   0.727682 0.480238 0.498318 -0.138976
C31   C     C_R   0.769090 0.452058 0.374400 0.010771
C32   C     C_R   0.847975 0.455733 0.378596 -0.301489
Cu1   Cu    Cu3+1 0.500000 0.499980 0.640670 0.970297
Cu2   Cu    Cu3+1 0.500000 0.500020 0.359330 0.979788
H1    H     H_    0.496991 0.886257 0.271512 0.158718
H2    H     H_    0.473416 0.894984 0.840536 0.212030
H3    H     H_    0.570020 0.903982 0.758286 0.182695
H4    H     H_    0.564539 0.123864 0.760202 0.145871
H5    H     H_    0.395526 0.405962 0.127940 0.150800
H6    H     H_    0.395005 0.407822 0.868378 0.183770
H7    H     H_    0.545612 0.736869 0.894581 0.148170
H8    H     H_    0.651067 0.666800 0.135978 0.223757
H9    H     H_    0.737829 0.513859 0.721836 0.189692
H10   H     H_    0.554748 0.733914 0.140341 0.186371
H11   H     H_    0.879925 0.435343 0.284506 0.160044
H12   H     H_    0.123534 0.326984 0.374068 0.199010
H13   H     H_    0.496487 0.109872 0.270034 0.174113
N1    N     N_R   0.500470 0.500930 0.147930 -0.188013
N2    N     N_R   0.500480 0.500890 0.852020 -0.206578
O1    O     O_R   0.500000 0.319640 0.618810 -0.576772
O2    O     O_R   0.500010 0.319680 0.381230 -0.573062
O3    O     O_R   0.391250 0.499990 0.618840 -0.561075
O4    O     O_R   0.391260 0.500020 0.381250 -0.598266
O5    O     O_R   0.499990 0.680320 0.618770 -0.570899
O6    O     O_R   0.500000 0.680360 0.381190 -0.594278
O7    O     O_R   0.608740 0.499980 0.618750 -0.609829
O8    O     O_R   0.608750 0.500010 0.381160 -0.544579
O9    O     O_3   0.883317 0.523192 0.753257 -0.581628
C33   C     C_3   0.897365 0.650706 0.769140 -0.277311
H14   H     H_    0.844621 0.704854 0.762085 0.194463
H15   H     H_    0.938682 0.683785 0.690185 0.181127
H16   H     H_    0.922123 0.668069 0.874491 0.196436
C34   C     C_2   0.456087 0.129039 0.871828 0.431602
H17   H     H_    0.475492 0.135709 0.979597 0.058589
O10   O     O_2   0.392437 0.162247 0.842546 -0.540231
C35   C     C_2   0.663592 0.693712 0.856611 0.381027
H18   H     H_    0.664087 0.698101 0.743216 0.070627
O11   O     O_2   0.722503 0.709143 0.921324 -0.563866
C36   C     C_2   0.734208 0.411136 0.240290 0.386657
H19   H     H_    0.758011 0.441990 0.141887 0.083644
O12   O     O_2   0.682526 0.335865 0.237858 -0.529784
O13   O     O_3   0.113006 0.663651 0.661218 -0.590008
C37   C     C_3   0.100445 0.617950 0.797084 -0.334733
H20   H     H_    0.154325 0.596826 0.851508 0.151383
H21   H     H_    0.063135 0.534875 0.794229 0.199180
H22   H     H_    0.071621 0.689816 0.859897 0.199289
C38   C     C_2   0.270008 0.695960 0.645273 0.412310
H23   H     H_    0.242801 0.743765 0.731394 0.115288
O14   O     O_2   0.329778 0.737266 0.602486 -0.554231
C39   C     C_2   0.273663 0.299594 0.353160 0.397338
H24   H     H_    0.333919 0.288011 0.365153 0.062712
O15   O     O_2   0.239420 0.226432 0.277673 -0.525583

loop_
_geom_bond_atom_site_label_1
_geom_bond_atom_site_label_2
_ccdc_geom_bond_type
C35   O11   D    
C34   O10   D    
C37   H20   S    
C26   H10   S    
C7    C8    A    
C38   H23   S    
Cu1   O3    S    
C11   C19   S    
Cu2   O2    S    
C28   C29   A    
C18   H3    S    
C5    O13   S    
C9    H12   S    
C5    C6    A    
C16   C17   A    
Cu1   N2    S    
C15   C16   A    
C24   N2    A    
C2    C32   A    
C18   C19   S    
C32   H11   S    
C36   O12   D    
C14   H13   S    
C20   C24   A    
C19   C34   S    
C8    C9    A    
Cu2   O8    S    
C1    O1    A    
C12   O4    A    
C21   N1    A    
Cu1   O7    S    
C35   H18   S    
Cu2   O6    S    
C13   C14   A    
C29   H9    S    
C27   C30   S    
C37   H21   S    
C15   H1    S    
C12   O3    A    
Cu1   Cu2   S    
C38   O14   D    
C7    C12   S    
C33   H15   S    
C24   C25   S    
C39   O15   D    
C27   O8    A    
C25   H7    S    
C27   O7    A    
O13   C37   S    
C6    C38   S    
Cu1   O1    S    
C29   C30   A    
C19   H4    S    
C31   C32   A    
C21   H5    S    
C31   C36   S    
C22   H6    S    
C17   C18   S    
C1    O2    A    
C20   N1    A    
C22   N2    A    
C16   C23   S    
C37   H22   S    
O9    C33   S    
C1    C13   S    
C4    C10   S    
C3    C4    T    
C26   H8    S    
C23   O5    A    
C9    C10   A    
Cu1   O5    S    
C11   C17   A    
C33   H16   S    
C25   C35   S    
C39   H24   S    
C23   O6    A    
C6    C7    A    
C28   O9    S    
C2    C3    S    
C25   C26   S    
C5    C10   A    
C11   C13   A    
C30   C31   A    
C20   C26   S    
C36   H19   S    
C34   H17   S    
C33   H14   S    
Cu2   N1    S    
Cu2   O4    S    
C8    C39   S    
C14   C15   A    
C2    C28   A    
C21   C22   A    
C18   H2    S    
