data_mof_unit_42244.cif
_audit_creation_date              2012-12-11T15:44:50-0500
_audit_creation_method            fapswitch 2.2
_symmetry_space_group_name_H-M    P1
_symmetry_Int_Tables_number       1
_space_group_crystal_system       triclinic
_cell_length_a                    19.095655
_cell_length_b                    11.028557
_cell_length_c                    18.750572
_cell_angle_alpha                 89.784294
_cell_angle_beta                  90.316271
_cell_angle_gamma                 89.955124
_cell_volume                      3948.73453396

loop_
_atom_site_label
_atom_site_type_symbol
_atom_type_description
_atom_site_fract_x
_atom_site_fract_y
_atom_site_fract_z
_atom_type_partial_charge
C1    C     C_R   0.759525 0.537058 0.647786 0.531677
C2    C     C_R   0.238570 0.532120 0.354346 0.540303
C3    C     C_R   0.261401 0.032369 0.645678 0.541256
C4    C     C_R   0.740470 0.036995 0.352185 0.528567
C5    C     C_R   0.834166 0.106116 0.520374 -0.162884
C6    C     C_R   0.189265 0.037046 0.465258 -0.157036
C7    C     C_R   0.310480 0.536338 0.535098 -0.157049
C8    C     C_R   0.665605 0.606522 0.479662 -0.163153
C9    C     C_R   0.824740 0.088214 0.447568 -0.166167
C10   C     C_R   0.191663 0.041348 0.538272 -0.166316
C11   C     C_R   0.308085 0.539880 0.462019 -0.167205
C12   C     C_R   0.675130 0.588650 0.552502 -0.165837
C13   C     C_3   0.687184 0.295290 0.439215 -0.264436
C14   C     C_3   0.347615 0.229062 0.539038 -0.279982
C15   C     C_3   0.152999 0.730354 0.460033 -0.279788
C16   C     C_3   0.813183 0.794602 0.559755 -0.264689
C17   C     C_3   0.700242 0.321354 0.516521 -0.252277
C18   C     C_3   0.340860 0.238811 0.458938 -0.264266
C19   C     C_3   0.159601 0.740252 0.540118 -0.264632
C20   C     C_3   0.799892 0.820724 0.482393 -0.251445
C21   C     C_R   0.780017 0.152830 0.561715 0.001077
C22   C     C_R   0.244529 0.083377 0.424863 0.009852
C23   C     C_R   0.255409 0.583843 0.575186 0.011419
C24   C     C_R   0.719777 0.652800 0.438107 0.001358
C25   C     C_R   0.989936 0.330526 0.420872 -0.040322
C26   C     C_R   0.997766 0.342942 0.571434 -0.035075
C27   C     C_R   0.502423 0.842927 0.428695 -0.035760
C28   C     C_R   0.510146 0.830553 0.579299 -0.038237
C29   C     C_R   0.997668 0.107063 0.429159 -0.090203
C30   C     C_R   0.020233 0.122701 0.575571 -0.096043
C31   C     C_R   0.479570 0.623043 0.425405 -0.096605
C32   C     C_R   0.502330 0.606965 0.571846 -0.089113
C33   C     C_R   0.006089 0.001975 0.469718 -0.161383
C34   C     C_R   0.018151 0.010084 0.542643 -0.154933
C35   C     C_R   0.481483 0.510379 0.458757 -0.154372
C36   C     C_R   0.493721 0.501998 0.531673 -0.161060
C37   C     C_R   0.005432 0.229728 0.536823 0.003933
C38   C     C_R   0.998333 0.222625 0.461525 0.018723
C39   C     C_R   0.501730 0.722639 0.539060 0.019832
C40   C     C_R   0.494604 0.729833 0.463743 0.003199
C41   C     C_R   0.990141 0.449583 0.528622 0.023224
C42   C     C_R   0.972973 0.438078 0.456048 0.008702
C43   C     C_R   0.527206 0.937980 0.543753 0.008093
C44   C     C_R   0.510146 0.949598 0.471110 0.023829
C45   C     C_R   0.791048 0.170706 0.638474 0.560238
C46   C     C_R   0.226837 0.124812 0.353819 0.551270
C47   C     C_R   0.273172 0.625084 0.646142 0.556361
C48   C     C_R   0.708802 0.670715 0.361363 0.558442
C49   C     C_R   0.998179 0.568521 0.555498 -0.066517
C50   C     C_R   0.946706 0.539047 0.417977 -0.066923
C51   C     C_R   0.553491 0.038712 0.581508 -0.067348
C52   C     C_R   0.502259 0.068688 0.443812 -0.066167
C53   C     C_R   0.977484 0.668839 0.515315 -0.141917
C54   C     C_R   0.950498 0.654013 0.447082 -0.113866
C55   C     C_R   0.549957 0.153717 0.551936 -0.114646
C56   C     C_R   0.523105 0.168813 0.483607 -0.141666
C57   C     C_R   0.745361 0.075447 0.075013 -0.031062
C58   C     C_R   0.247166 0.087602 0.921622 -0.013123
C59   C     C_R   0.247243 0.581902 0.076283 -0.019553
C60   C     C_R   0.744034 0.590220 0.919252 -0.018369
C61   C     C_R   0.808848 0.056797 0.042159 0.071365
C62   C     C_R   0.189393 0.049004 0.960457 -0.001127
C63   C     C_R   0.311931 0.579144 0.043049 -0.012708
C64   C     C_R   0.686025 0.551153 0.957979 0.004610
C65   C     C_R   0.814317 0.063397 0.969528 0.050319
C66   C     C_R   0.189436 0.053292 0.033307 -0.013809
C67   C     C_R   0.316317 0.581170 0.970687 -0.004570
C68   C     C_R   0.684220 0.563123 0.030414 -0.001813
C69   C     C_R   0.689504 0.098300 0.957162 -0.013498
C70   C     C_R   0.303582 0.147968 0.034124 0.006789
C71   C     C_R   0.191917 0.610944 0.958638 0.001998
C72   C     C_R   0.793913 0.673463 0.028923 0.011323
C73   C     C_R   0.684978 0.093269 0.032175 -0.186583
C74   C     C_R   0.300743 0.149183 0.958430 -0.175697
C75   C     C_R   0.187494 0.608122 0.033817 -0.174486
C76   C     C_R   0.793500 0.663174 0.953801 -0.170864
C77   C     C_3   0.876092 0.122012 0.054687 -0.268339
C78   C     C_3   0.151554 0.930441 0.960944 -0.216272
C79   C     C_3   0.375792 0.501816 0.050288 -0.242289
C80   C     C_3   0.648772 0.431531 0.961160 -0.223558
C81   C     C_3   0.882895 0.128075 0.974553 -0.239620
C82   C     C_3   0.152041 0.935675 0.041339 -0.255482
C83   C     C_3   0.379684 0.502245 0.969284 -0.230674
C84   C     C_3   0.646304 0.446320 0.041274 -0.251086
C85   C     C_R   0.756552 0.088483 0.925583 -0.017491
C86   C     C_R   0.245515 0.097852 0.072523 -0.005897
C87   C     C_R   0.257762 0.591985 0.926252 -0.008539
C88   C     C_R   0.739698 0.613478 0.068770 -0.021763
C89   C     C_R   0.971042 0.346980 0.646072 0.529061
C90   C     C_R   0.026521 0.344333 0.351601 0.542343
C91   C     C_R   0.473499 0.844435 0.648458 0.536338
C92   C     C_R   0.528998 0.846869 0.353972 0.524523
C93   C     C_R   0.049181 0.345713 0.063518 -0.001880
C94   C     C_R   0.009085 0.343008 0.919697 0.027287
C95   C     C_R   0.517732 0.834321 0.071209 0.048318
C96   C     C_R   0.491179 0.831687 0.925960 0.040564
C97   C     C_R   0.029726 0.451655 0.028887 0.005011
C98   C     C_R   0.007860 0.448887 0.959535 0.082569
C99   C     C_R   0.451715 0.802552 0.047024 -0.018212
C100  C     C_R   0.438355 0.804827 0.974758 0.020015
C101  C     C_R   0.037004 0.237460 0.950785 -0.168484
C102  C     C_R   0.055211 0.238286 0.023609 -0.160630
C103  C     C_R   0.560500 0.839562 0.949423 -0.137955
C104  C     C_R   0.573838 0.841211 0.022791 -0.122563
C105  C     C_3   0.972546 0.536452 0.049413 -0.221985
C106  C     C_3   0.946629 0.529219 0.973768 -0.242083
C107  C     C_3   0.383768 0.860785 0.064490 -0.283908
C108  C     C_3   0.370554 0.868980 0.984885 -0.251176
C109  C     C_R   0.759721 0.533451 0.851334 0.538764
C110  C     C_R   0.238769 0.531526 0.147367 0.538149
C111  C     C_R   0.260180 0.033296 0.851874 0.535107
C112  C     C_R   0.738692 0.031981 0.147592 0.538037
C113  C     C_R   0.772624 0.126092 0.853055 0.579070
C114  C     C_R   0.228289 0.126568 0.146704 0.555311
C115  C     C_R   0.272384 0.624890 0.852670 0.571272
C116  C     C_R   0.726344 0.631588 0.144804 0.559962
C117  C     C_R   0.971487 0.346755 0.852466 0.550917
C118  C     C_R   0.062752 0.351221 0.139595 0.558272
C119  C     C_R   0.470917 0.845730 0.852707 0.552273
C120  C     C_R   0.531981 0.846454 0.145667 0.546416
C121  C     C_R   0.758914 0.106719 0.415759 0.001295
C122  C     C_R   0.252477 0.076325 0.573803 0.011853
C123  C     C_R   0.247494 0.575727 0.426183 0.010879
C124  C     C_R   0.741029 0.606912 0.584107 0.002199
C125  C     C_R   0.707407 0.166917 0.454204 0.035075
C126  C     C_R   0.311051 0.110198 0.534088 0.045353
C127  C     C_R   0.189075 0.610920 0.465684 0.045979
C128  C     C_R   0.792609 0.666495 0.545347 0.033957
C129  C     C_R   0.718852 0.191880 0.526900 0.024778
C130  C     C_R   0.306105 0.118224 0.460107 0.008838
C131  C     C_R   0.193996 0.619292 0.539647 0.010379
C132  C     C_R   0.781076 0.691406 0.472607 0.024086
Cr1   Cr    Cr6+3 0.885860 0.491680 0.749630 1.020228
Cr2   Cr    Cr6+3 0.114140 0.491680 0.250370 1.018854
Cr3   Cr    Cr6+3 0.385860 0.991680 0.749630 1.031162
Cr4   Cr    Cr6+3 0.614140 0.991680 0.250370 1.024792
Cr5   Cr    Cr6+3 0.730490 0.332970 0.748720 1.033373
Cr6   Cr    Cr6+3 0.269510 0.332970 0.251280 1.041861
Cr7   Cr    Cr6+3 0.230490 0.832970 0.748720 1.031286
Cr8   Cr    Cr6+3 0.769510 0.832970 0.251280 1.052763
Cr9   Cr    Cr6+3 0.887570 0.179310 0.750150 1.003148
Cr10  Cr    Cr6+3 0.112430 0.179310 0.249850 1.001815
Cr11  Cr    Cr6+3 0.387570 0.679310 0.750150 1.008629
Cr12  Cr    Cr6+3 0.612430 0.679310 0.249850 1.002377
H1    H     H_    0.882829 0.079415 0.544967 0.166152
H2    H     H_    0.141231 0.006235 0.440833 0.163334
H3    H     H_    0.358396 0.505058 0.559752 0.162772
H4    H     H_    0.616913 0.579997 0.455225 0.166025
H5    H     H_    0.982697 0.758154 0.537206 0.090551
H6    H     H_    0.935646 0.731574 0.415142 0.104276
H7    H     H_    0.564911 0.231109 0.583584 0.104927
H8    H     H_    0.518079 0.258201 0.461367 0.091077
H9    H     H_    0.633925 0.097698 0.056955 0.190020
H10   H     H_    0.345701 0.180191 0.928526 0.173152
H11   H     H_    0.136549 0.615534 0.058443 0.165685
H12   H     H_    0.836282 0.700259 0.922992 0.166928
H13   H     H_    0.916373 0.063817 0.080667 0.154572
H14   H     H_    0.184323 0.855390 0.940547 0.181515
H15   H     H_    0.364146 0.412048 0.073143 0.204676
H16   H     H_    0.682340 0.354327 0.944818 0.168796
H17   H     H_    0.868661 0.212376 0.079735 0.126638
H18   H     H_    0.098299 0.938681 0.937185 0.161462
H19   H     H_    0.419966 0.550619 0.076165 0.139879
H20   H     H_    0.596194 0.435196 0.935472 0.161521
H21   H     H_    0.879967 0.222258 0.953485 0.131331
H22   H     H_    0.098905 0.945825 0.064419 0.146034
H23   H     H_    0.426558 0.550067 0.948487 0.156452
H24   H     H_    0.592351 0.460280 0.061699 0.156843
H25   H     H_    0.926241 0.071328 0.953765 0.163368
H26   H     H_    0.185311 0.864710 0.066765 0.142676
H27   H     H_    0.368887 0.412335 0.945047 0.169501
H28   H     H_    0.678142 0.377799 0.070700 0.141116
H29   H     H_    0.038854 0.153490 0.921172 0.122731
H30   H     H_    0.068775 0.154508 0.049831 0.145546
H31   H     H_    0.602974 0.850567 0.911966 0.141149
H32   H     H_    0.627055 0.853355 0.041766 0.117187
H33   H     H_    0.993886 0.626916 0.063805 0.197116
H34   H     H_    0.895979 0.480066 0.968800 0.117180
H35   H     H_    0.391105 0.948599 0.091218 0.190868
H36   H     H_    0.324122 0.817867 0.966323 0.132113
H37   H     H_    0.935227 0.496218 0.088237 0.172580
H38   H     H_    0.948810 0.616620 0.944819 0.180670
H39   H     H_    0.347712 0.798439 0.092747 0.137996
H40   H     H_    0.374709 0.961698 0.963347 0.168210
H41   H     H_    0.866113 0.045409 0.417946 0.139529
H42   H     H_    0.147564 0.007488 0.567459 0.148836
H43   H     H_    0.352104 0.505304 0.433083 0.148010
H44   H     H_    0.633806 0.545908 0.582350 0.139786
H45   H     H_    0.098282 0.721130 0.440719 0.154676
H46   H     H_    0.868891 0.803535 0.575760 0.142226
H47   H     H_    0.631559 0.304812 0.422953 0.142506
H48   H     H_    0.402322 0.219029 0.558296 0.154811
H49   H     H_    0.724446 0.342867 0.403268 0.152002
H50   H     H_    0.316199 0.296904 0.568558 0.136002
H51   H     H_    0.184740 0.797735 0.430253 0.135270
H52   H     H_    0.776162 0.842536 0.595636 0.153803
H53   H     H_    0.746356 0.381026 0.524855 0.148477
H54   H     H_    0.303563 0.309785 0.441754 0.177771
H55   H     H_    0.197047 0.810855 0.557080 0.176702
H56   H     H_    0.753763 0.880546 0.474017 0.149030
H57   H     H_    0.652420 0.346784 0.545823 0.142617
H58   H     H_    0.391306 0.238162 0.430155 0.125686
H59   H     H_    0.109063 0.740107 0.568764 0.125689
H60   H     H_    0.847616 0.845860 0.452784 0.142910
H61   H     H_    0.004896 0.914445 0.444036 0.102425
H62   H     H_    0.028431 0.929826 0.574109 0.099518
H63   H     H_    0.470948 0.430317 0.427613 0.100068
H64   H     H_    0.494871 0.414338 0.557616 0.102162
H65   H     H_    0.985935 0.095878 0.373112 0.132647
H66   H     H_    0.034616 0.124736 0.631396 0.136443
H67   H     H_    0.465188 0.625326 0.369573 0.135772
H68   H     H_    0.514152 0.595580 0.627914 0.131357
H69   H     H_    0.927107 0.529760 0.363920 0.136921
H70   H     H_    0.022647 0.585854 0.606563 0.141902
H71   H     H_    0.477786 0.086349 0.392706 0.141039
H72   H     H_    0.572975 0.029213 0.635641 0.144384
O1    O     O_R   0.957020 0.451640 0.669920 -0.515792
O2    O     O_R   0.042980 0.451640 0.330080 -0.507170
O3    O     O_R   0.457020 0.951640 0.669920 -0.508504
O4    O     O_R   0.542980 0.951640 0.330080 -0.517878
O5    O     O_R   0.736470 0.210100 0.823360 -0.468442
O6    O     O_R   0.263530 0.210100 0.176640 -0.454089
O7    O     O_R   0.236470 0.710100 0.823360 -0.479051
O8    O     O_R   0.763530 0.710100 0.176640 -0.445538
O9    O     O_R   0.831960 0.093290 0.830130 -0.514152
O10   O     O_R   0.168040 0.093290 0.169870 -0.534506
O11   O     O_R   0.331960 0.593290 0.830130 -0.522784
O12   O     O_R   0.668040 0.593290 0.169870 -0.518860
O13   O     O_R   0.945600 0.250580 0.824860 -0.519515
O14   O     O_R   0.054400 0.250580 0.175140 -0.510623
O15   O     O_R   0.445600 0.750580 0.824860 -0.513943
O16   O     O_R   0.554400 0.750580 0.175140 -0.510471
O17   O     O_3   0.834640 0.334650 0.749500 -0.277116
O18   O     O_3   0.165360 0.334650 0.250500 -0.274653
O19   O     O_3   0.334640 0.834650 0.749500 -0.257132
O20   O     O_3   0.665360 0.834650 0.250500 -0.282118
O21   O     O_R   0.821450 0.543440 0.674610 -0.491629
O22   O     O_R   0.178550 0.543440 0.325390 -0.491376
O23   O     O_R   0.321450 0.043440 0.674610 -0.491895
O24   O     O_R   0.678550 0.043440 0.325390 -0.492201
O25   O     O_R   0.715320 0.458650 0.668100 -0.543059
O26   O     O_R   0.284680 0.458650 0.331900 -0.540483
O27   O     O_R   0.215320 0.958650 0.668100 -0.541485
O28   O     O_R   0.784680 0.958650 0.331900 -0.543477
O29   O     O_R   0.737170 0.209590 0.674530 -0.487152
O30   O     O_R   0.262830 0.209590 0.325470 -0.497331
O31   O     O_R   0.237170 0.709590 0.674530 -0.497081
O32   O     O_R   0.762830 0.709590 0.325470 -0.493965
O33   O     O_R   0.832710 0.092740 0.669580 -0.521216
O34   O     O_R   0.167290 0.092740 0.330420 -0.527655
O35   O     O_R   0.332710 0.592740 0.669580 -0.527723
O36   O     O_R   0.667290 0.592740 0.330420 -0.523265
O37   O     O_R   0.946290 0.250060 0.676040 -0.521691
O38   O     O_R   0.053710 0.250060 0.323960 -0.503311
O39   O     O_R   0.446290 0.750060 0.676040 -0.509378
O40   O     O_R   0.553710 0.750060 0.323960 -0.521628
O41   O     O_R   0.956270 0.452200 0.830470 -0.495418
O42   O     O_R   0.043730 0.452200 0.169530 -0.518401
O43   O     O_R   0.456270 0.952200 0.830470 -0.496134
O44   O     O_R   0.543730 0.952200 0.169530 -0.495417
O45   O     O_R   0.820760 0.543950 0.823440 -0.512724
O46   O     O_R   0.179240 0.543950 0.176560 -0.525648
O47   O     O_R   0.320760 0.043950 0.823440 -0.512292
O48   O     O_R   0.679240 0.043950 0.176560 -0.515782
O49   O     O_R   0.714570 0.459210 0.828640 -0.519470
O50   O     O_R   0.285430 0.459210 0.171360 -0.514251
O51   O     O_R   0.214570 0.959210 0.828640 -0.521531
O52   O     O_R   0.785430 0.959210 0.171360 -0.488062
C133  C     C_2   0.623995 0.112249 0.914611 0.559195
O53   O     O_2   0.621534 0.079025 0.852497 -0.514910
O54   O     O_R   0.563877 0.159249 0.946584 -0.707835
H73   H     H_    0.522327 0.162299 0.912723 0.360980
C134  C     C_2   0.372170 0.180139 0.068233 0.531896
O55   O     O_2   0.383265 0.160740 0.131495 -0.514666
O56   O     O_R   0.426624 0.225681 0.026285 -0.732016
H74   H     H_    0.470822 0.242161 0.054861 0.357820
C135  C     C_2   0.127467 0.629175 0.915563 0.568628
O57   O     O_2   0.120420 0.578241 0.858124 -0.505759
O58   O     O_R   0.074739 0.705420 0.940467 -0.749350
H75   H     H_    0.038553 0.724301 0.902277 0.329819
C136  C     C_2   0.855329 0.737816 0.060662 0.575040
O59   O     O_2   0.878402 0.709929 0.119361 -0.521212
O60   O     O_R   0.891415 0.823389 0.019743 -0.730455
H76   H     H_    0.935136 0.854533 0.044487 0.325866

loop_
_geom_bond_atom_site_label_1
_geom_bond_atom_site_label_2
_ccdc_geom_bond_type
Cr9   O33   S    
Cr7   O31   S    
C47   O31   A    
C2    C123  S    
Cr11  O35   S    
C116  O12   A    
C6    H2    S    
C94   C117  S    
C95   C99   A    
O54   H73   S    
C29   C33   A    
C46   O34   A    
C35   C36   A    
C83   H27   S    
C70   C74   A    
C9    C121  A    
C17   H53   S    
C81   H25   S    
C112  O52   A    
C87   C115  S    
C119  O15   A    
C106  H34   S    
C97   C105  S    
C14   H50   S    
C70   C134  S    
C15   C127  S    
C22   C130  A    
Cr9   O9    S    
Cr2   O22   S    
C20   C132  S    
C41   C49   A    
C108  H40   S    
C23   C47   S    
Cr11  O11   S    
C62   C66   A    
C120  O44   A    
C60   C76   A    
C52   H71   S    
Cr8   O28   S    
C48   O36   A    
C43   C44   A    
C115  O11   A    
C37   C38   A    
C84   H24   S    
C66   C82   S    
C78   C82   S    
C113  O9    A    
Cr2   O42   S    
C19   H59   S    
C50   C54   A    
Cr4   O44   S    
C17   H57   S    
C113  O5    A    
C112  O48   A    
C133  O54   S    
Cr7   O19   S    
C18   C130  S    
Cr7   O7    S    
Cr7   O51   S    
C107  H35   S    
C93   C102  A    
C105  H33   S    
C10   C122  A    
C14   C126  S    
C57   C61   A    
C118  O42   A    
C59   C63   A    
C98   C106  S    
C60   C64   A    
C1    C124  S    
C111  O51   A    
C48   O32   A    
C91   O39   A    
C49   C53   A    
C51   C55   A    
C127  C131  A    
C125  C129  A    
C5    C21   A    
Cr9   O17   S    
C126  C130  A    
C51   H72   S    
C88   C116  S    
C101  H29   S    
C120  O16   A    
C97   C98   A    
C104  H32   S    
C53   C54   A    
C5    C9    A    
C33   H61   S    
C25   C90   S    
C64   C68   A    
Cr10  O14   S    
Cr6   O6    S    
C74   H10   S    
C36   H64   S    
C57   C73   A    
C20   H56   S    
C60   C109  S    
C45   O33   A    
C27   C44   A    
C78   H14   S    
C61   C77   S    
C29   C38   A    
C107  C108  S    
Cr7   O27   S    
C47   O35   A    
C14   H48   S    
C44   C52   A    
C15   H45   S    
Cr11  O39   S    
C135  O57   D    
C53   H5    S    
Cr1   O21   S    
C134  O55   D    
C21   C45   S    
C100  C108  S    
C5    H1    S    
C30   C34   A    
C24   C48   S    
C46   O30   A    
C109  O49   A    
C39   C40   A    
Cr8   O8    S    
C50   H69   S    
C1    O21   A    
C83   H23   S    
C121  C125  A    
C61   C65   A    
C25   C38   A    
Cr5   O29   S    
C123  C127  A    
C27   C40   A    
C8    C12   A    
Cr2   O18   S    
C23   C131  A    
C2    O26   A    
C21   C129  A    
C42   C50   A    
C90   O38   A    
C93   C97   A    
C69   C85   A    
C58   C74   A    
Cr8   O32   S    
C62   C78   S    
C84   H28   S    
C66   C86   A    
C75   H11   S    
C29   H65   S    
C136  O60   S    
C19   H55   S    
Cr10  O38   S    
C13   C17   S    
C85   C113  S    
Cr5   O25   S    
C7    C23   A    
C96   C100  A    
C117  O13   A    
C10   H42   S    
C28   C91   S    
C90   O2    A    
O60   H76   S    
C72   C136  S    
Cr11  O15   S    
C4    O28   A    
C58   C62   A    
C119  O43   A    
C55   C56   A    
C101  C102  A    
C41   C42   A    
C96   C119  S    
O56   H74   S    
C80   C84   S    
C15   C19   S    
Cr12  O40   S    
C71   C135  S    
C115  O7    A    
C79   H15   S    
C80   H16   S    
C94   C98   A    
Cr9   O13   S    
C6    C22   A    
Cr5   O5    S    
C31   C40   A    
C32   C39   A    
C80   H20   S    
C7    H3    S    
C18   H54   S    
O58   H75   S    
Cr8   O52   S    
C69   C73   A    
C56   H8    S    
C124  C128  A    
C15   H51   S    
Cr1   O41   S    
C13   H49   S    
C133  O53   D    
C11   H43   S    
C64   C80   S    
C8    H4    S    
Cr10  O10   S    
C77   H17   S    
Cr12  O20   S    
C58   C111  S    
C68   C84   S    
C20   H60   S    
C54   H6    S    
C45   O29   A    
C28   C39   A    
Cr2   O2    S    
C49   H70   S    
C76   H12   S    
C30   C37   A    
C116  O8    A    
Cr1   O45   S    
C16   H52   S    
C114  O10   A    
C24   C132  A    
C65   C81   S    
C77   C81   S    
C103  H31   S    
C4    O24   A    
C18   H58   S    
Cr1   O17   S    
C114  O6    A    
C16   H46   S    
C71   C87   A    
C92   O40   A    
C35   H63   S    
C22   C46   S    
C31   C35   A    
Cr6   O18   S    
C109  O45   A    
C32   C36   A    
C110  O50   A    
C82   H22   S    
Cr3   O43   S    
Cr12  O16   S    
C11   C123  A    
C25   C42   A    
C6    C10   A    
C26   C37   A    
Cr4   O4    S    
C95   C120  S    
C99   C107  S    
C105  C106  S    
C28   C43   A    
Cr9   O37   S    
C79   C83   S    
C43   C51   A    
C4    C121  S    
C69   C133  S    
C96   C103  A    
C103  C104  A    
Cr8   O20   S    
C13   C125  S    
C3    O23   A    
C82   H26   S    
Cr3   O47   S    
Cr10  O34   S    
Cr4   O48   S    
C14   C18   S    
C72   C76   A    
C63   C79   S    
C34   H62   S    
C26   C89   S    
C7    C11   A    
Cr6   O30   S    
C9    H41   S    
C32   H68   S    
C57   C112  S    
C12   H44   S    
Cr4   O20   S    
C59   C110  S    
C108  H36   S    
Cr11  O19   S    
C92   O4    A    
C106  H38   S    
C134  O56   S    
Cr5   O49   S    
C94   C101  A    
Cr6   O26   S    
C3    C122  S    
C16   C20   S    
Cr12  O36   S    
Cr2   O46   S    
C89   O37   A    
C128  C132  A    
C72   C88   A    
C19   C131  S    
C63   C67   A    
C17   C129  S    
C2    O22   A    
Cr6   O50   S    
C136  O59   D    
Cr1   O1    S    
C107  H39   S    
C122  C126  A    
C117  O41   A    
C99   C100  A    
C12   C124  A    
Cr3   O3    S    
C33   C34   A    
C27   C92   S    
C3    O27   A    
C67   C83   S    
C16   C128  S    
C111  O47   A    
C1    O25   A    
C78   H18   S    
C135  O58   S    
C68   C88   A    
C93   C118  S    
Cr5   O17   S    
C70   C86   A    
C59   C75   A    
C95   C104  A    
C55   H7    S    
C79   H19   S    
C30   H66   S    
C65   C85   A    
C102  H30   S    
C67   C87   A    
C13   H47   S    
C86   C114  S    
C105  H37   S    
Cr4   O24   S    
C71   C75   A    
C118  O14   A    
Cr3   O23   S    
Cr3   O19   S    
C91   O3    A    
C110  O46   A    
C89   O1    A    
Cr10  O18   S    
C31   H67   S    
C8    C24   A    
C73   H9    S    
C81   H21   S    
Cr12  O12   S    
C52   C56   A    
C26   C41   A    
C77   H13   S    
