data_mof_unit_22757.cif
_audit_creation_date              2012-12-11T17:05:28-0500
_audit_creation_method            fapswitch 2.2
_symmetry_space_group_name_H-M    P1
_symmetry_Int_Tables_number       1
_space_group_crystal_system       triclinic
_cell_length_a                    7.017734
_cell_length_b                    14.716233
_cell_length_c                    15.962451
_cell_angle_alpha                 89.929364
_cell_angle_beta                  89.948874
_cell_angle_gamma                 89.490305
_cell_volume                      1648.44875927

loop_
_atom_site_label
_atom_site_type_symbol
_atom_type_description
_atom_site_fract_x
_atom_site_fract_y
_atom_site_fract_z
_atom_type_partial_charge
O1    O     O_R   0.494380 0.415640 0.412830 -0.541678
O2    O     O_R   0.823960 0.405540 0.586560 -0.549533
O3    O     O_R   0.994270 0.584360 0.587170 -0.542334
C1    C     C_R   0.655302 0.382436 0.613826 0.662712
O4    O     O_R   0.824090 0.404620 0.413450 -0.497785
O5    O     O_R   0.994400 0.583430 0.412820 -0.539701
C2    C     C_R   0.656723 0.383201 0.384467 0.729705
O6    O     O_R   0.494250 0.416570 0.587180 -0.545534
O7    O     O_3   0.660800 0.558670 0.500000 -0.365789
V1    V     V_3+5 0.935650 0.489120 0.500000 1.501678
O8    O     O_R   0.324110 0.594460 0.413440 -0.532066
C3    C     C_R   0.153808 0.614983 0.384137 0.744543
O9    O     O_R   0.323980 0.595380 0.586550 -0.539906
C4    C     C_R   0.155640 0.614660 0.617403 0.666878
V2    V     V_3+5 0.435660 0.510880 0.500000 1.478509
O10   O     O_3   0.160640 0.441330 0.500000 -0.356926
C5    C     C_3   0.981694 0.660365 0.751316 -0.359949
H1    H     H_    0.847140 0.647408 0.717549 0.184876
H2    H     H_    0.016730 0.596440 0.785547 0.125944
C6    C     C_3   0.950778 0.739027 0.815388 -0.393915
H3    H     H_    0.931345 0.709395 0.878859 0.113976
H4    H     H_    0.819118 0.777224 0.799137 0.238647
H5    H     H_    0.969556 0.782233 0.624147 0.191603
C7    C     C_3   0.111373 0.779983 0.655060 -0.371770
C8    C     C_3   0.337324 0.684397 0.741879 -0.199455
C9    C     C_3   0.147478 0.682895 0.689553 0.005338
H6    H     H_    0.380943 0.613609 0.758005 0.052806
C10   C     C_3   0.124852 0.804245 0.814990 -0.005397
C11   C     C_3   0.127968 0.851632 0.726622 -0.171350
C12   C     C_3   0.303055 0.738425 0.825106 0.319720
H7    H     H_    0.260344 0.685813 0.872328 0.039222
H8    H     H_    0.216609 0.795940 0.605404 0.170828
H9    H     H_    0.264967 0.888385 0.719848 0.140289
C13   C     C_R   0.191428 0.832445 0.259242 -0.102166
C14   C     C_R   0.116393 0.811968 0.180600 -0.028145
C15   C     C_R   0.026645 0.726584 0.173668 -0.202241
H10   H     H_    0.954507 0.708518 0.116189 0.108245
C16   C     C_R   0.035322 0.662332 0.240444 -0.207607
H11   H     H_    0.969779 0.596583 0.232288 0.144629
C17   C     C_R   0.134766 0.681822 0.315442 -0.097351
C18   C     C_R   0.197919 0.770342 0.324260 -0.115404
C19   C     C_3   0.366624 0.815951 0.364093 0.819479
C20   C     C_3   0.358805 0.884199 0.289646 0.215976
H12   H     H_    0.319461 0.955005 0.307339 0.031646
C21   C     C_R   0.501309 0.316550 0.741386 0.031150
C22   C     C_R   0.646706 0.314179 0.681672 -0.092695
C23   C     C_R   0.790493 0.247703 0.692429 -0.205323
H13   H     H_    0.910121 0.244490 0.649671 0.128764
C24   C     C_R   0.777419 0.182333 0.757053 -0.156207
H14   H     H_    0.890281 0.132390 0.763109 0.151689
C25   C     C_R   0.621084 0.181685 0.813119 -0.164133
C26   C     C_R   0.489613 0.253571 0.805639 0.068371
C27   C     C_3   0.276840 0.258861 0.806768 0.326562
C28   C     C_3   0.290757 0.326047 0.733826 -0.436888
H15   H     H_    0.208857 0.192527 0.792445 0.056669
H16   H     H_    0.240523 0.396009 0.749006 0.171549
H17   H     H_    0.236668 0.298151 0.673807 0.138890
C29   C     C_R   0.517532 0.319960 0.253128 -0.213716
C30   C     C_R   0.652684 0.314371 0.316119 -0.213656
C31   C     C_R   0.776228 0.237873 0.314414 0.449948
C32   C     C_R   0.775911 0.176353 0.244058 0.379840
C33   C     C_R   0.626915 0.181692 0.183487 -0.230279
C34   C     C_R   0.503458 0.255965 0.189717 -0.219467
C35   C     C_3   0.289624 0.263541 0.186918 0.289961
C36   C     C_3   0.304174 0.333697 0.258259 0.866511
H18   H     H_    0.221796 0.199073 0.205346 0.126338
O11   O     O_R   0.771490 0.080820 0.910070 -0.546082
O12   O     O_R   0.441590 0.092730 0.083780 -0.540195
O13   O     O_R   0.271350 0.913900 0.084390 -0.513677
C37   C     C_R   0.610880 0.114402 0.113200 0.759368
O14   O     O_R   0.441780 0.091820 0.910670 -0.542579
O15   O     O_R   0.271540 0.912980 0.910040 -0.510133
C38   C     C_R   0.609977 0.113101 0.881411 0.704058
O16   O     O_R   0.771300 0.081740 0.084420 -0.506648
O17   O     O_3   0.604960 0.938700 0.997240 -0.370363
V3    V     V_3+5 0.330090 0.008230 0.997220 1.521888
O18   O     O_R   0.941820 0.901930 0.910640 -0.548828
C39   C     C_R   0.112091 0.875899 0.885205 0.662351
O19   O     O_R   0.941630 0.902840 0.083750 -0.556145
C40   C     C_R   0.110500 0.880171 0.111783 0.682806
V4    V     V_3+5 0.830090 0.986410 0.997190 1.476219
O20   O     O_3   0.105080 0.055990 0.997200 -0.364081
O21   O     O_3   0.470734 0.784305 0.850708 -0.546530
C41   C     C_3   0.543357 0.745309 0.925373 -0.221523
H19   H     H_    0.582490 0.672625 0.915701 0.097184
H20   H     H_    0.439206 0.752294 0.977654 0.126498
H21   H     H_    0.673669 0.781499 0.944231 0.177088
O22   O     O_3   0.533731 0.760385 0.372693 -0.539206
C42   C     C_3   0.592089 0.710397 0.301251 -0.178450
H22   H     H_    0.712424 0.745763 0.271638 0.190063
H23   H     H_    0.481473 0.699285 0.253050 0.123769
H24   H     H_    0.644818 0.642787 0.321986 0.141952
O23   O     O_3   0.332167 0.860695 0.442287 -0.555127
C43   C     C_3   0.139243 0.884102 0.458077 -0.345835
H25   H     H_    0.053200 0.822263 0.469449 0.162794
H26   H     H_    0.076088 0.924871 0.406717 0.117284
H27   H     H_    0.132499 0.926549 0.515389 0.184513
O24   O     O_3   0.507638 0.876968 0.231235 -0.551798
C44   C     C_3   0.654304 0.933768 0.257247 -0.216241
H28   H     H_    0.714515 0.910936 0.318292 0.145610
H29   H     H_    0.604538 0.005499 0.260763 0.111038
H30   H     H_    0.768180 0.930020 0.210189 0.187725
O25   O     O_3   0.216419 0.301983 0.880967 -0.565139
C45   C     C_3   0.016744 0.300530 0.887098 -0.254049
H31   H     H_    0.967699 0.230190 0.898132 0.169895
H32   H     H_    0.948205 0.332086 0.831371 0.148517
H33   H     H_    0.971903 0.341286 0.942156 0.163944
O26   O     O_3   0.891479 0.220897 0.382520 -0.536275
C46   C     C_3   0.782798 0.186342 0.449972 -0.307043
H34   H     H_    0.668121 0.139324 0.429689 0.105037
H35   H     H_    0.721006 0.242437 0.487710 0.136155
H36   H     H_    0.879350 0.147183 0.491826 0.163126
O27   O     O_3   0.926210 0.117051 0.227322 -0.548651
C47   C     C_3   0.980567 0.063613 0.296369 -0.249705
H37   H     H_    0.107620 0.091634 0.326479 0.168560
H38   H     H_    0.022601 0.996464 0.272124 0.116495
H39   H     H_    0.865958 0.052651 0.342944 0.127376
O28   O     O_3   0.203487 0.300969 0.113380 -0.535486
C48   C     C_3   0.334258 0.334371 0.053543 -0.070418
H40   H     H_    0.450886 0.374736 0.080685 0.097176
H41   H     H_    0.257868 0.382603 0.012091 0.174975
H42   H     H_    0.395465 0.277185 0.016704 0.158366
O29   O     O_3   0.212274 0.305372 0.334289 -0.522806
C49   C     C_3   0.303629 0.232968 0.378786 -0.170309
H43   H     H_    0.202417 0.197705 0.419956 0.188777
H44   H     H_    0.370727 0.181025 0.337690 0.041761
H45   H     H_    0.406280 0.259010 0.424658 0.117815
O30   O     O_3   0.230123 0.419921 0.231514 -0.533444
C50   C     C_3   0.368035 0.489325 0.224658 -0.283254
H46   H     H_    0.488696 0.471236 0.183035 0.120969
H47   H     H_    0.422927 0.508707 0.286708 0.150231
H48   H     H_    0.301390 0.549516 0.195211 0.158440
C51   C     C_1   0.972691 0.919080 0.716558 0.293006
N1    N     N_1   0.848908 0.970607 0.707888 -0.362383
C52   C     C_1   0.493547 0.724692 0.692004 0.397695
N2    N     N_1   0.610896 0.757642 0.651476 -0.353241

loop_
_geom_bond_atom_site_label_1
_geom_bond_atom_site_label_2
_ccdc_geom_bond_type
C11   C51   S    
O17   V3    S    
O23   C43   S    
C19   O23   S    
C18   C19   S    
C14   C15   A    
C41   H21   S    
C1    O6    A    
O30   C50   S    
C45   H32   S    
C47   H37   S    
C52   N2    T    
C23   C24   A    
C1    C22   S    
O18   C39   A    
O21   C41   S    
C5    C9    S    
C49   H44   S    
C10   C11   S    
C7    C9    S    
O27   C47   S    
C46   H35   S    
O5    C3    A    
C12   H7    S    
V2    O10   S    
O24   C44   S    
C11   H9    S    
C14   C40   S    
C8    C12   S    
C5    C6    S    
C35   O28   S    
O26   C46   S    
C33   C37   S    
O13   V3    S    
C13   C14   A    
C12   O21   S    
O28   C48   S    
O15   C39   A    
C7    C11   S    
O8    V2    S    
C44   H28   S    
C24   C25   A    
C37   O16   A    
H5    C7    S    
C20   O24   S    
O11   C38   A    
C42   H23   S    
C10   C39   S    
O7    V1    S    
C31   O26   S    
O15   V3    S    
C50   H48   S    
C48   H41   S    
C30   C31   A    
O9    C4    A    
C43   H25   S    
C13   C18   A    
C2    C30   S    
C45   H31   S    
V4    O20   S    
C27   H15   S    
C16   H11   S    
C28   H16   S    
C25   C26   A    
C36   O30   S    
O29   C49   S    
C41   H19   S    
C46   H36   S    
V3    O20   S    
O19   V4    S    
O17   V4    S    
C6    C10   S    
C21   C26   A    
C29   C30   A    
C21   C22   A    
O19   C40   A    
C31   C32   A    
C35   H18   S    
C3    C17   S    
O2    C1    A    
C20   H12   S    
C7    H8    S    
C33   C34   A    
C29   C36   S    
C23   H13   S    
O18   V4    S    
C48   H40   S    
C6    H3    S    
C5    H1    S    
C4    C9    S    
C42   H24   S    
C43   H26   S    
O3    C4    A    
C49   H45   S    
O1    V2    S    
C17   C18   A    
C44   H29   S    
C6    H4    S    
C21   C28   S    
O11   V4    S    
O6    V2    S    
O9    V2    S    
C32   O27   S    
C51   N1    T    
O12   V3    S    
C19   C20   S    
O16   V4    S    
O2    V1    S    
C26   C27   S    
O4    C2    A    
C50   H46   S    
C48   H42   S    
C29   C34   A    
C22   C23   A    
C15   H10   S    
O1    C2    A    
C13   C20   S    
C25   C38   S    
C41   H20   S    
O5    V1    S    
C47   H38   S    
O8    C3    A    
C27   C28   S    
C8    H6    S    
C43   H27   S    
C35   C36   S    
C15   C16   A    
C8    C9    S    
O4    V1    S    
O3    V1    S    
V1    O10   S    
C46   H34   S    
C16   C17   A    
O14   V3    S    
C27   O25   S    
C10   C12   S    
C5    H2    S    
C36   O29   S    
O7    V2    S    
C32   C33   A    
C8    C52   S    
C47   H39   S    
C34   C35   S    
C44   H30   S    
C19   O22   S    
O22   C42   S    
O12   C37   A    
C24   H14   S    
O14   C38   A    
O25   C45   S    
O13   C40   A    
C42   H22   S    
C45   H33   S    
C49   H43   S    
C50   H47   S    
C28   H17   S    
