data_mof_unit_58337.cif
_audit_creation_date              2013-03-05T15:46:02-0500
_audit_creation_method            fapswitch 2.2
_symmetry_space_group_name_H-M    P1
_symmetry_Int_Tables_number       1
_space_group_crystal_system       triclinic
_cell_length_a                    17.297267
_cell_length_b                    24.119344
_cell_length_c                    14.834517
_cell_angle_alpha                 89.998813
_cell_angle_beta                  124.16511
_cell_angle_gamma                 90.00042
_cell_volume                      5120.87084206

loop_
_atom_site_label
_atom_site_type_symbol
_atom_site_description
_atom_site_fract_x
_atom_site_fract_y
_atom_site_fract_z
_atom_type_partial_charge
C1    C     C_R   0.360296 0.154416 0.911222 0.013174
C2    C     C_R   0.359519 0.845799 0.910772 0.013693
C3    C     C_R   0.859564 0.654211 0.910782 0.014212
C4    C     C_R   0.860309 0.345581 0.911227 0.013277
H1    H     H_    0.335059 0.170657 0.831656 0.146948
H2    H     H_    0.333034 0.829904 0.830617 0.149791
H3    H     H_    0.833051 0.670103 0.830614 0.149361
H4    H     H_    0.835074 0.329342 0.831660 0.146893
N1    N     N_R   0.392140 0.102630 0.941800 -0.059559
N2    N     N_R   0.392140 0.897370 0.941800 -0.059015
N3    N     N_R   0.892140 0.602630 0.941800 -0.058998
N4    N     N_R   0.892140 0.397370 0.941800 -0.059542
C5    C     C_R   0.445204 0.846304 0.091282 -0.141908
C6    C     C_R   0.445317 0.153670 0.091531 -0.143454
C7    C     C_R   0.945322 0.346328 0.091534 -0.143437
C8    C     C_R   0.945226 0.653698 0.091285 -0.141861
H5    H     H_    0.490647 0.832510 0.174676 0.098452
H6    H     H_    0.490657 0.167370 0.175004 0.096798
H7    H     H_    0.990660 0.332629 0.175009 0.096794
H8    H     H_    0.990669 0.667485 0.174682 0.098438
N5    N     N_R   0.450890 0.896450 0.057150 -0.049271
N6    N     N_R   0.450890 0.103550 0.057150 -0.049255
N7    N     N_R   0.950890 0.396450 0.057150 -0.049244
N8    N     N_R   0.950890 0.603550 0.057150 -0.049249
C9    C     C_R   0.478277 0.046101 0.247428 -0.123365
C10   C     C_R   0.478267 0.953889 0.247407 -0.121510
C11   C     C_R   0.978267 0.546110 0.247406 -0.121415
C12   C     C_R   0.978276 0.453898 0.247427 -0.123341
H9    H     H_    0.467937 0.089201 0.257150 0.098958
H10   H     H_    0.467906 0.910782 0.257080 0.099448
H11   H     H_    0.967906 0.589217 0.257077 0.099444
H12   H     H_    0.967934 0.410798 0.257148 0.098951
N9    N     N_R   0.525160 0.027960 0.206160 -0.047448
N10   N     N_R   0.525160 0.972040 0.206160 -0.046583
N11   N     N_R   0.025160 0.527960 0.206160 -0.046543
N12   N     N_R   0.025160 0.472040 0.206160 -0.047418
C13   C     C_R   0.230086 0.954033 0.746480 0.321099
C14   C     C_R   0.231285 0.046928 0.747085 0.326794
C15   C     C_R   0.731288 0.453069 0.747170 0.326560
C16   C     C_R   0.730091 0.545943 0.746653 0.321013
N13   N     N_R   0.317870 0.971120 0.792790 -0.108705
N14   N     N_R   0.317870 0.028880 0.792790 -0.110662
N15   N     N_R   0.817870 0.471120 0.792790 -0.110662
N16   N     N_R   0.817870 0.528880 0.792790 -0.108887
C17   C     C_R   0.389295 0.186648 0.001612 0.007452
C18   C     C_R   0.388805 0.813460 0.001165 0.007678
C19   C     C_R   0.888853 0.686550 0.001173 0.007801
C20   C     C_R   0.889307 0.313350 0.001617 0.007451
C21   C     C_R   0.445908 0.999993 0.272564 0.045193
C22   C     C_R   0.945907 0.500006 0.272563 0.045167
C23   C     C_R   0.171601 0.000885 0.714619 -0.271862
C24   C     C_R   0.671601 0.499102 0.714818 -0.271188
C25   C     C_R   0.450678 0.045767 0.696306 -0.119077
C26   C     C_R   0.450678 0.954232 0.696310 -0.119706
C27   C     C_R   0.950677 0.545769 0.696309 -0.120015
C28   C     C_R   0.950679 0.454233 0.696309 -0.119067
H13   H     H_    0.432640 0.088298 0.669779 0.109218
H14   H     H_    0.432631 0.911702 0.669786 0.109591
H15   H     H_    0.932632 0.588299 0.669781 0.109379
H16   H     H_    0.932641 0.411702 0.669783 0.109168
N17   N     N_R   0.473480 0.027920 0.793480 -0.041855
N18   N     N_R   0.473480 0.972080 0.793480 -0.041971
N19   N     N_R   0.973480 0.527920 0.793480 -0.041977
N20   N     N_R   0.973480 0.472080 0.793480 -0.041827
C29   C     C_R   0.754203 0.953972 0.302568 -0.077914
C30   C     C_R   0.752168 0.046479 0.302774 -0.034820
C31   C     C_R   0.252194 0.453523 0.302772 -0.034984
C32   C     C_R   0.254214 0.546029 0.302563 -0.078534
H17   H     H_    0.768201 0.911197 0.328421 0.109806
H18   H     H_    0.762329 0.089327 0.327898 0.076623
H19   H     H_    0.262377 0.410674 0.327898 0.076759
H20   H     H_    0.268188 0.588804 0.328414 0.110089
N21   N     N_R   0.681610 0.971120 0.207570 -0.040433
N22   N     N_R   0.681610 0.028880 0.207570 -0.037247
N23   N     N_R   0.181610 0.471120 0.207570 -0.037316
N24   N     N_R   0.181610 0.528880 0.207570 -0.040503
C33   C     C_R   0.688617 0.124119 0.090760 -0.075673
C34   C     C_R   0.688614 0.875905 0.090675 -0.088817
C35   C     C_R   0.188622 0.624084 0.090669 -0.089315
C36   C     C_R   0.188618 0.375882 0.090760 -0.075857
H21   H     H_    0.745196 0.129210 0.174949 0.115436
H22   H     H_    0.745250 0.870824 0.174793 0.122803
H23   H     H_    0.245262 0.629164 0.174785 0.122640
H24   H     H_    0.245199 0.370791 0.174947 0.115511
N25   N     N_R   0.605410 0.102620 0.056870 -0.052427
N26   N     N_R   0.605410 0.897380 0.056870 -0.050789
N27   N     N_R   0.105410 0.602620 0.056870 -0.050698
N28   N     N_R   0.105410 0.397380 0.056870 -0.052413
C37   C     C_R   0.599099 0.875179 0.908417 -0.122163
C38   C     C_R   0.599183 0.124786 0.908486 -0.126508
C39   C     C_R   0.099182 0.375214 0.908486 -0.126511
C40   C     C_R   0.099104 0.624809 0.908413 -0.122129
H25   H     H_    0.573046 0.870147 0.823626 0.099688
H26   H     H_    0.573198 0.129765 0.823707 0.099923
H27   H     H_    0.073195 0.370234 0.823706 0.099916
H28   H     H_    0.073051 0.629836 0.823622 0.099674
N29   N     N_R   0.549680 0.896430 0.944180 -0.049006
N30   N     N_R   0.549680 0.103570 0.944180 -0.049360
N31   N     N_R   0.049680 0.396430 0.944180 -0.049356
N32   N     N_R   0.049680 0.603570 0.944180 -0.049039
Ni1   Ni    Ni4+2 0.433410 0.064680 0.868830 0.248704
Ni2   Ni    Ni4+2 0.433410 0.935320 0.868830 0.249293
Ni3   Ni    Ni4+2 0.933410 0.564680 0.868830 0.248986
Ni4   Ni    Ni4+2 0.933410 0.435320 0.868830 0.248664
Ni5   Ni    Ni4+2 0.565650 0.934380 0.131170 0.212917
Ni6   Ni    Ni4+2 0.565650 0.065620 0.131170 0.210899
Ni7   Ni    Ni4+2 0.065650 0.434380 0.131170 0.210905
Ni8   Ni    Ni4+2 0.065650 0.565620 0.131170 0.212907
C41   C     C_R   0.434272 0.999998 0.632110 0.035165
C42   C     C_R   0.934273 0.500002 0.632110 0.035281
C43   C     C_R   0.800493 0.000453 0.362663 0.010251
C44   C     C_R   0.300508 0.499551 0.362675 0.010309
C45   C     C_R   0.687912 0.137389 0.999232 0.056860
C46   C     C_R   0.687818 0.862580 0.999111 0.055951
C47   C     C_R   0.187827 0.637401 0.999102 0.055892
C48   C     C_R   0.187911 0.362611 0.999231 0.056849
C49   C     C_3   0.014572 0.954340 0.634556 -0.301622
C50   C     C_3   0.021628 0.057206 0.613251 -0.270439
C51   C     C_3   0.521539 0.442841 0.613527 -0.270422
C52   C     C_3   0.514582 0.545761 0.634515 -0.300941
H29   H     H_    0.022414 0.957435 0.714130 0.172619
H30   H     H_    0.029329 0.067637 0.690963 0.191590
H31   H     H_    0.529199 0.432491 0.691247 0.191410
H32   H     H_    0.522464 0.542822 0.714128 0.172901
C53   C     C_3   0.911363 0.956146 0.540312 -0.450220
C54   C     C_3   0.918913 0.056363 0.519929 -0.500711
C55   C     C_3   0.418833 0.443686 0.520133 -0.500660
C56   C     C_3   0.411358 0.543912 0.540321 -0.450223
H33   H     H_    0.868471 0.965994 0.572797 0.177416
H34   H     H_    0.874690 0.061460 0.552206 0.184177
H35   H     H_    0.374563 0.438661 0.552364 0.184145
H36   H     H_    0.368512 0.534086 0.572876 0.177409
H37   H     H_    0.887909 0.914348 0.503784 0.206376
H38   H     H_    0.904657 0.092970 0.467331 0.203811
H39   H     H_    0.404563 0.407037 0.467633 0.203871
H40   H     H_    0.387846 0.585694 0.503741 0.206434
H41   H     H_    0.099033 0.951234 0.521882 0.227310
H42   H     H_    0.111358 0.022354 0.511750 0.216579
H43   H     H_    0.611356 0.477464 0.511992 0.216662
H44   H     H_    0.599134 0.548626 0.521994 0.227148
C57   C     C_3   0.066294 0.991646 0.517314 -0.532475
C58   C     C_3   0.566339 0.508240 0.517485 -0.532450
C59   C     C_3   0.070524 0.001129 0.623123 0.254598
C60   C     C_3   0.570513 0.498874 0.623286 0.254073
C61   C     C_3   0.896903 0.000979 0.457078 0.147555
C62   C     C_3   0.396899 0.499029 0.457163 0.147520
C63   C     C_3   0.964069 0.993155 0.416114 0.567190
C64   C     C_3   0.464136 0.506745 0.416264 0.567368
C65   C     C_R   0.296958 0.729804 0.901192 -0.125939
C66   C     C_R   0.297181 0.270198 0.901536 -0.127619
C67   C     C_R   0.797191 0.229801 0.901541 -0.127590
C68   C     C_R   0.797001 0.770208 0.901211 -0.125813
H45   H     H_    0.275883 0.747313 0.823523 0.142119
H46   H     H_    0.275988 0.252606 0.823890 0.141657
H47   H     H_    0.776001 0.247395 0.823895 0.141655
H48   H     H_    0.775951 0.752713 0.823542 0.141982
C69   C     C_R   0.746244 0.185341 0.900864 -0.154258
C70   C     C_R   0.746156 0.814705 0.900651 -0.151371
C71   C     C_R   0.246137 0.685293 0.900630 -0.151314
C72   C     C_R   0.246239 0.314661 0.900860 -0.154256
H49   H     H_    0.688478 0.170307 0.822990 0.117638
H50   H     H_    0.688549 0.829894 0.822820 0.118527
H51   H     H_    0.188521 0.670112 0.822798 0.118532
H52   H     H_    0.188473 0.329696 0.822986 0.117631
C73   C     C_R   0.762412 0.166236 0.999227 0.126891
C74   C     C_R   0.762215 0.833658 0.999059 0.121557
C75   C     C_R   0.262223 0.666318 0.999040 0.121393
C76   C     C_R   0.262409 0.333764 0.999224 0.126873
C77   C     C_R   0.842857 0.183748 0.097977 -0.108249
C78   C     C_R   0.842426 0.815931 0.097783 -0.099880
C79   C     C_R   0.342450 0.684033 0.097760 -0.100077
C80   C     C_R   0.342853 0.316249 0.097974 -0.108242
H53   H     H_    0.861509 0.167256 0.175480 0.156568
H54   H     H_    0.860852 0.832109 0.175369 0.169681
H55   H     H_    0.360908 0.667824 0.175342 0.169511
H56   H     H_    0.361507 0.332740 0.175477 0.156667
C81   C     C_R   0.393266 0.728615 0.098396 -0.157458
C82   C     C_R   0.393697 0.271606 0.098734 -0.159418
C83   C     C_R   0.893704 0.228390 0.098739 -0.159426
C84   C     C_R   0.893271 0.771370 0.098415 -0.157730
H57   H     H_    0.448458 0.745208 0.176303 0.127033
H58   H     H_    0.449030 0.255088 0.176651 0.124385
H59   H     H_    0.949038 0.244906 0.176656 0.124366
H60   H     H_    0.948455 0.754771 0.176322 0.127061
C85   C     C_R   0.364275 0.755270 0.000279 0.116043
C86   C     C_R   0.364681 0.244846 0.000688 0.118434
C87   C     C_R   0.864693 0.255151 0.000694 0.118431
C88   C     C_R   0.864314 0.744736 0.000294 0.116058
C89   C     C_R   0.389284 0.949785 0.463548 -0.141813
C90   C     C_R   0.389248 0.050198 0.463518 -0.140607
C91   C     C_R   0.889253 0.449802 0.463525 -0.140618
C92   C     C_R   0.889281 0.550214 0.463542 -0.141794
H61   H     H_    0.390808 0.910215 0.498648 0.120998
H62   H     H_    0.390740 0.089769 0.498594 0.119808
H63   H     H_    0.890750 0.410231 0.498606 0.119784
H64   H     H_    0.890801 0.589785 0.498637 0.120936
C93   C     C_R   0.389578 0.949814 0.370460 -0.154200
C94   C     C_R   0.389540 0.050165 0.370427 -0.155447
C95   C     C_R   0.889544 0.449834 0.370434 -0.155401
C96   C     C_R   0.889573 0.550185 0.370452 -0.154084
C97   C     C_R   0.401141 0.999990 0.331719 0.132440
C98   C     C_R   0.901140 0.500009 0.331718 0.132444
C99   C     C_R   0.399248 0.999994 0.516725 0.136473
C100  C     C_R   0.899250 0.500006 0.516726 0.136436
N33   N     N_R   0.945695 0.940085 0.356262 0.210792
O1    O     O_R   0.955413 0.892911 0.404197 -0.449758
O2    O     O_R   0.935499 0.938847 0.262379 -0.356260
N34   N     N_R   0.951651 0.040386 0.344321 0.224054
O3    O     O_R   0.883489 0.040371 0.241532 -0.379170
O4    O     O_R   0.000517 0.085681 0.384370 -0.425540
N35   N     N_R   0.451678 0.459466 0.344565 0.223996
O5    O     O_R   0.383734 0.459564 0.241683 -0.379348
O6    O     O_R   0.500317 0.414102 0.384714 -0.425539
N36   N     N_R   0.445887 0.559760 0.356299 0.210985
O7    O     O_R   0.455068 0.606961 0.403896 -0.450067
O8    O     O_R   0.437101 0.560946 0.263215 -0.355526
H65   H     H_    0.391485 0.910295 0.337415 0.116871
H66   H     H_    0.391412 0.089682 0.337351 0.115454
H67   H     H_    0.891420 0.410316 0.337363 0.115441
H68   H     H_    0.891476 0.589703 0.337401 0.116870
N37   N     N_R   0.201596 0.898309 0.710646 0.209073
O9    O     O_R   0.170773 0.867650 0.756333 -0.451604
O10   O     O_R   0.222640 0.875259 0.647763 -0.428357
N38   N     N_R   0.206236 0.103289 0.715120 0.203315
O11   O     O_R   0.224169 0.126031 0.649233 -0.427014
O12   O     O_R   0.170250 0.132980 0.756184 -0.459814
N39   N     N_R   0.706206 0.396713 0.715198 0.203360
O13   O     O_R   0.670262 0.367024 0.756320 -0.459720
O14   O     O_R   0.724100 0.373965 0.649281 -0.426946
N40   N     N_R   0.701560 0.601703 0.711259 0.208877
O15   O     O_R   0.721946 0.624900 0.647912 -0.428366
O16   O     O_R   0.670761 0.632160 0.757211 -0.451427
H69   H     H_    0.037819 0.913229 0.627765 0.250608
H70   H     H_    0.050039 0.090666 0.589507 0.251713
H71   H     H_    0.549932 0.409317 0.589907 0.251772
H72   H     H_    0.537810 0.586830 0.627442 0.250665

loop_
_geom_bond_atom_site_label_1
_geom_bond_atom_site_label_2
_geom_bond_distance
_ccdc_geom_bond_type
C35   H23   1.076496 S    
C65   C85   1.404058 A    
C35   C47   1.388343 A    
N13   N14   1.393136 A    
C6    H6    1.080218 S    
N11   N12   1.348756 A    
C52   C60   1.556806 S    
C36   H24   1.076946 S    
C56   C62   1.552350 S    
N38   O11   1.301116 A    
N40   O16   1.302331 A    
C35   N27   1.334370 A    
C29   N21   1.321453 A    
C94   H66   1.080789 S    
N33   O1    1.301618 A    
C89   C99   1.402084 A    
C67   C87   1.404187 A    
C80   H56   1.080523 S    
N4    N7    1.417105 A    
C40   N32   1.335757 A    
C24   C60   1.494824 S    
C66   C72   1.384449 A    
C1    H1    1.076323 S    
C72   H52   1.080725 S    
C16   C24   1.409385 A    
C49   C59   1.556706 S    
C55   H39   1.110389 S    
C14   N14   1.323531 A    
C3    H3    1.076547 S    
C43   C61   1.455840 S    
C32   C44   1.375150 A    
C5    C18   1.379010 A    
C13   C23   1.409505 A    
H43   C58   1.111422 S    
N36   O8    1.301926 A    
C17   C86   1.464679 S    
N39   O14   1.301148 A    
N1    N6    1.417106 A    
C83   C87   1.401454 A    
N27   N32   1.383624 A    
C54   H34   1.113961 S    
C25   C41   1.379342 A    
C30   N22   1.314677 A    
N3    N8    1.417106 A    
C40   H28   1.078557 S    
C81   C85   1.401253 A    
C39   C48   1.392681 A    
C42   C100  1.460196 S    
C50   H30   1.112464 S    
C38   C45   1.392688 A    
C14   N38   1.424684 S    
C80   C82   1.386309 A    
C63   N33   1.486888 S    
N26   N29   1.383625 A    
C65   H45   1.080264 S    
N15   Ni4   1.865497 S    
C29   C43   1.375123 A    
C49   H29   1.112472 S    
N25   N30   1.383624 A    
C84   C88   1.401232 A    
C7    H7    1.080219 S    
C25   N17   1.334258 A    
N16   Ni3   1.865506 S    
N27   Ni8   1.826359 S    
C68   H48   1.080267 S    
C71   C75   1.400642 A    
N34   O3    1.302291 A    
C27   N19   1.334238 A    
C95   C98   1.401420 A    
C84   H60   1.080763 S    
C28   N20   1.334248 A    
C46   C74   1.464156 S    
N11   Ni8   1.851519 S    
C71   H51   1.080742 S    
C67   H47   1.080249 S    
C30   C43   1.373420 A    
C4    N4    1.337404 A    
C15   N39   1.424683 S    
N29   Ni2   1.910261 S    
C11   C22   1.386983 A    
C4    H4    1.076326 S    
C34   N26   1.334343 A    
C7    N7    1.336425 A    
C15   C24   1.404437 A    
C33   N25   1.334322 A    
C8    N8    1.335942 A    
C21   C97   1.460442 S    
N12   Ni7   1.851547 S    
C9    H9    1.078168 S    
C51   C60   1.557966 S    
C2    H2    1.076532 S    
C12   C22   1.387000 A    
C7    C20   1.378107 A    
C93   H65   1.080791 S    
C56   H36   1.113836 S    
C8    C19   1.378974 A    
C28   C42   1.379331 A    
C61   C63   1.596124 S    
C54   C61   1.549212 S    
C10   N10   1.334689 A    
C38   H26   1.078548 S    
C6    C17   1.378108 A    
C62   C64   1.596194 S    
C22   C98   1.460440 S    
N2    N5    1.417105 A    
C73   C77   1.403985 A    
N21   N22   1.393136 A    
C68   C70   1.384634 A    
C11   H11   1.078216 S    
C83   H59   1.080856 S    
C58   C64   1.549135 S    
N23   Ni7   1.881411 S    
C12   H12   1.078166 S    
C12   N12   1.334719 A    
C95   H67   1.080789 S    
C20   C87   1.464683 S    
N19   Ni3   1.840145 S    
C50   C59   1.557899 S    
C64   N35   1.490207 S    
C69   C73   1.400490 A    
N28   Ni7   1.826387 S    
C57   C63   1.549245 S    
N36   O7    1.301519 A    
C92   C96   1.383785 A    
C75   C79   1.403718 A    
C14   C23   1.404496 A    
C26   N18   1.334228 A    
C91   H63   1.080415 S    
C11   N11   1.334684 A    
N6    Ni6   1.880131 S    
C79   H55   1.080095 S    
N32   Ni3   1.910270 S    
C2    C18   1.378467 A    
C28   H16   1.080095 S    
C26   C41   1.379308 A    
C78   C84   1.385460 A    
C32   H20   1.079722 S    
C57   C59   1.546741 S    
N17   Ni1   1.840145 S    
N23   N24   1.393136 A    
N35   O5    1.302277 A    
N37   O9    1.302398 A    
C53   H33   1.113843 S    
N22   Ni6   1.881403 S    
C34   H22   1.076492 S    
N21   Ni5   1.881411 S    
N39   O13   1.302823 A    
C92   H64   1.080413 S    
C49   H69   1.095700 S    
C8    H8    1.080171 S    
N7    Ni7   1.880139 S    
C94   C97   1.401427 A    
N9    N10   1.348756 A    
C92   C100  1.402079 A    
C1    N1    1.337403 A    
C38   N30   1.335901 A    
C79   C81   1.385504 A    
C93   C97   1.401408 A    
C68   C88   1.404059 A    
C65   C71   1.384616 A    
C78   H54   1.080066 S    
C82   H58   1.080855 S    
N8    Ni8   1.880131 S    
N1    Ni1   1.840416 S    
C33   C45   1.388360 A    
C10   H10   1.078216 S    
C23   C59   1.494573 S    
C27   C42   1.379315 A    
C96   H68   1.080789 S    
C58   C60   1.546719 S    
C10   C21   1.386986 A    
N26   Ni5   1.826387 S    
C31   N23   1.314780 A    
C91   C100  1.402071 A    
N13   Ni2   1.865497 S    
N25   Ni6   1.826359 S    
C2    N2    1.336303 A    
N14   Ni1   1.865506 S    
C67   C69   1.384448 A    
N38   O12   1.302807 A    
C27   H15   1.080090 S    
C70   C74   1.400647 A    
C4    C20   1.377860 A    
C50   H70   1.100579 S    
C26   H14   1.080089 S    
C76   C80   1.403980 A    
C89   C93   1.383781 A    
C29   H17   1.079734 S    
H41   C57   1.110073 S    
C37   C46   1.392294 A    
C34   C46   1.388338 A    
C41   C99   1.460196 S    
C25   H13   1.080095 S    
N35   O6    1.302653 A    
N10   Ni5   1.851547 S    
C37   H25   1.078560 S    
N20   Ni4   1.840118 S    
N9    Ni6   1.851519 S    
C47   C75   1.464159 S    
C91   C95   1.383793 A    
C69   H49   1.080727 S    
H42   C57   1.111407 S    
C64   N36   1.486788 S    
C66   C86   1.404182 A    
N17   N18   1.346827 A    
C15   N15   1.323665 A    
C52   C56   1.529798 S    
N4    Ni4   1.840388 S    
H44   C58   1.110170 S    
C51   H31   1.112458 S    
C32   N24   1.321503 A    
N30   Ni1   1.910270 S    
C53   H37   1.107991 S    
C5    H5    1.080172 S    
N37   O10   1.301216 A    
C90   C94   1.383794 A    
C6    N6    1.336417 A    
C55   H35   1.113950 S    
C56   H40   1.107950 S    
C13   N37   1.427467 S    
N40   O15   1.300994 A    
C36   N28   1.334329 A    
N34   O4    1.302679 A    
C53   C61   1.552268 S    
C5    N5    1.335964 A    
C45   C73   1.464500 S    
C1    C17   1.377872 A    
C30   H18   1.079024 S    
C49   C53   1.529803 S    
N15   N16   1.393136 A    
C81   H57   1.080764 S    
N2    Ni2   1.840388 S    
C3    C19   1.378447 A    
C90   H62   1.080416 S    
C74   C78   1.403715 A    
C44   C62   1.455996 S    
N31   Ni4   1.910261 S    
C31   H19   1.079016 S    
C72   C76   1.400492 A    
C18   C85   1.464154 S    
C13   N13   1.332583 A    
C63   N34   1.490350 S    
C90   C99   1.402069 A    
C40   C47   1.392283 A    
C9    C21   1.386994 A    
N28   N31   1.383625 A    
C3    N3    1.336347 A    
C52   H32   1.112455 S    
C70   H50   1.080743 S    
C55   C62   1.549259 S    
C39   H27   1.078548 S    
N19   N20   1.346827 A    
C82   C86   1.401457 A    
C89   H61   1.080411 S    
C31   C44   1.373501 A    
C16   N16   1.332655 A    
C54   H38   1.110427 S    
N24   Ni8   1.881403 S    
C33   H21   1.076950 S    
C66   H46   1.080250 S    
C37   N29   1.335766 A    
C77   H53   1.080524 S    
C48   C76   1.464498 S    
N3    Ni3   1.840416 S    
C50   C54   1.520197 S    
C36   C48   1.388364 A    
C39   N31   1.335895 A    
C19   C88   1.464129 S    
N33   O2    1.302227 A    
C16   N40   1.427221 S    
C77   C83   1.386310 A    
C96   C98   1.401413 A    
C52   H72   1.095894 S    
N5    Ni5   1.880139 S    
C51   H71   1.100486 S    
C9    N9    1.334713 A    
N18   Ni2   1.840118 S    
C51   C55   1.520364 S    
