data_mof_unit_25657.cif
_audit_creation_date              2013-03-05T15:51:29-0500
_audit_creation_method            fapswitch 2.2
_symmetry_space_group_name_H-M    P1
_symmetry_Int_Tables_number       1
_space_group_crystal_system       triclinic
_cell_length_a                    12.083489
_cell_length_b                    12.825136
_cell_length_c                    17.231986
_cell_angle_alpha                 91.869827
_cell_angle_beta                  80.196282
_cell_angle_gamma                 92.409165
_cell_volume                      2628.27863344

loop_
_atom_site_label
_atom_site_type_symbol
_atom_site_description
_atom_site_fract_x
_atom_site_fract_y
_atom_site_fract_z
_atom_type_partial_charge
O1    O     O_R   0.421320 0.658850 0.503920 -0.573282
O2    O     O_R   0.578680 0.341150 0.496080 -0.575508
O3    O     O_R   0.609840 0.646370 0.494500 -0.615661
O4    O     O_R   0.390160 0.353630 0.505500 -0.624083
C1    C     C_R   0.521524 0.700102 0.499145 0.924940
C2    C     C_R   0.478496 0.299895 0.500806 0.932378
O5    O     O_R   0.394600 0.506990 0.621070 -0.518436
O6    O     O_R   0.605400 0.493010 0.378930 -0.515417
O7    O     O_R   0.583120 0.494520 0.611640 -0.663058
O8    O     O_R   0.416880 0.505480 0.388360 -0.660203
C3    C     C_R   0.483021 0.496993 0.652685 0.970736
C4    C     C_R   0.517064 0.504419 0.347277 0.961605
Zn1   Zn    Zn3+2 0.374120 0.508330 0.506290 1.050395
Zn2   Zn    Zn3+2 0.625880 0.491670 0.493710 1.064500
C5    C     C_R   0.471185 0.493048 0.737593 -0.196914
C6    C     C_R   0.528166 0.516764 0.262686 -0.203585
C7    C     C_R   0.561412 0.535089 0.770589 -0.236129
C8    C     C_R   0.432845 0.488304 0.229952 -0.242147
C9    C     C_R   0.559357 0.531282 0.850016 -0.166616
C10   C     C_R   0.430624 0.506362 0.152582 -0.160207
C11   C     C_R   0.462639 0.494555 0.899193 -0.011476
C12   C     C_R   0.527963 0.541350 0.103439 -0.038189
C13   C     C_R   0.366350 0.459471 0.868276 0.342166
C14   C     C_R   0.628787 0.562655 0.132898 0.284273
C15   C     C_R   0.374891 0.447968 0.785640 0.323982
C16   C     C_R   0.625404 0.562021 0.215340 0.341616
C17   C     C_2   0.467189 0.484551 0.982216 -0.089913
C18   C     C_2   0.521412 0.555983 0.021194 -0.083882
C19   C     C_R   0.465563 0.188909 0.498411 -0.011254
C20   C     C_R   0.534605 0.811079 0.501376 -0.013381
C21   C     C_R   0.615708 0.967257 0.552807 -0.142559
C22   C     C_R   0.384655 0.032744 0.446807 -0.143360
C23   C     C_R   0.613569 0.859781 0.542622 -0.172570
C24   C     C_R   0.386597 0.140203 0.457170 -0.175512
C25   C     C_R   0.461703 0.868292 0.466857 -0.146602
C26   C     C_R   0.538743 0.131710 0.532690 -0.142853
C27   C     C_R   0.461612 0.975110 0.477890 0.158652
C28   C     C_R   0.538836 0.024899 0.521647 0.158716
H1    H     H_    0.597439 0.170849 0.566179 0.166793
H2    H     H_    0.403122 0.829150 0.433279 0.169080
H3    H     H_    0.329703 0.185439 0.430722 0.157125
H4    H     H_    0.670310 0.814537 0.569206 0.157351
N1    N     N_R   0.206400 0.519440 0.514690 -0.168449
N2    N     N_R   0.793600 0.480560 0.485310 -0.150280
C29   C     C_R   0.968367 0.392924 0.435009 -0.321351
C30   C     C_R   0.031528 0.606822 0.565200 -0.293839
C31   C     C_R   0.851844 0.402125 0.438772 0.532684
C32   C     C_R   0.148117 0.597900 0.561202 0.578526
C33   C     C_R   0.853193 0.548424 0.526654 -0.057069
C34   C     C_R   0.146751 0.451362 0.473535 -0.105548
C35   C     C_R   0.970885 0.539000 0.523296 -0.000227
C36   C     C_R   0.029030 0.460705 0.476947 0.024862
H5    H     H_    0.636071 0.568197 0.734447 0.193264
H6    H     H_    0.357081 0.455733 0.265124 0.192264
S1    S     S_3+6 0.208541 0.702928 0.612337 0.066814
O9    O     O_2   0.307178 0.676110 0.648672 -0.257753
O10   O     O_2   0.242097 0.789681 0.555699 -0.339817
O11   O     O_3   0.110475 0.747822 0.685735 -0.532059
H7    H     H_    0.143212 0.814399 0.704029 0.402823
S2    S     S_3+6 0.791502 0.297536 0.387069 0.075933
O12   O     O_2   0.759277 0.209734 0.442902 -0.288066
O13   O     O_2   0.691712 0.323413 0.351652 -0.268187
O14   O     O_3   0.888931 0.253358 0.313008 -0.516327
H8    H     H_    0.904266 0.311606 0.275839 0.372358
H9    H     H_    0.012283 0.330481 0.400539 0.199066
H10   H     H_    0.987530 0.669210 0.599667 0.210446
S3    S     S_3+6 0.731566 0.631280 0.259143 0.086521
O15   O     O_2   0.678843 0.687485 0.333161 -0.324735
O16   O     O_2   0.813106 0.554948 0.278795 -0.274902
O17   O     O_3   0.801405 0.721618 0.199002 -0.449690
H11   H     H_    0.864738 0.747057 0.225116 0.394487
S4    S     S_3+6 0.276302 0.366312 0.743025 0.100314
O18   O     O_2   0.336258 0.307602 0.672436 -0.350350
O19   O     O_2   0.217944 0.287597 0.800233 -0.187872
O20   O     O_3   0.180088 0.441447 0.714980 -0.473923
H12   H     H_    0.141749 0.396085 0.679329 0.371606
H13   H     H_    0.563212 0.624538 0.992450 0.198768
H14   H     H_    0.426526 0.415816 0.011481 0.187851
S5    S     S_3+6 0.235791 0.440812 0.933324 0.103186
O21   O     O_2   0.138528 0.460268 0.892394 -0.150720
O22   O     O_2   0.226325 0.330904 0.962143 -0.261004
O23   O     O_3   0.229863 0.524356 0.011127 -0.557391
H15   H     H_    0.160461 0.503063 0.047359 0.401544
S6    S     S_3+6 0.757825 0.577143 0.065504 0.107933
O24   O     O_2   0.773787 0.688562 0.040231 -0.191549
O25   O     O_2   0.856267 0.548094 0.102098 -0.196799
O26   O     O_3   0.754743 0.499914 0.985063 -0.533026
H16   H     H_    0.741029 0.428312 0.005341 0.363605
H17   H     H_    0.352399 0.490950 0.130830 0.203864
H18   H     H_    0.634520 0.556750 0.872660 0.220765
H19   H     H_    0.675641 0.004927 0.585843 0.163909
H20   H     H_    0.324713 0.995073 0.413780 0.164347
H21   H     H_    0.190836 0.390555 0.437241 0.150525
H22   H     H_    0.809098 0.609193 0.562988 0.141156

loop_
_geom_bond_atom_site_label_1
_geom_bond_atom_site_label_2
_geom_bond_distance
_ccdc_geom_bond_type
N2    C33   1.365719 A    
C32   S1    1.784068 S    
O26   H16   0.990592 S    
S6    O26   1.681898 S    
S1    O9    1.494506 D    
C17   H14   1.086766 S    
O5    C3    1.291930 A    
C19   C26   1.389134 A    
C20   C25   1.389064 A    
S2    O14   1.683154 S    
O1    C1    1.291441 A    
C23   H4    1.083702 S    
C9    C11   1.395824 A    
S6    O25   1.503147 D    
C30   H10   1.082979 S    
C5    C15   1.421358 A    
S2    O13   1.494679 D    
O4    Zn1   2.000966 S    
C31   S2    1.784855 S    
C3    C5    1.448015 S    
C4    C6    1.454139 S    
C33   C35   1.423511 A    
C34   C36   1.423600 A    
C21   C23   1.383551 A    
O17   H11   0.990605 S    
C33   H22   1.082955 S    
N1    C32   1.402018 A    
N2    C31   1.401796 A    
C11   C17   1.451069 S    
C12   C18   1.451502 S    
O2    C2    1.291300 A    
C24   H3    1.083690 S    
S4    O20   1.682152 S    
C29   C31   1.408178 A    
C6    C16   1.424858 A    
C30   C32   1.408035 A    
S3    O15   1.501393 D    
S6    O24   1.502540 D    
O4    C2    1.284381 A    
S5    O22   1.503136 D    
O7    Zn2   2.009271 S    
C29   C36   1.378807 A    
O11   H7    0.990682 S    
C19   C24   1.399136 A    
C35   C36   1.398471 A    
S2    O12   1.500518 D    
S3    O16   1.503398 D    
C22   C24   1.383634 A    
O20   H12   0.990671 S    
C27   C28   1.416025 A    
O6    C4    1.294177 A    
N1    C34   1.365844 A    
C15   S4    1.788314 S    
C22   C27   1.396864 A    
C18   H13   1.085997 S    
O7    C3    1.294095 A    
O3    Zn2   2.000967 S    
O8    C4    1.294505 A    
S4    O19   1.502195 D    
C10   C12   1.393967 A    
C21   H19   1.083959 S    
S1    O10   1.501008 D    
C29   H9    1.083099 S    
C12   C14   1.410748 A    
S5    O21   1.503132 D    
O1    Zn1   1.989523 S    
C16   S3    1.787324 S    
C7    H5    1.084316 S    
Zn1   N1    2.017813 S    
Zn2   N2    2.017811 S    
C1    C20   1.425408 S    
C5    C7    1.394407 A    
O6    Zn2   2.035398 S    
C20   C23   1.399147 A    
C25   C27   1.376950 A    
C26   H1    1.085622 S    
C14   C16   1.414543 A    
S4    O18   1.502463 D    
O3    C1    1.284238 A    
O8    Zn1   2.009275 S    
S5    O23   1.682453 S    
C34   H21   1.082928 S    
C10   H17   1.083121 S    
C21   C28   1.396828 A    
S3    O17   1.681329 S    
C11   C13   1.411197 A    
C25   H2    1.085602 S    
C14   S6    1.785342 S    
C9    H18   1.082235 S    
C22   H20   1.083958 S    
C30   C35   1.378621 A    
C26   C28   1.376876 A    
C7    C9    1.367109 A    
C8    C10   1.365558 A    
C13   C15   1.413383 A    
O2    Zn2   1.989523 S    
C8    H6    1.084159 S    
O14   H8    0.990861 S    
O5    Zn1   2.035394 S    
C2    C19   1.425449 S    
C6    C8    1.396619 A    
O23   H15   0.990575 S    
S1    O11   1.683695 S    
C17   C18   1.333773 D    
C13   S5    1.784959 S    
