data_mof_unit_59785.cif
_audit_creation_date              2012-12-11T15:42:46-0500
_audit_creation_method            fapswitch 2.2
_symmetry_space_group_name_H-M    P1
_symmetry_Int_Tables_number       1
_space_group_crystal_system       triclinic
_cell_length_a                    6.95716
_cell_length_b                    14.586986
_cell_length_c                    16.204007
_cell_angle_alpha                 90.456807
_cell_angle_beta                  89.573557
_cell_angle_gamma                 90.11183
_cell_volume                      1644.34661819

loop_
_atom_site_label
_atom_site_type_symbol
_atom_type_description
_atom_site_fract_x
_atom_site_fract_y
_atom_site_fract_z
_atom_type_partial_charge
O1    O     O_R   0.505810 0.583360 0.413880 -0.540595
O2    O     O_R   0.175870 0.595480 0.585520 -0.544469
O3    O     O_R   0.005540 0.416640 0.586120 -0.523049
C1    C     C_R   0.343248 0.617224 0.614992 0.785732
O4    O     O_R   0.176100 0.594390 0.414490 -0.542040
O5    O     O_R   0.005770 0.415540 0.413870 -0.518994
C2    C     C_R   0.345677 0.615515 0.385183 0.806286
O6    O     O_R   0.505580 0.584460 0.586130 -0.516356
O7    O     O_3   0.339190 0.441320 0.500000 -0.350015
V1    V     V_3+5 0.064350 0.510890 0.500000 1.677609
O8    O     O_R   0.676050 0.404520 0.414480 -0.524264
C3    C     C_R   0.845298 0.382256 0.386052 0.809156
O9    O     O_R   0.675830 0.405610 0.585510 -0.522139
C4    C     C_R   0.844143 0.382530 0.612444 0.761477
V2    V     V_3+5 0.564340 0.489110 0.500000 1.724386
O10   O     O_3   0.839370 0.558680 0.500000 -0.375912
C5    C     C_2   0.736545 0.210840 0.787228 -0.148623
C6    C     C_2   0.885875 0.198642 0.839195 -0.226830
H1    H     H_    0.618418 0.162025 0.787129 0.177880
C7    C     C_2   0.720893 0.288968 0.729543 0.346513
C8    C     C_2   0.856000 0.305312 0.670533 0.165381
C9    C     C_R   0.993134 0.263707 0.184716 -0.073510
C10   C     C_R   0.979246 0.328964 0.249316 0.313768
C11   C     C_R   0.856363 0.313738 0.317607 -0.229090
C12   C     C_R   0.742384 0.233712 0.319589 0.328027
C13   C     C_R   0.749954 0.169588 0.253834 -0.076032
C14   C     C_R   0.878207 0.183232 0.186356 -0.258408
C15   C     C_R   0.191088 0.688518 0.744983 -0.056657
C16   C     C_R   0.198445 0.755677 0.809176 -0.070925
C17   C     C_R   0.372874 0.802655 0.825575 -0.213746
C18   C     C_R   0.535411 0.766741 0.786774 0.404686
C19   C     C_R   0.512598 0.735718 0.705233 -0.071079
C20   C     C_R   0.347064 0.682416 0.687196 -0.191330
C21   C     C_R   0.245404 0.765684 0.320850 -0.092516
C22   C     C_R   0.255138 0.830256 0.255981 0.351038
C23   C     C_R   0.378235 0.815374 0.187580 -0.168853
C24   C     C_R   0.493753 0.737055 0.185723 -0.176184
H2    H     H_    0.587935 0.725746 0.132994 0.171070
C25   C     C_R   0.483443 0.670813 0.248271 -0.002668
C26   C     C_R   0.357803 0.684366 0.317053 -0.195718
O11   O     O_R   0.230120 0.912300 0.917180 -0.545019
O12   O     O_R   0.559740 0.902430 0.088770 -0.547511
O13   O     O_R   0.729930 0.081310 0.089370 -0.552515
C27   C     C_R   0.390298 0.881676 0.118197 0.761632
O14   O     O_R   0.559840 0.901330 0.917750 -0.515404
O15   O     O_R   0.730030 0.080210 0.917120 -0.544827
C28   C     C_R   0.389789 0.875963 0.891175 0.725996
O16   O     O_R   0.230020 0.913400 0.089430 -0.516555
O17   O     O_3   0.396460 0.055470 0.003290 -0.374556
V3    V     V_3+5 0.671360 0.985960 0.003250 1.575122
O18   O     O_R   0.059740 0.091300 0.917690 -0.518034
C29   C     C_R   0.891509 0.116911 0.893012 0.734944
O19   O     O_R   0.059640 0.092400 0.088720 -0.524408
C30   C     C_R   0.890257 0.114261 0.117661 0.799118
V4    V     V_3+5 0.171350 0.007820 0.003190 1.624610
O20   O     O_3   0.896380 0.938200 0.003220 -0.368854
C31   C     C_2   0.031643 0.771052 0.863325 0.898106
O21   O     O_2   0.915497 0.830300 0.845680 -0.531356
O22   O     O_R   0.017702 0.724206 0.938066 -0.612128
H3    H     H_    0.904056 0.745007 0.972915 0.325350
Cl1   Cl    Cl    0.631295 0.680576 0.849507 -0.581805
C32   C     C_2   0.647612 0.770625 0.641375 0.849271
O23   O     O_2   0.612585 0.761463 0.567937 -0.530437
O24   O     O_R   0.811245 0.819294 0.665819 -0.641951
H4    H     H_    0.887532 0.844053 0.617408 0.307928
C33   C     C_2   0.127173 0.786531 0.395263 0.887665
O25   O     O_2   0.958058 0.807663 0.388360 -0.500733
O26   O     O_R   0.210178 0.781355 0.473383 -0.653168
H5    H     H_    0.115459 0.795339 0.519468 0.293792
Cl2   Cl    Cl    0.130166 0.935394 0.265224 -0.523393
C34   C     C_2   0.599688 0.586323 0.236759 0.835525
O27   O     O_2   0.758967 0.590912 0.204551 -0.518204
O28   O     O_R   0.524597 0.501072 0.258967 -0.624231
H6    H     H_    0.612923 0.448556 0.243199 0.313791
C35   C     C_2   0.039297 0.269726 0.850471 0.958175
O29   O     O_2   0.002417 0.350944 0.841880 -0.521227
O30   O     O_R   0.224131 0.244017 0.874429 -0.628295
H7    H     H_    0.310540 0.298550 0.886008 0.343502
Cl3   Cl    Cl    0.518400 0.360338 0.743459 -0.574178
Cl4   Cl    Cl    0.051791 0.229514 0.654945 -0.548757
C36   C     C_2   0.121551 0.283115 0.113511 0.894801
O31   O     O_2   0.056891 0.282877 0.043600 -0.570995
O32   O     O_R   0.316058 0.302133 0.126633 -0.619098
H8    H     H_    0.388920 0.313951 0.073338 0.311576
Cl5   Cl    Cl    0.101257 0.435171 0.239838 -0.548412
Cl6   Cl    Cl    0.600570 0.209212 0.408279 -0.509424
C37   C     C_2   0.627480 0.086518 0.258305 0.921692
O33   O     O_2   0.453403 0.094192 0.266502 -0.497523
O34   O     O_R   0.711474 0.999773 0.254161 -0.615182
H9    H     H_    0.614790 0.948677 0.262541 0.313658
C38   C     C_2   0.031224 0.621316 0.745157 0.842433
O35   O     O_2   0.907160 0.623708 0.692353 -0.551954
O36   O     O_R   0.019438 0.557150 0.808467 -0.585519
H10   H     H_    0.900881 0.517004 0.803731 0.363963

loop_
_geom_bond_atom_site_label_1
_geom_bond_atom_site_label_2
_ccdc_geom_bond_type
O16   V4    S    
C33   O26   S    
V4    O20   S    
C6    C35   S    
O28   H6    S    
C18   Cl1   S    
C22   C23   A    
C1    O6    A    
C21   C33   S    
C36   O31   D    
C14   C30   S    
C6    C29   S    
O19   C30   A    
C13   C14   A    
O36   H10   S    
C21   C26   A    
C4    C8    S    
C15   C16   A    
C24   H2    S    
O5    C3    A    
C17   C18   A    
C31   O22   S    
V2    O10   S    
O15   C29   A    
C5    C7    S    
C21   C22   A    
O11   V4    S    
C32   O24   S    
O8    V2    S    
C18   C19   A    
C22   Cl2   S    
O26   H5    S    
C10   C11   A    
O1    V2    S    
O7    V1    S    
O30   H7    S    
O19   V4    S    
C33   O25   D    
O22   H3    S    
O9    C4    A    
O12   C27   A    
C36   O32   S    
O14   C28   A    
O18   C29   A    
C9    C36   S    
C17   C28   S    
C11   C12   A    
C25   C26   A    
O4    C2    A    
C13   C37   S    
C12   C13   A    
O17   V4    S    
V3    O20   S    
O2    C1    A    
C35   O29   D    
C16   C17   A    
C38   O36   S    
O13   C30   A    
O32   H8    S    
C2    C26   S    
C32   O23   D    
C5    C6    D    
O11   C28   A    
C35   O30   S    
O3    C4    A    
O12   V3    S    
C16   C31   S    
C15   C20   A    
O6    V2    S    
C9    C14   A    
O9    V2    S    
C23   C27   S    
O2    V1    S    
C38   O35   D    
C34   O28   S    
O15   V3    S    
C1    C20   S    
C23   C24   A    
C7    Cl3   S    
O1    C2    A    
O5    V1    S    
O8    C3    A    
O13   V3    S    
C3    C11   S    
O24   H4    S    
C37   O34   S    
O7    V2    S    
C19   C32   S    
O4    V1    S    
C24   C25   A    
O3    V1    S    
V1    O10   S    
C19   C20   A    
C31   O21   D    
O14   V3    S    
C8    Cl4   S    
C12   Cl6   S    
C5    H1    S    
C15   C38   S    
O18   V4    S    
C34   O27   D    
C7    C8    D    
C37   O33   D    
O17   V3    S    
C10   Cl5   S    
C25   C34   S    
C9    C10   A    
O34   H9    S    
C27   O16   A    
