data_mof_unit_58513.cif
_audit_creation_date              2012-10-26T20:44:04-0400
_audit_creation_method            fapswitch 2.2
_symmetry_space_group_name_H-M    P1
_symmetry_Int_Tables_number       1
_space_group_crystal_system       triclinic
_cell_length_a                    10.829241
_cell_length_b                    9.628438
_cell_length_c                    19.415937
_cell_angle_alpha                 89.921824
_cell_angle_beta                  93.001333
_cell_angle_gamma                 89.997283
_cell_volume                      2021.69520261

loop_
_atom_site_label
_atom_site_type_symbol
_atom_type_description
_atom_site_fract_x
_atom_site_fract_y
_atom_site_fract_z
_atom_type_partial_charge
C1    C     C_R   0.871619 0.499649 0.499872 0.011546
C2    C     C_R   0.737612 0.499934 0.500018 0.546013
C3    C     C_R   0.499848 0.500153 0.367768 0.545165
C4    C     C_R   0.500105 0.499971 0.632246 0.548528
C5    C     C_R   0.063939 0.373408 0.500176 -0.123488
C6    C     C_R   0.936102 0.625679 0.499372 -0.110440
C7    C     C_R   0.936116 0.373406 0.500297 -0.122544
C8    C     C_R   0.063831 0.625686 0.500053 -0.111752
C9    C     C_R   0.490008 0.375314 0.744220 -0.144300
C10   C     C_R   0.485123 0.625880 0.255604 -0.154694
C11   C     C_R   0.516599 0.377094 0.255953 -0.072854
C12   C     C_R   0.128377 0.499656 0.500092 0.011098
C13   C     C_R   0.509917 0.625415 0.744386 -0.156449
C14   C     C_R   0.491207 0.373087 0.816236 -0.009314
C15   C     C_R   0.486362 0.629337 0.183674 0.005284
C16   C     C_R   0.517260 0.376216 0.183855 -0.009905
C17   C     C_R   0.509638 0.628100 0.816355 -0.010275
C18   C     C_R   0.500686 0.500707 0.852874 0.027914
C19   C     C_R   0.502174 0.503182 0.147375 -0.012986
C20   C     C_R   0.425332 0.074281 0.453559 0.129223
C21   C     C_R   0.582455 0.925858 0.542232 0.129794
C22   C     C_R   0.574721 0.073998 0.546431 0.129458
C23   C     C_R   0.613618 0.502125 0.967337 -0.024283
C24   C     C_R   0.417597 0.926122 0.457726 0.129831
C25   C     C_R   0.500050 0.500174 0.708044 -0.003245
C26   C     C_R   0.500308 0.500914 0.292013 -0.022827
C27   C     C_2   0.356242 0.146806 0.396135 0.311244
C28   C     C_2   0.684984 0.853820 0.581553 0.294984
C29   C     C_2   0.644024 0.146154 0.603828 0.303773
C30   C     C_2   0.315232 0.854332 0.418237 0.293288
C31   C     C_2   0.482860 0.234180 0.849758 0.245414
C32   C     C_2   0.471239 0.767704 0.149814 0.268977
C33   C     C_2   0.532842 0.241844 0.147378 0.251394
C34   C     C_R   0.389238 0.500805 0.032870 -0.056697
C35   C     C_2   0.518441 0.767228 0.849927 0.242262
C36   C     C_R   0.613958 0.503018 0.039068 -0.065619
C37   C     C_R   0.388867 0.500257 0.961133 -0.023059
C38   C     C_R   0.501773 0.502692 0.071843 0.042386
C39   C     C_R   0.501064 0.500981 0.928354 0.123306
C40   C     C_R   0.262387 0.499938 0.499970 0.544968
Cu1   Cu    Cu3+1 0.500000 0.640660 0.500000 0.938210
Cu2   Cu    Cu3+1 0.500000 0.359340 0.500000 0.938033
H1    H     H_    0.111960 0.274703 0.500264 0.150159
H2    H     H_    0.302358 0.500129 0.058090 0.121125
H3    H     H_    0.701119 0.504056 0.069091 0.123042
H4    H     H_    0.301704 0.499225 0.931110 0.116124
H5    H     H_    0.304449 0.240155 0.404222 0.147390
H6    H     H_    0.671669 0.757293 0.607951 0.149861
H7    H     H_    0.694401 0.240567 0.595930 0.152071
H8    H     H_    0.328470 0.757497 0.392249 0.151164
H9    H     H_    0.469427 0.142251 0.817901 0.123813
H10   H     H_    0.448744 0.857428 0.180563 0.161980
H11   H     H_    0.530074 0.237379 0.091520 0.152787
H12   H     H_    0.888239 0.724324 0.498387 0.186504
H13   H     H_    0.531865 0.858903 0.818543 0.118737
H14   H     H_    0.888143 0.274702 0.500633 0.151736
H15   H     H_    0.111642 0.724341 0.500595 0.185095
H16   H     H_    0.481250 0.278381 0.716138 0.159327
H17   H     H_    0.472626 0.721973 0.283439 0.132738
H18   H     H_    0.529239 0.280654 0.284198 0.209097
H19   H     H_    0.517441 0.722367 0.716449 0.125319
H20   H     H_    0.700504 0.502551 0.942122 0.118962
N1    N     N_R   0.500000 0.852070 0.500000 -0.309432
N2    N     N_R   0.500000 0.147930 0.500000 -0.311191
O1    O     O_R   0.319640 0.618740 0.500000 -0.515324
O2    O     O_2   0.788940 0.903407 0.584572 -0.525286
O3    O     O_2   0.645057 0.099023 0.662296 -0.537678
O4    O     O_2   0.211449 0.904390 0.414661 -0.525632
O5    O     O_2   0.491967 0.218992 0.912222 -0.486837
O6    O     O_2   0.485043 0.784921 0.088415 -0.428121
O7    O     O_2   0.548948 0.133553 0.179429 -0.479890
O8    O     O_2   0.509768 0.782885 0.911839 -0.438486
O9    O     O_R   0.680360 0.381260 0.500000 -0.531050
O10   O     O_R   0.680360 0.618740 0.500000 -0.513256
O11   O     O_R   0.319640 0.381260 0.500000 -0.532568
O12   O     O_R   0.500020 0.618830 0.400190 -0.524174
O13   O     O_R   0.499980 0.381170 0.599810 -0.510957
O14   O     O_R   0.499980 0.618830 0.599810 -0.529382
O15   O     O_R   0.500020 0.381170 0.400190 -0.510991
O16   O     O_2   0.357016 0.101198 0.337486 -0.504140

loop_
_geom_bond_atom_site_label_1
_geom_bond_atom_site_label_2
_ccdc_geom_bond_type
C12   C40   S    
C22   C29   S    
C34   C37   A    
Cu1   Cu2   S    
C14   C18   A    
C14   C31   S    
C9    C14   A    
C3    O15   A    
C4    C25   S    
C9    C25   A    
C15   C32   S    
C29   H7    S    
C15   C19   A    
Cu2   O11   S    
C6    C8    A    
C9    H16   S    
C10   C15   A    
C16   C33   S    
C1    C2    S    
C32   H10   S    
Cu1   O10   S    
C29   O3    D    
C23   H20   S    
C20   C24   A    
C2    O10   A    
C10   C26   A    
C30   H8    S    
Cu2   O15   S    
C34   C38   A    
C21   C22   A    
C13   C25   A    
C7    H14   S    
C6    H12   S    
C33   H11   S    
C35   H13   S    
C1    C6    A    
C34   H2    S    
C5    C12   A    
C27   O16   D    
Cu1   O14   S    
C5    C7    A    
Cu1   O1    S    
C11   C26   A    
C20   N2    A    
C28   O2    D    
C18   C39   S    
C4    O14   A    
C19   C38   S    
C8    H15   S    
C11   C16   A    
C8    C12   A    
C17   C18   A    
C36   H3    S    
C3    O12   A    
C2    O9    A    
C21   C28   S    
C35   O8    D    
C24   N1    A    
C40   O1    A    
Cu1   N1    S    
C11   H18   S    
Cu2   N2    S    
C27   H5    S    
C28   H6    S    
Cu2   O9    S    
C1    C7    A    
C3    C26   S    
C31   H9    S    
C32   O6    D    
C20   C27   S    
C40   O11   A    
C13   C17   A    
C36   C38   A    
C10   H17   S    
C4    O13   A    
C37   C39   A    
Cu1   O12   S    
C16   C19   A    
C23   C39   A    
C5    H1    S    
C24   C30   S    
C21   N1    A    
C33   O7    D    
C22   N2    A    
C31   O5    D    
C13   H19   S    
Cu2   O13   S    
C23   C36   A    
C17   C35   S    
C37   H4    S    
C30   O4    D    
