data_mof_unit_53671.cif
_audit_creation_date              2012-12-11T15:44:53-0500
_audit_creation_method            fapswitch 2.2
_symmetry_space_group_name_H-M    P1
_symmetry_Int_Tables_number       1
_space_group_crystal_system       triclinic
_cell_length_a                    19.033344
_cell_length_b                    10.943034
_cell_length_c                    18.746561
_cell_angle_alpha                 89.636618
_cell_angle_beta                  90.11447
_cell_angle_gamma                 90.187408
_cell_volume                      3904.47411739

loop_
_atom_site_label
_atom_site_type_symbol
_atom_type_description
_atom_site_fract_x
_atom_site_fract_y
_atom_site_fract_z
_atom_type_partial_charge
C1    C     C_R   0.761583 0.532673 0.645848 0.536459
C2    C     C_R   0.279106 0.004339 0.519942 -0.135523
C3    C     C_R   0.530466 0.940573 0.956004 0.023555
C4    C     C_R   0.008088 0.229615 0.959111 -0.170661
C5    C     C_R   0.009333 0.231383 0.033674 -0.170142
C6    C     C_R   0.495442 0.728626 0.962229 -0.164670
C7    C     C_R   0.498724 0.732303 0.036566 -0.169341
C8    C     C_3   0.996218 0.571082 0.035993 -0.276786
C9    C     C_3   0.993087 0.572783 0.955555 -0.267946
C10   C     C_3   0.509550 0.071993 0.033257 -0.269068
C11   C     C_3   0.507389 0.071511 0.952779 -0.266966
C12   C     C_R   0.760861 0.530471 0.853073 0.544153
C13   C     C_R   0.326423 0.597583 0.446010 -0.161570
C14   C     C_R   0.239839 0.533365 0.148010 0.547796
C15   C     C_R   0.262140 0.026265 0.854760 0.544013
C16   C     C_R   0.738978 0.030115 0.146739 0.542511
C17   C     C_R   0.772180 0.125223 0.852854 0.554938
C18   C     C_R   0.228432 0.123312 0.147920 0.551902
C19   C     C_R   0.273436 0.628371 0.854250 0.550879
C20   C     C_R   0.727637 0.625725 0.147013 0.545182
C21   C     C_R   0.971562 0.346889 0.852699 0.546417
C22   C     C_R   0.031889 0.347261 0.144926 0.543014
C23   C     C_R   0.470923 0.846420 0.853052 0.549215
C24   C     C_R   0.786746 0.480163 0.523186 -0.120592
C25   C     C_R   0.531251 0.847247 0.145406 0.542606
C26   C     C_R   0.757562 0.106894 0.416801 -0.000559
C27   C     C_R   0.253131 0.077663 0.575083 0.034675
C28   C     C_R   0.258664 0.609068 0.416032 0.000446
C29   C     C_R   0.757655 0.563035 0.572082 0.036778
C30   C     C_R   0.706453 0.166985 0.456860 0.010541
C31   C     C_R   0.206899 0.171829 0.559434 0.003028
C32   C     C_R   0.208582 0.673193 0.455325 0.011101
C33   C     C_R   0.713060 0.654233 0.548417 -0.006918
C34   C     C_R   0.718061 0.191959 0.528212 0.024720
C35   C     C_3   0.630509 0.139754 0.468943 -0.256434
C36   C     C_R   0.193013 0.202150 0.489196 0.006822
C37   C     C_R   0.219868 0.697145 0.526953 0.021677
C38   C     C_R   0.705102 0.673053 0.476281 0.047221
C39   C     C_2   0.932464 0.789097 0.546638 0.223117
C40   C     C_2   0.912672 0.745748 0.386543 0.205177
C41   C     C_2   0.430935 0.289156 0.544079 0.225965
C42   C     C_2   0.412663 0.243486 0.384377 0.211935
C43   C     C_3   0.210719 0.302457 0.581372 -0.277110
C44   C     C_3   0.131842 0.652388 0.466145 -0.259250
C45   C     C_3   0.715694 0.788068 0.563256 -0.291672
C46   C     C_3   0.643563 0.164940 0.547477 -0.260171
C47   C     C_3   0.195196 0.335337 0.504332 -0.281594
C48   C     C_3   0.144620 0.674475 0.545112 -0.259411
C49   C     C_R   0.239988 0.536050 0.353195 0.530621
C50   C     C_3   0.707023 0.808373 0.483690 -0.256927
C51   C     C_R   0.780988 0.158330 0.561865 -0.000313
C52   C     C_R   0.223999 0.137680 0.433768 0.034239
C53   C     C_R   0.281875 0.660581 0.561427 -0.000497
C54   C     C_R   0.739093 0.598908 0.426897 0.032763
C55   C     C_R   0.991338 0.328203 0.421714 -0.033680
C56   C     C_R   0.996151 0.349179 0.571189 -0.039827
C57   C     C_R   0.491179 0.827346 0.421592 -0.033254
C58   C     C_R   0.495814 0.849270 0.570998 -0.038201
C59   C     C_R   0.016220 0.106019 0.435476 -0.073098
C60   C     C_R   0.261033 0.034364 0.646604 0.537438
C61   C     C_R   0.039751 0.138603 0.580526 -0.082047
C62   C     C_R   0.517627 0.605678 0.435811 -0.067069
C63   C     C_R   0.541519 0.639884 0.580685 -0.086562
C64   C     C_R   0.040530 0.009314 0.477333 -0.091676
C65   C     C_R   0.053717 0.026412 0.549408 -0.091193
C66   C     C_R   0.542551 0.509597 0.477840 -0.089826
C67   C     C_R   0.555952 0.527528 0.549820 -0.089255
C68   C     C_R   0.013796 0.237279 0.539329 -0.012620
C69   C     C_R   0.006876 0.223873 0.464690 -0.010091
C70   C     C_R   0.514621 0.737683 0.539349 -0.014727
C71   C     C_R   0.739779 0.035544 0.353350 0.533378
C72   C     C_R   0.507629 0.723613 0.464769 -0.007774
C73   C     C_R   0.980749 0.453472 0.526737 -0.028047
C74   C     C_R   0.967915 0.435813 0.454068 -0.010237
C75   C     C_R   0.479265 0.952824 0.526320 -0.026016
C76   C     C_R   0.466554 0.934288 0.453681 -0.011288
C77   C     C_R   0.791297 0.171586 0.638754 0.554500
C78   C     C_R   0.208666 0.170356 0.361237 0.561324
C79   C     C_R   0.291490 0.672107 0.638744 0.557693
C80   C     C_R   0.727049 0.623735 0.353216 0.532041
C81   C     C_R   0.977104 0.575498 0.552041 -0.075379
C82   C     C_R   0.836993 0.121792 0.518500 -0.172166
C83   C     C_R   0.938652 0.531007 0.412676 -0.124949
C84   C     C_R   0.474840 0.075080 0.551220 -0.076502
C85   C     C_R   0.436688 0.028430 0.411933 -0.128049
C86   C     C_R   0.948342 0.671184 0.511150 0.030243
C87   C     C_R   0.931173 0.649084 0.439128 -0.013610
C88   C     C_R   0.446483 0.170228 0.509607 0.028540
C89   C     C_R   0.429628 0.147075 0.437652 -0.013359
C90   C     C_R   0.745916 0.059981 0.071743 0.020505
C91   C     C_R   0.257666 0.049730 0.931063 0.019434
C92   C     C_R   0.253240 0.589095 0.078683 0.015442
C93   C     C_R   0.263997 0.033645 0.449208 -0.135422
C94   C     C_R   0.753092 0.562149 0.927704 0.021099
C95   C     C_R   0.790428 0.986282 0.031722 0.045271
C96   C     C_R   0.211686 0.977708 0.971289 0.046431
C97   C     C_R   0.316338 0.564361 0.043299 0.019854
C98   C     C_R   0.707064 0.490405 0.968090 0.041492
C99   C     C_R   0.792719 0.994545 0.958556 0.020155
C100  C     C_R   0.208597 0.986668 0.044391 0.027871
C101  C     C_R   0.319735 0.571287 0.970165 0.039635
C102  C     C_R   0.704604 0.498548 0.041137 0.019767
C103  C     C_R   0.699437 0.143233 0.961438 -0.153489
C104  C     C_R   0.337644 0.621426 0.518476 -0.172050
C105  C     C_R   0.307782 0.122881 0.042602 -0.169577
C106  C     C_R   0.201375 0.646680 0.964644 -0.151665
C107  C     C_R   0.800801 0.642266 0.038170 -0.162631
C108  C     C_R   0.697556 0.134463 0.035909 -0.155460
C109  C     C_R   0.309645 0.115781 0.967829 -0.166758
C110  C     C_R   0.197507 0.640053 0.039176 -0.150008
C111  C     C_R   0.802626 0.634380 0.963621 -0.164587
C112  C     C_3   0.868121 0.974275 0.038855 -0.273092
C113  C     C_3   0.134314 0.961733 0.963535 -0.270136
C114  C     C_3   0.360611 0.451320 0.044149 -0.270409
C115  C     C_R   0.775965 0.496393 0.450191 -0.169664
C116  C     C_3   0.629257 0.478763 0.960878 -0.273402
C117  C     C_3   0.870994 0.980149 0.958627 -0.268935
C118  C     C_3   0.130594 0.968330 0.043943 -0.269805
C119  C     C_3   0.362755 0.458330 0.963912 -0.273747
C120  C     C_3   0.626188 0.484630 0.041231 -0.268355
C121  C     C_R   0.750757 0.079695 0.922499 0.014107
C122  C     C_R   0.251512 0.070406 0.080499 0.014883
C123  C     C_R   0.261565 0.604938 0.929419 0.017944
C124  C     C_R   0.748090 0.581217 0.077162 0.014980
C125  C     C_R   0.970552 0.348367 0.645831 0.515023
C126  C     C_R   0.825658 0.098283 0.446101 -0.160821
C127  C     C_R   0.026847 0.343704 0.352017 0.522979
C128  C     C_R   0.470450 0.848385 0.645748 0.517249
C129  C     C_R   0.526867 0.843573 0.352021 0.526963
C130  C     C_R   0.015768 0.342795 0.069641 0.021893
C131  C     C_R   0.007775 0.340016 0.920653 0.016543
C132  C     C_R   0.514070 0.842715 0.070565 0.023393
C133  C     C_R   0.504948 0.836244 0.921802 0.014603
C134  C     C_R   0.029079 0.448209 0.029706 0.045681
C135  C     C_R   0.025438 0.447761 0.956679 0.023658
C136  C     C_R   0.534161 0.943098 0.029021 0.051033
Cr1   Cr    Cr6+3 0.885860 0.491680 0.749630 1.032998
Cr2   Cr    Cr6+3 0.112430 0.179310 0.249850 1.004395
Cr3   Cr    Cr6+3 0.387570 0.679310 0.750150 1.028291
Cr4   Cr    Cr6+3 0.612430 0.679310 0.249850 1.010068
Cr5   Cr    Cr6+3 0.114140 0.491680 0.250370 1.005928
Cr6   Cr    Cr6+3 0.385860 0.991680 0.749630 1.031783
Cr7   Cr    Cr6+3 0.614140 0.991680 0.250370 1.011050
Cr8   Cr    Cr6+3 0.730490 0.332970 0.748720 1.013659
Cr9   Cr    Cr6+3 0.269510 0.332970 0.251280 1.010263
Cr10  Cr    Cr6+3 0.230490 0.832970 0.748720 1.015353
Cr11  Cr    Cr6+3 0.769510 0.832970 0.251280 1.013892
Cr12  Cr    Cr6+3 0.887570 0.179310 0.750150 1.025739
H1    H     H_    0.888053 0.103365 0.541439 0.164198
H2    H     H_    0.349293 0.166058 0.938796 0.115023
H3    H     H_    0.149007 0.664112 0.065086 0.124643
H4    H     H_    0.840912 0.687237 0.934058 0.117157
H5    H     H_    0.885252 0.885377 0.061146 0.133712
H6    H     H_    0.118967 0.871479 0.942149 0.135007
H7    H     H_    0.331045 0.370884 0.063268 0.169025
H8    H     H_    0.612011 0.389502 0.939360 0.130510
H9    H     H_    0.891990 0.054994 0.065210 0.134095
H10   H     H_    0.109683 0.040743 0.935940 0.138470
H11   H     H_    0.412615 0.466009 0.069791 0.126806
H12   H     H_    0.284695 0.977503 0.406801 0.128993
H13   H     H_    0.605537 0.559407 0.933889 0.141500
H14   H     H_    0.898166 0.062961 0.939312 0.166710
H15   H     H_    0.101889 0.049226 0.062478 0.168103
H16   H     H_    0.416162 0.474612 0.942498 0.134439
H17   H     H_    0.598830 0.567079 0.060282 0.172065
H18   H     H_    0.888125 0.893384 0.933740 0.129971
H19   H     H_    0.114664 0.880711 0.069514 0.125217
H20   H     H_    0.333426 0.383231 0.937438 0.138038
H21   H     H_    0.608834 0.397524 0.066489 0.122326
H22   H     H_    0.001032 0.143822 0.932023 0.116538
H23   H     H_    0.388253 0.600673 0.541826 0.165286
H24   H     H_    0.002968 0.147115 0.063192 0.113455
H25   H     H_    0.478998 0.645042 0.937023 0.132712
H26   H     H_    0.487405 0.650605 0.067314 0.118317
H27   H     H_    0.032063 0.641108 0.058282 0.130640
H28   H     H_    0.938498 0.573182 0.935552 0.170884
H29   H     H_    0.549266 0.135067 0.055497 0.137267
H30   H     H_    0.453695 0.084034 0.931910 0.166256
H31   H     H_    0.943716 0.566682 0.061691 0.136631
H32   H     H_    0.028184 0.642576 0.931016 0.124010
H33   H     H_    0.456928 0.078830 0.058248 0.135016
H34   H     H_    0.798240 0.432679 0.412555 0.111470
H35   H     H_    0.547459 0.131951 0.927859 0.127971
H36   H     H_    0.868396 0.061539 0.415249 0.190950
H37   H     H_    0.311051 0.924927 0.531734 0.120515
H38   H     H_    0.368746 0.557880 0.415820 0.191556
H39   H     H_    0.817960 0.403720 0.541676 0.119606
H40   H     H_    0.114396 0.558441 0.453502 0.158330
H41   H     H_    0.767600 0.818647 0.584027 0.160506
H42   H     H_    0.615966 0.043588 0.457970 0.155668
H43   H     H_    0.264223 0.330394 0.599019 0.165950
H44   H     H_    0.595954 0.208585 0.442996 0.149079
H45   H     H_    0.665480 0.208034 0.935134 0.127497
H46   H     H_    0.167504 0.327329 0.618305 0.135916
H47   H     H_    0.099874 0.724883 0.440298 0.146268
H48   H     H_    0.669626 0.819083 0.594599 0.137317
H49   H     H_    0.615566 0.247014 0.566931 0.154506
H50   H     H_    0.142816 0.377199 0.497034 0.134139
H51   H     H_    0.118188 0.757519 0.565157 0.154202
H52   H     H_    0.655940 0.849728 0.468799 0.135337
H53   H     H_    0.638238 0.082127 0.581788 0.141284
H54   H     H_    0.239686 0.381943 0.477358 0.155587
H55   H     H_    0.137273 0.591067 0.578527 0.141398
H56   H     H_    0.346594 0.177176 0.069993 0.113151
H57   H     H_    0.754245 0.849716 0.458523 0.169421
H58   H     H_    0.049212 0.920889 0.453687 0.145892
H59   H     H_    0.074239 0.952583 0.581687 0.152483
H60   H     H_    0.551642 0.420996 0.454417 0.145054
H61   H     H_    0.576978 0.454034 0.582130 0.152917
H62   H     H_    0.002841 0.085904 0.380768 0.163314
H63   H     H_    0.052079 0.148762 0.636545 0.132755
H64   H     H_    0.504200 0.584962 0.381192 0.163268
H65   H     H_    0.553702 0.650701 0.636695 0.131982
H66   H     H_    0.923921 0.513802 0.357701 0.107976
H67   H     H_    0.156732 0.678987 0.934448 0.119157
H68   H     H_    0.999588 0.600175 0.602798 0.187991
H69   H     H_    0.422341 0.010478 0.356939 0.112196
H70   H     H_    0.496985 0.100787 0.601931 0.188958
H71   H     H_    0.898519 0.856023 0.521665 0.165488
H72   H     H_    0.893611 0.720061 0.334193 0.134716
H73   H     H_    0.396763 0.355292 0.518650 0.164778
H74   H     H_    0.393358 0.217633 0.332149 0.139567
H75   H     H_    0.836817 0.703066 0.064695 0.126167
H76   H     H_    0.661078 0.189653 0.065627 0.115846
O1    O     O_R   0.957020 0.451640 0.669920 -0.524297
O2    O     O_R   0.168040 0.093290 0.169870 -0.519613
O3    O     O_R   0.331960 0.593290 0.830130 -0.510941
O4    O     O_R   0.668040 0.593290 0.169870 -0.524072
O5    O     O_R   0.945600 0.250580 0.824860 -0.509543
O6    O     O_R   0.054400 0.250580 0.175140 -0.508429
O7    O     O_R   0.445600 0.750580 0.824860 -0.508359
O8    O     O_R   0.554400 0.750580 0.175140 -0.510032
O9    O     O_3   0.834640 0.334650 0.749500 -0.271300
O10   O     O_3   0.165360 0.334650 0.250500 -0.260779
O11   O     O_3   0.334640 0.834650 0.749500 -0.272864
O12   O     O_R   0.042980 0.451640 0.330080 -0.518842
O13   O     O_3   0.665360 0.834650 0.250500 -0.243209
O14   O     O_R   0.821450 0.543440 0.674610 -0.487651
O15   O     O_R   0.178550 0.543440 0.325390 -0.500944
O16   O     O_R   0.321450 0.043440 0.674610 -0.487805
O17   O     O_R   0.678550 0.043440 0.325390 -0.499511
O18   O     O_R   0.715320 0.458650 0.668100 -0.530369
O19   O     O_R   0.284680 0.458650 0.331900 -0.500866
O20   O     O_R   0.215320 0.958650 0.668100 -0.529285
O21   O     O_R   0.784680 0.958650 0.331900 -0.497752
O22   O     O_R   0.737170 0.209590 0.674530 -0.500602
O23   O     O_R   0.457020 0.951640 0.669920 -0.525262
O24   O     O_R   0.262830 0.209590 0.325470 -0.520625
O25   O     O_R   0.237170 0.709590 0.674530 -0.499993
O26   O     O_R   0.762830 0.709590 0.325470 -0.518788
O27   O     O_R   0.832710 0.092740 0.669580 -0.495181
O28   O     O_R   0.167290 0.092740 0.330420 -0.514551
O29   O     O_R   0.332710 0.592740 0.669580 -0.497363
O30   O     O_R   0.667290 0.592740 0.330420 -0.510555
O31   O     O_R   0.946290 0.250060 0.676040 -0.514904
O32   O     O_R   0.053710 0.250060 0.323960 -0.525017
O33   O     O_R   0.446290 0.750060 0.676040 -0.513857
O34   O     O_R   0.542980 0.951640 0.330080 -0.519054
O35   O     O_R   0.553710 0.750060 0.323960 -0.510547
O36   O     O_R   0.956270 0.452200 0.830470 -0.521592
O37   O     O_R   0.043730 0.452200 0.169530 -0.520101
O38   O     O_R   0.456270 0.952200 0.830470 -0.522140
O39   O     O_R   0.543730 0.952200 0.169530 -0.521065
O40   O     O_R   0.820760 0.543950 0.823440 -0.504552
O41   O     O_R   0.179240 0.543950 0.176560 -0.503580
O42   O     O_R   0.320760 0.043950 0.823440 -0.504594
O43   O     O_R   0.679240 0.043950 0.176560 -0.504769
O44   O     O_R   0.714570 0.459210 0.828640 -0.518038
O45   O     O_R   0.736470 0.210100 0.823360 -0.502885
O46   O     O_R   0.285430 0.459210 0.171360 -0.523288
O47   O     O_R   0.214570 0.959210 0.828640 -0.518085
O48   O     O_R   0.785430 0.959210 0.171360 -0.518295
O49   O     O_2   0.954902 0.811247 0.606267 -0.546578
O50   O     O_2   0.923093 0.853657 0.398060 -0.583984
O51   O     O_2   0.453974 0.313123 0.603221 -0.547665
O52   O     O_2   0.424931 0.351098 0.395178 -0.583147
O53   O     O_R   0.263530 0.210100 0.176640 -0.509703
O54   O     O_R   0.236470 0.710100 0.823360 -0.501977
O55   O     O_R   0.763530 0.710100 0.176640 -0.511637
O56   O     O_R   0.831960 0.093290 0.830130 -0.516012

loop_
_geom_bond_atom_site_label_1
_geom_bond_atom_site_label_2
_ccdc_geom_bond_type
C8    C9    S    
C83   C87   A    
Cr11  O26   S    
C58   C128  S    
C35   H44   S    
Cr4   O35   S    
Cr8   O22   S    
C15   C91   S    
C33   C45   S    
C73   C74   A    
Cr7   O13   S    
C126  H36   S    
C8    H31   S    
C20   O55   A    
C74   C83   A    
C49   O15   A    
C15   O42   A    
C111  H4    S    
C83   H66   S    
C59   H62   S    
C12   O44   A    
C8    H27   S    
C90   C95   A    
C25   O8    A    
Cr8   O44   S    
C118  H19   S    
Cr11  O21   S    
Cr6   O16   S    
C106  H67   S    
C48   H55   S    
C19   C123  S    
C34   C51   A    
C101  C123  A    
Cr7   O39   S    
C80   O30   A    
Cr8   O9    S    
C36   C47   S    
C43   H46   S    
C16   C90   S    
C40   C87   S    
C57   C129  S    
Cr10  O47   S    
Cr3   O29   S    
C10   C136  S    
Cr12  O9    S    
C6    C133  A    
Cr2   O28   S    
C27   C60   S    
C61   H63   S    
C112  C117  S    
C108  H76   S    
C15   O47   A    
C120  H21   S    
Cr1   O36   S    
C81   H68   S    
C94   C98   A    
C22   O37   A    
C7    H26   S    
C29   C33   A    
C94   C111  A    
C78   O28   A    
Cr9   O19   S    
C9    H28   S    
Cr3   O3    S    
C77   O22   A    
C12   O40   A    
Cr1   O14   S    
Cr2   O2    S    
C85   H69   S    
C24   C29   A    
C21   C131  S    
C26   C126  A    
Cr1   O1    S    
C18   O2    A    
C16   O48   A    
C91   C96   A    
C55   C74   A    
C46   H53   S    
C82   C126  A    
C6    C7    A    
Cr5   O10   S    
Cr12  O27   S    
Cr8   O18   S    
C106  C123  A    
C120  H17   S    
C78   O24   A    
Cr7   O17   S    
C13   C28   A    
C67   H61   S    
C2    C27   A    
C34   C46   S    
C40   O50   D    
C113  H10   S    
C113  H6    S    
C54   C80   S    
C81   C86   A    
C41   O51   D    
C14   O41   A    
C99   C121  A    
C37   C53   A    
C88   C89   A    
C39   O49   D    
C45   H48   S    
C125  O31   A    
C66   C67   A    
C43   H43   S    
C38   C54   A    
Cr5   O15   S    
C80   O26   A    
Cr9   O10   S    
C40   H72   S    
C20   C124  S    
C26   C71   S    
C79   O25   A    
C13   H38   S    
C12   C94   S    
C65   H59   S    
C130  C134  A    
Cr7   O34   S    
C107  C111  A    
C107  C124  A    
C102  C124  A    
C17   O56   A    
C73   C81   A    
C49   O19   A    
C92   C97   A    
C4    C131  A    
C107  H75   S    
Cr11  O13   S    
C79   O29   A    
C63   C67   A    
C118  H15   S    
C60   O20   A    
Cr4   O4    S    
C112  H9    S    
C30   C34   A    
C48   H51   S    
C8    C134  S    
C127  O32   A    
C101  C119  S    
C84   C88   A    
C116  H13   S    
Cr2   O6    S    
C62   C66   A    
C11   H35   S    
C71   O17   A    
C17   O45   A    
C110  H3    S    
C10   C11   S    
C85   C89   A    
C86   C87   A    
C68   C69   A    
C46   H49   S    
Cr10  O54   S    
Cr10  O25   S    
C23   O38   A    
C23   C133  S    
C98   C102  A    
C64   H58   S    
C70   C72   A    
C103  H45   S    
Cr12  O56   S    
C47   H54   S    
Cr9   O46   S    
C3    C133  A    
Cr5   O41   S    
C93   H12   S    
C75   C76   A    
C51   C77   S    
Cr11  O48   S    
C61   C65   A    
C99   C117  S    
C18   O53   A    
C66   H60   S    
C28   C49   S    
C98   C116  S    
C22   O6    A    
C63   C70   A    
C28   C32   A    
C117  H18   S    
C132  C136  A    
C21   O5    A    
C54   C115  A    
Cr2   O32   S    
C1    C29   S    
C127  O12   A    
C62   C72   A    
C52   C93   A    
C47   H50   S    
C11   H30   S    
C32   C37   A    
C63   H65   S    
C37   C48   S    
C51   C82   A    
C14   C92   S    
C7    C132  A    
C55   C69   A    
C9    H32   S    
C31   C43   S    
C18   C122  S    
C104  H23   S    
C60   O16   A    
C9    C135  S    
C84   H70   S    
C45   H41   S    
C5    C130  A    
C10   H29   S    
C55   C127  S    
Cr6   O38   S    
C26   C30   A    
C35   H42   S    
C112  H5    S    
C24   H39   S    
C27   C31   A    
Cr3   O11   S    
Cr12  O31   S    
C117  H14   S    
C96   C113  S    
Cr2   O10   S    
C100  C118  S    
C71   O21   A    
Cr1   O9    S    
C103  C121  A    
C114  H7    S    
C22   C130  S    
C115  H34   S    
C102  C120  S    
C125  O1    A    
C6    H25   S    
C106  C110  A    
C59   C69   A    
C17   C121  S    
C41   C88   S    
C105  C109  A    
Cr10  O11   S    
Cr6   O11   S    
C44   H47   S    
C50   H52   S    
C56   C73   A    
Cr9   O24   S    
C53   C79   S    
C128  O23   A    
Cr5   O37   S    
C16   O43   A    
C2    C93   A    
Cr9   O53   S    
Cr6   O42   S    
C4    C5    A    
C129  O35   A    
C39   H71   S    
C36   C52   A    
C119  H16   S    
Cr11  O55   S    
C41   H73   S    
C14   O46   A    
C21   O36   A    
Cr4   O8    S    
C134  C135  A    
C38   C50   S    
C57   C76   A    
C1    O14   A    
C30   C35   S    
C4    H22   S    
C131  C135  A    
C33   C38   A    
C20   O4    A    
C95   C112  S    
C42   C89   S    
C128  O33   A    
C91   C109  A    
C109  H2    S    
C2    H37   S    
C42   O52   D    
C59   C64   A    
C44   C48   S    
C56   C68   A    
C64   C65   A    
C58   C70   A    
C19   O3    A    
C25   C132  S    
C61   C68   A    
C92   C110  A    
C114  C119  S    
C45   C50   S    
C44   H40   S    
Cr5   O12   S    
C25   O39   A    
Cr3   O33   S    
C50   H57   S    
Cr4   O13   S    
C5    H24   S    
C105  C122  A    
Cr8   O45   S    
C95   C99   A    
C100  C122  A    
C119  H20   S    
C57   C72   A    
C96   C100  A    
C75   C84   A    
C23   O7    A    
C114  H11   S    
C116  H8    S    
C82   H1    S    
C3    C11   S    
C1    O18   A    
C90   C108  A    
C113  C118  S    
Cr1   O40   S    
C116  C120  S    
C52   C78   S    
C19   O54   A    
Cr4   O30   S    
C77   O27   A    
C32   C44   S    
C24   C115  A    
C56   C125  S    
Cr6   O23   S    
Cr7   O43   S    
Cr10  O20   S    
C13   C104  A    
C10   H33   S    
C62   H64   S    
C31   C36   A    
C103  C108  A    
Cr3   O7    S    
Cr12  O5    S    
C53   C104  A    
C3    C136  A    
C97   C114  S    
C42   H74   S    
C35   C46   S    
C43   C47   S    
C76   C85   A    
C97   C101  A    
C105  H56   S    
C39   C86   S    
C58   C75   A    
C129  O34   A    
