data_mof_unit_63398.cif
_audit_creation_date              2012-12-10T21:25:18-0500
_audit_creation_method            fapswitch 2.2
_symmetry_space_group_name_H-M    P1
_symmetry_Int_Tables_number       1
_space_group_crystal_system       triclinic
_cell_length_a                    10.931181
_cell_length_b                    17.607171
_cell_length_c                    16.712354
_cell_angle_alpha                 89.961236
_cell_angle_beta                  91.274273
_cell_angle_gamma                 92.495687
_cell_volume                      3212.73375496

loop_
_atom_site_label
_atom_site_type_symbol
_atom_type_description
_atom_site_fract_x
_atom_site_fract_y
_atom_site_fract_z
_atom_type_partial_charge
C1    C     C_R   0.505172 0.353084 0.500305 0.948233
C2    C     C_R   0.555924 0.233585 0.430839 0.435810
C3    C     C_R   0.495417 0.729191 0.498480 -0.224195
C4    C     C_R   0.516383 0.270247 0.500665 -0.243088
C5    C     C_R   0.563919 0.769540 0.440180 0.414047
C6    C     C_R   0.489111 0.227334 0.570379 0.414752
C7    C     C_R   0.554940 0.848503 0.435935 -0.308793
C8    C     C_R   0.476962 0.148228 0.563778 -0.312891
C9    C     C_R   0.483417 0.885586 0.489767 0.052089
C10   C     C_R   0.503842 0.112799 0.492791 0.059798
C11   C     C_1   0.484900 0.965547 0.488194 -0.020952
C12   C     C_R   0.498466 0.646696 0.499838 1.005820
C13   C     C_1   0.491830 0.032957 0.488769 -0.020807
C14   C     C_R   0.420739 0.451367 0.831747 -0.283763
C15   C     C_R   0.551047 0.566320 0.170315 -0.303515
C16   C     C_R   0.259145 0.500184 0.498567 0.897992
C17   C     C_R   0.740853 0.504233 0.501169 0.912681
C18   C     C_R   0.423482 0.450869 0.747472 -0.081985
C19   C     C_R   0.548246 0.562566 0.254439 -0.091316
C20   C     C_R   0.570813 0.554078 0.747743 0.621479
C21   C     C_R   0.452770 0.438414 0.249283 0.620232
C22   C     C_R   0.571422 0.554491 0.833020 -0.408723
C23   C     C_R   0.873451 0.510016 0.502763 -0.089798
C24   C     C_R   0.454477 0.441632 0.163781 -0.344836
C25   C     C_R   0.497404 0.502761 0.875409 0.128944
C26   C     C_R   0.504090 0.505019 0.124179 0.174691
C27   C     C_1   0.500085 0.504066 0.963218 -0.039973
C28   C     C_1   0.502946 0.505843 0.036361 0.010282
C29   C     C_R   0.220132 0.586682 0.238567 -0.464955
C30   C     C_R   0.864909 0.472320 0.787943 -0.440961
C31   C     C_R   0.174264 0.584131 0.316604 0.474987
C32   C     C_R   0.864242 0.463876 0.704343 0.401575
C33   C     C_R   0.109678 0.517927 0.342433 -0.145163
C34   C     C_R   0.126906 0.503012 0.495733 -0.088792
C35   C     C_R   0.903093 0.525384 0.656589 -0.024499
C36   C     C_R   0.083622 0.457958 0.287888 0.283427
C37   C     C_R   0.943851 0.595229 0.692685 0.273990
C38   C     C_R   0.120723 0.464083 0.208057 0.329178
C39   C     C_R   0.953284 0.601672 0.777943 0.289764
C40   C     C_R   0.188227 0.529174 0.182613 0.328593
C41   C     C_R   0.913115 0.538578 0.824979 0.400731
C42   C     C_R   0.931332 0.513719 0.428753 -0.251887
C43   C     C_R   0.068521 0.498462 0.568951 -0.320580
C44   C     C_3   0.196069 0.601733 0.067819 0.062996
C45   C     C_R   0.944707 0.509480 0.574336 0.154826
C46   C     C_3   0.212541 0.596620 0.977861 -0.746550
C47   C     C_3   0.879131 0.597886 0.946256 0.199658
C48   C     C_3   0.814428 0.570258 0.021153 -0.937687
C49   C     C_3   0.662615 0.676801 0.741452 0.078895
C50   C     C_3   0.694444 0.738093 0.680266 -0.811049
C51   C     C_3   0.367636 0.312341 0.242872 0.095021
C52   C     C_3   0.331817 0.243227 0.293942 -0.807840
C53   C     C_3   0.164329 0.714272 0.336126 0.056468
C54   C     C_3   0.275855 0.768834 0.333904 -0.825248
C55   C     C_3   0.882954 0.333557 0.699784 0.101312
C56   C     C_R   0.057733 0.513013 0.424029 0.142893
C57   C     C_3   0.883672 0.271163 0.636943 -0.838552
C58   C     C_3   0.086141 0.341464 0.347961 0.160457
C59   C     C_3   0.022673 0.308544 0.421025 -0.905674
C60   C     C_3   0.076699 0.675158 0.621496 0.143661
C61   C     C_3   0.076845 0.698488 0.534086 -0.777028
C62   C     C_3   0.995359 0.418113 0.107346 0.157780
C63   C     C_3   0.956788 0.346680 0.060610 -0.828691
C64   C     C_3   0.988786 0.734260 0.798138 0.108656
C65   C     C_3   0.953395 0.776101 0.873319 -0.961147
C66   C     C_3   0.359333 0.761414 0.687355 0.085910
C67   C     C_R   0.418035 0.846331 0.548288 -0.321167
C68   C     C_3   0.335253 0.702364 0.752706 -0.841692
C69   C     C_3   0.682769 0.245384 0.319455 0.067117
C70   C     C_3   0.745503 0.307864 0.270287 -0.743014
C71   C     C_3   0.739254 0.768321 0.361783 0.102469
C72   C     C_3   0.824950 0.712113 0.326445 -0.875335
C73   C     C_3   0.531219 0.228711 0.706819 0.117173
C74   C     C_3   0.552482 0.284886 0.775069 -0.821902
C75   C     C_R   0.546618 0.153870 0.427534 -0.336199
C76   C     C_R   0.424923 0.767242 0.554795 0.382788
H1    H     H_    0.359934 0.411486 0.862480 0.156775
H2    H     H_    0.121074 0.491790 0.624203 0.155781
H3    H     H_    0.256416 0.649922 0.090079 0.140214
H4    H     H_    0.098664 0.613922 0.078786 0.119703
H5    H     H_    0.165267 0.544236 0.953625 0.293027
H6    H     H_    0.174572 0.647081 0.948128 0.230916
H7    H     H_    0.311070 0.596127 0.964209 0.238572
H8    H     H_    0.811682 0.627396 0.908421 0.106848
H9    H     H_    0.952789 0.639877 0.964619 0.183014
H10   H     H_    0.759907 0.516848 0.008384 0.279158
H11   H     H_    0.881992 0.560102 0.069931 0.221719
H12   H     H_    0.588890 0.616995 0.141740 0.145946
H13   H     H_    0.752585 0.614249 0.041744 0.213550
H14   H     H_    0.602623 0.881762 0.390903 0.134216
H15   H     H_    0.446035 0.113963 0.613871 0.140318
H16   H     H_    0.739946 0.672798 0.784542 0.122677
H17   H     H_    0.582352 0.695533 0.774488 0.132123
H18   H     H_    0.614698 0.748020 0.641607 0.250186
H19   H     H_    0.722447 0.792155 0.711048 0.186996
H20   H     H_    0.767854 0.720959 0.640836 0.302008
H21   H     H_    0.444136 0.295549 0.204622 0.134819
H22   H     H_    0.286687 0.326109 0.205053 0.173774
H23   H     H_    0.364620 0.410670 0.714139 0.176069
H24   H     H_    0.406776 0.202898 0.295816 0.243761
H25   H     H_    0.310843 0.259890 0.356012 0.259244
H26   H     H_    0.250711 0.212079 0.266786 0.187523
H27   H     H_    0.096168 0.739536 0.375074 0.163866
H28   H     H_    0.120259 0.710565 0.275313 0.118815
H29   H     H_    0.351890 0.742665 0.302462 0.264842
H30   H     H_    0.251944 0.821886 0.302403 0.201973
H31   H     H_    0.305984 0.783493 0.395861 0.260329
H32   H     H_    0.831692 0.311364 0.752143 0.142937
H33   H     H_    0.980039 0.347656 0.718365 0.131712
H34   H     H_    0.584511 0.610291 0.289207 0.205864
H35   H     H_    0.943892 0.289487 0.587376 0.255707
H36   H     H_    0.918852 0.218547 0.663963 0.202468
H37   H     H_    0.789734 0.258929 0.612317 0.259600
H38   H     H_    0.178597 0.364450 0.368186 0.163385
H39   H     H_    0.097447 0.294810 0.304666 0.174305
H40   H     H_    0.932752 0.281533 0.403530 0.263463
H41   H     H_    0.080100 0.265098 0.449461 0.211229
H42   H     H_    0.008372 0.354144 0.465103 0.273049
H43   H     H_    0.140168 0.628323 0.631912 0.171037
H44   H     H_    0.111977 0.725360 0.655188 0.156921
H45   H     H_    0.626692 0.595468 0.866985 0.130347
H46   H     H_    0.028678 0.752328 0.526052 0.220663
H47   H     H_    0.172345 0.707260 0.514038 0.266123
H48   H     H_    0.029195 0.654203 0.496581 0.267075
H49   H     H_    0.019494 0.463434 0.063437 0.199551
H50   H     H_    0.915909 0.434860 0.143176 0.132728
H51   H     H_    0.931769 0.299824 0.102475 0.244875
H52   H     H_    0.876315 0.357936 0.021305 0.212605
H53   H     H_    0.033099 0.329190 0.022906 0.255371
H54   H     H_    0.913672 0.738044 0.753566 0.187786
H55   H     H_    0.069814 0.766210 0.774709 0.153631
H56   H     H_    0.415935 0.396172 0.126413 0.138011
H57   H     H_    0.024025 0.769753 0.921382 0.263439
H58   H     H_    0.946241 0.837537 0.859804 0.226018
H59   H     H_    0.863090 0.754284 0.894301 0.229832
H60   H     H_    0.362390 0.877730 0.588350 0.141567
H61   H     H_    0.568375 0.123447 0.373793 0.133841
H62   H     H_    0.285581 0.802828 0.688474 0.121399
H63   H     H_    0.448033 0.792134 0.702145 0.139828
H64   H     H_    0.361740 0.726606 0.812245 0.203016
H65   H     H_    0.237674 0.683797 0.753910 0.256835
H66   H     H_    0.387553 0.651184 0.741835 0.271761
H67   H     H_    0.279558 0.634279 0.221447 0.189016
H68   H     H_    0.640038 0.202785 0.277191 0.127755
H69   H     H_    0.753193 0.218303 0.357760 0.126740
H70   H     H_    0.823948 0.284942 0.238426 0.213462
H71   H     H_    0.679781 0.330594 0.225652 0.226821
H72   H     H_    0.779276 0.354992 0.310168 0.299000
H73   H     H_    0.788320 0.797787 0.412938 0.137682
H74   H     H_    0.716815 0.809848 0.314104 0.139800
H75   H     H_    0.778122 0.679669 0.276848 0.249294
H76   H     H_    0.905776 0.743585 0.301962 0.190431
H77   H     H_    0.855577 0.671941 0.373306 0.257504
H78   H     H_    0.833257 0.425538 0.825278 0.188360
H79   H     H_    0.622510 0.209251 0.689171 0.131666
H80   H     H_    0.475415 0.179478 0.729831 0.130027
H81   H     H_    0.463312 0.298750 0.800463 0.243586
H82   H     H_    0.609389 0.259313 0.823000 0.190793
H83   H     H_    0.600881 0.337420 0.753325 0.286702
H84   H     H_    0.878097 0.517599 0.373455 0.182915
N1    N     N_R   0.500030 0.500030 0.707230 -0.115674
N2    N     N_R   0.499970 0.499970 0.292770 -0.120930
O1    O     O_R   0.500000 0.389130 0.566570 -0.578808
O2    O     O_3   0.931182 0.535992 0.907561 -0.606314
O3    O     O_3   0.640350 0.605945 0.702598 -0.585942
O4    O     O_3   0.403441 0.375882 0.291521 -0.584995
O5    O     O_3   0.197401 0.643787 0.369850 -0.599467
O6    O     O_3   0.823939 0.396648 0.666924 -0.580073
O7    O     O_3   0.011830 0.395581 0.310995 -0.604944
O8    O     O_3   0.955063 0.658538 0.643758 -0.648721
O9    O     O_3   0.097788 0.403280 0.156781 -0.596353
O10   O     O_3   0.022911 0.659458 0.816972 -0.636635
O11   O     O_3   0.360169 0.724761 0.611810 -0.609806
O12   O     O_R   0.500000 0.610870 0.433430 -0.591010
O13   O     O_3   0.592089 0.277994 0.365618 -0.554983
O14   O     O_3   0.631390 0.728658 0.386282 -0.611259
O15   O     O_3   0.467817 0.263547 0.642520 -0.589477
O16   O     O_R   0.499990 0.389100 0.433480 -0.526422
O17   O     O_R   0.500010 0.610900 0.566520 -0.555811
O18   O     O_R   0.316760 0.500020 0.566540 -0.644733
O19   O     O_R   0.683240 0.499980 0.433460 -0.640825
O20   O     O_R   0.316760 0.499990 0.433460 -0.612515
O21   O     O_R   0.683240 0.500010 0.566540 -0.565992
O22   O     O_3   0.228447 0.532646 0.104351 -0.569742
Zn1   Zn    Zn3+2 0.500010 0.500020 0.588860 1.037486
Zn2   Zn    Zn3+2 0.499990 0.499980 0.411140 1.028720

loop_
_geom_bond_atom_site_label_1
_geom_bond_atom_site_label_2
_ccdc_geom_bond_type
C51   H21   S    
C66   C68   S    
C61   H46   S    
C34   C56   A    
C23   C45   A    
C69   H69   S    
C73   C74   S    
C14   C18   A    
C72   H77   S    
C70   H71   S    
C38   O9    S    
C39   C41   A    
C57   H35   S    
C53   C54   S    
C69   H68   S    
C15   C19   A    
C62   O9    S    
C52   H26   S    
C36   O7    S    
C17   C23   S    
C23   C42   A    
C74   H83   S    
C61   H48   S    
C47   H9    S    
C76   O11   S    
C35   C37   A    
C24   C26   A    
O21   Zn1   S    
C18   N1    A    
C16   O20   A    
C50   H19   S    
C57   H36   S    
C53   H28   S    
C29   H67   S    
C33   C36   A    
C71   O14   S    
C73   H80   S    
C60   H43   S    
O20   Zn2   S    
C14   H1    S    
C62   H50   S    
C17   O21   A    
N1    Zn1   S    
C3    C12   S    
C42   C56   A    
C46   H6    S    
C53   O5    S    
C66   H63   S    
C59   H40   S    
C72   H76   S    
C22   C25   A    
C31   C33   A    
C30   C41   A    
C68   H66   S    
C70   H70   S    
C44   O22   S    
C65   H58   S    
C54   H29   S    
C73   O15   S    
C33   C56   S    
C59   H41   S    
C38   C40   A    
C55   H33   S    
C55   O6    S    
C44   C46   S    
C5    C7    A    
C52   H25   S    
C54   H30   S    
C51   C52   S    
C32   C35   A    
C44   H4    S    
C58   O7    S    
C4    C6    A    
C75   H61   S    
C37   O8    S    
N2    Zn2   S    
C74   H82   S    
C50   H18   S    
C15   C26   A    
C57   H37   S    
C58   C59   S    
C7    H14   S    
C52   H24   S    
C21   O4    S    
C60   C61   S    
C43   H2    S    
C19   N2    A    
O16   Zn2   S    
C64   O10   S    
C2    C4    A    
C9    C67   A    
C49   O3    S    
C62   C63   S    
C20   O3    S    
C2    O13   S    
C46   H5    S    
C9    C11   S    
C1    O16   A    
C24   H56   S    
C47   C48   S    
C66   H62   S    
C64   H55   S    
C72   H75   S    
C16   C34   S    
C73   H79   S    
C48   H11   S    
C68   H65   S    
C66   O11   S    
C8    H15   S    
C47   H8    S    
C3    C76   A    
C43   C45   A    
C65   H59   S    
C47   O2    S    
C54   H31   S    
C8    C10   A    
C31   O5    S    
C59   H42   S    
C48   H13   S    
C55   C57   S    
C6    O15   S    
C58   H39   S    
C5    O14   S    
C48   H10   S    
C21   C24   A    
C68   H64   S    
C70   H72   S    
C18   H23   S    
C20   C22   A    
C49   H16   S    
C35   C45   S    
C22   H45   S    
C12   O12   A    
C19   H34   S    
C7    C9    A    
C21   N2    A    
C74   H81   S    
C44   H3    S    
C42   H84   S    
C34   C43   A    
C63   H52   S    
C64   H54   S    
C3    C5    A    
C10   C13   S    
C62   H49   S    
C6    C8    A    
O19   Zn2   S    
O17   Zn1   S    
C25   C27   S    
C26   C28   S    
C61   H47   S    
C55   H32   S    
O1    Zn1   S    
C1    C4    S    
C60   O8    S    
C64   C65   S    
C32   O6    S    
C67   H60   S    
C71   C72   S    
C29   C31   A    
O12   Zn2   S    
C30   C32   A    
C11   C13   T    
C50   H20   S    
C71   H73   S    
C51   H22   S    
C20   N1    A    
C29   C40   A    
C36   C38   A    
C60   H44   S    
C63   H53   S    
C14   C25   A    
C69   C70   S    
C63   H51   S    
O18   Zn1   S    
C46   H7    S    
C71   H74   S    
C17   O19   A    
C30   H78   S    
C12   O17   A    
C1    O1    A    
C39   O10   S    
C37   C39   A    
C49   C50   S    
C41   O2    S    
C27   C28   T    
C58   H38   S    
C53   H27   S    
C51   O4    S    
C67   C76   A    
C69   O13   S    
C49   H17   S    
C65   H57   S    
C2    C75   A    
C16   O18   A    
C15   H12   S    
C40   O22   S    
C10   C75   A    
