data_mof_unit_48019.cif
_audit_creation_date              2012-12-11T15:33:49-0500
_audit_creation_method            fapswitch 2.2
_symmetry_space_group_name_H-M    P1
_symmetry_Int_Tables_number       1
_space_group_crystal_system       triclinic
_cell_length_a                    27.188334
_cell_length_b                    7.210742
_cell_length_c                    22.721711
_cell_angle_alpha                 89.946166
_cell_angle_beta                  101.050545
_cell_angle_gamma                 90.061111
_cell_volume                      4371.94958564

loop_
_atom_site_label
_atom_site_type_symbol
_atom_type_description
_atom_site_fract_x
_atom_site_fract_y
_atom_site_fract_z
_atom_type_partial_charge
O1    O     O_R   0.207310 0.594030 0.676830 -0.534902
O2    O     O_R   0.792690 0.405970 0.323170 -0.534901
O3    O     O_R   0.292690 0.094030 0.823170 -0.534012
O4    O     O_R   0.707310 0.905970 0.176830 -0.534011
O5    O     O_R   0.197320 0.262370 0.795700 -0.537293
O6    O     O_R   0.802680 0.737630 0.204300 -0.537294
O7    O     O_R   0.302680 0.762370 0.704300 -0.539087
O8    O     O_R   0.697320 0.237630 0.295700 -0.539087
C1    C     C_R   0.184431 0.432624 0.811467 0.686197
C2    C     C_R   0.815568 0.567376 0.188533 0.686197
C3    C     C_R   0.314950 0.932773 0.687670 0.689086
C4    C     C_R   0.685050 0.067227 0.312330 0.689086
O9    O     O_R   0.201410 0.264250 0.675590 -0.531838
O10   O     O_R   0.798590 0.735750 0.324410 -0.531840
O11   O     O_R   0.298590 0.764250 0.824410 -0.530654
O12   O     O_R   0.701410 0.235750 0.175590 -0.530654
O13   O     O_R   0.296810 0.094940 0.702210 -0.538994
O14   O     O_R   0.703190 0.905060 0.297790 -0.538995
O15   O     O_R   0.203190 0.594940 0.797790 -0.540735
O16   O     O_R   0.796810 0.405060 0.202210 -0.540734
C5    C     C_R   0.189854 0.432549 0.653496 0.688007
C6    C     C_R   0.810146 0.567451 0.346504 0.688005
C7    C     C_R   0.310149 0.932547 0.846495 0.692261
C8    C     C_R   0.689851 0.067453 0.153504 0.692260
O17   O     O_3   0.281300 0.427390 0.758870 -0.371494
O18   O     O_3   0.718700 0.572610 0.241130 -0.371494
O19   O     O_3   0.218700 0.927390 0.741130 -0.373812
O20   O     O_3   0.781300 0.072610 0.258870 -0.373812
V1    V     V_3+5 0.244190 0.152150 0.748350 1.436422
V2    V     V_3+5 0.755810 0.847850 0.251650 1.436420
V3    V     V_3+5 0.255810 0.652150 0.751650 1.435020
V4    V     V_3+5 0.744190 0.347850 0.248350 1.435023
C9    C     C_R   0.654936 0.062011 0.095239 -0.081792
C10   C     C_R   0.345064 0.937991 0.904761 -0.081791
C11   C     C_R   0.845068 0.562111 0.404769 -0.080530
C12   C     C_R   0.154933 0.437887 0.595230 -0.080524
C13   C     C_R   0.640247 0.105598 0.988049 -0.119329
C14   C     C_R   0.359753 0.894400 0.011950 -0.119331
C15   C     C_R   0.859917 0.608029 0.511840 -0.119401
C16   C     C_R   0.140087 0.391953 0.488160 -0.119401
C17   C     C_R   0.672577 0.107923 0.043417 -0.155044
C18   C     C_R   0.327423 0.892070 0.956582 -0.155045
C19   C     C_R   0.827546 0.609634 0.456498 -0.154505
C20   C     C_R   0.172457 0.390370 0.543502 -0.154507
C21   C     C_R   0.603880 0.020100 0.091539 -0.126199
C22   C     C_R   0.396120 0.979913 0.908461 -0.126196
C23   C     C_R   0.896057 0.519309 0.408521 -0.127293
C24   C     C_R   0.103942 0.480668 0.591477 -0.127281
C25   C     C_R   0.569011 0.030682 0.035953 0.103735
C26   C     C_R   0.430988 0.969331 0.964046 0.103736
C27   C     C_R   0.930993 0.530688 0.464041 0.103864
C28   C     C_R   0.069007 0.469268 0.535957 0.103866
C29   C     C_R   0.589134 0.065421 0.983820 0.027592
C30   C     C_R   0.410866 0.934587 0.016180 0.027591
C31   C     C_R   0.910971 0.567098 0.516112 0.027574
C32   C     C_R   0.089030 0.432860 0.483887 0.027567
C33   C     C_R   0.515572 0.004089 0.029585 -0.141953
C34   C     C_R   0.484427 0.995926 0.970415 -0.141957
C35   C     C_R   0.984401 0.503462 0.470416 -0.141691
C36   C     C_R   0.015599 0.496477 0.529581 -0.141691
C37   C     C_R   0.508242 0.011299 0.920197 0.630531
C38   C     C_R   0.491757 0.988716 0.079802 0.630535
C39   C     C_R   0.991857 0.513571 0.579795 0.629677
C40   C     C_R   0.008143 0.486343 0.420203 0.629688
C41   C     C_R   0.558790 0.053508 0.927296 -0.235070
C42   C     C_R   0.441209 0.946504 0.072703 -0.235071
C43   C     C_R   0.941356 0.556249 0.572637 -0.235661
C44   C     C_R   0.058645 0.443680 0.427362 -0.235654
H1    H     H_    0.574910 0.069925 0.887474 0.161390
H2    H     H_    0.425089 0.930085 0.112526 0.161390
H3    H     H_    0.925303 0.573991 0.612441 0.160894
H4    H     H_    0.074698 0.425922 0.387558 0.160896
H5    H     H_    0.406518 0.024228 0.867402 0.189683
H6    H     H_    0.593481 0.975790 0.132597 0.189685
H7    H     H_    0.093647 0.526059 0.632446 0.188695
H8    H     H_    0.906350 0.473919 0.367552 0.188715
H9    H     H_    0.288259 0.858196 0.954274 0.107446
H10   H     H_    0.711742 0.141788 0.045725 0.107445
H11   H     H_    0.211564 0.355727 0.545858 0.105033
H12   H     H_    0.788440 0.644293 0.454142 0.105036
H13   H     H_    0.655327 0.135152 0.948198 0.121237
H14   H     H_    0.344674 0.864841 0.051801 0.121238
H15   H     H_    0.844921 0.638871 0.551634 0.120979
H16   H     H_    0.155083 0.361113 0.448366 0.120978
C45   C     C_R   0.641928 0.886475 0.382368 -0.136824
C46   C     C_R   0.358071 0.113523 0.617631 -0.136824
C47   C     C_R   0.881638 0.386974 0.149594 -0.125878
C48   C     C_R   0.118362 0.613027 0.850405 -0.125884
H17   H     H_    0.666156 0.770330 0.377779 0.122647
H18   H     H_    0.333843 0.229668 0.622219 0.122646
H19   H     H_    0.873824 0.270430 0.176523 0.130613
H20   H     H_    0.126175 0.729570 0.823476 0.130611
C49   C     C_R   0.606461 0.866968 0.419683 0.156790
C50   C     C_R   0.393538 0.133031 0.580316 0.156789
C51   C     C_R   0.918244 0.367446 0.113738 0.152317
C52   C     C_R   0.081756 0.632554 0.886262 0.152317
C53   C     C_R   0.574428 0.017852 0.426425 0.013170
C54   C     C_R   0.425572 0.982147 0.573575 0.013171
C55   C     C_R   0.928678 0.518677 0.077823 0.014066
C56   C     C_R   0.071322 0.481323 0.922177 0.014067
C57   C     C_R   0.580145 0.184789 0.396079 -0.159269
C58   C     C_R   0.419855 0.815211 0.603921 -0.159269
C59   C     C_R   0.902699 0.686405 0.080905 -0.165823
C60   C     C_R   0.097301 0.313595 0.919096 -0.165822
H21   H     H_    0.556111 0.301841 0.399923 0.145517
H22   H     H_    0.443890 0.698160 0.600078 0.145517
H23   H     H_    0.909414 0.803703 0.053810 0.142008
H24   H     H_    0.090587 0.196296 0.946191 0.142007
C61   C     C_R   0.616018 0.202731 0.359563 -0.148455
C62   C     C_R   0.383983 0.797270 0.640438 -0.148454
C63   C     C_R   0.866890 0.704542 0.117475 -0.160578
C64   C     C_R   0.133110 0.295457 0.882526 -0.160575
H25   H     H_    0.618884 0.333207 0.336814 0.139840
H26   H     H_    0.381117 0.666794 0.663187 0.139841
H27   H     H_    0.847379 0.835297 0.117825 0.128133
H28   H     H_    0.152621 0.164702 0.882176 0.128132
C65   C     C_R   0.647105 0.053175 0.351780 -0.079577
C66   C     C_R   0.352895 0.946824 0.648219 -0.079578
C67   C     C_R   0.855400 0.554225 0.151692 -0.075597
C68   C     C_R   0.144599 0.445775 0.848308 -0.075594
N1    N     N_R   0.522132 0.162473 0.492058 -0.282379
N2    N     N_R   0.477868 0.837526 0.507942 -0.282379
N3    N     N_R   0.990571 0.662796 0.024359 -0.279141
N4    N     N_R   0.009430 0.337204 0.975641 -0.279141
N5    N     N_R   0.487482 0.154657 0.526354 -0.277564
N6    N     N_R   0.512518 0.845343 0.473645 -0.277564
N7    N     N_R   0.023666 0.654760 0.988012 -0.282834
N8    N     N_R   0.976335 0.345240 0.011988 -0.282833
C69   C     C_R   0.464356 0.992343 0.534944 0.520875
C70   C     C_R   0.535643 0.007657 0.465056 0.520875
C71   C     C_R   0.033762 0.492114 0.962534 0.519458
C72   C     C_R   0.966238 0.507886 0.037466 0.519459
F1    F     F_    0.484643 0.975866 0.863282 -0.701760
F2    F     F_    0.515357 0.024148 0.136717 -0.701762
F3    F     F_    0.015477 0.479500 0.636804 -0.703059
F4    F     F_    0.984521 0.520353 0.363192 -0.703072
C73   C     C_3   0.605032 0.686458 0.452877 -0.743760
H29   H     H_    0.635772 0.591652 0.446529 0.191638
H30   H     H_    0.609173 0.713190 0.501696 0.224083
H31   H     H_    0.569165 0.613873 0.436008 0.234648
C74   C     C_3   0.394966 0.313539 0.547120 -0.743760
H32   H     H_    0.364226 0.408343 0.553468 0.191638
H33   H     H_    0.430833 0.386126 0.563990 0.234648
H34   H     H_    0.390826 0.286803 0.498302 0.224083
C75   C     C_3   0.946175 0.186280 0.116222 -0.724681
H35   H     H_    0.936405 0.091141 0.150727 0.203106
H36   H     H_    0.936453 0.114828 0.072384 0.224619
H37   H     H_    0.987179 0.211849 0.127580 0.229598
C76   C     C_3   0.053825 0.813720 0.883778 -0.724682
H38   H     H_    0.063595 0.908860 0.849273 0.203106
H39   H     H_    0.012821 0.788152 0.872420 0.229597
H40   H     H_    0.063547 0.885172 0.927616 0.224620

loop_
_geom_bond_atom_site_label_1
_geom_bond_atom_site_label_2
_ccdc_geom_bond_type
O17   V3    S    
C55   C59   A    
C40   F4    S    
O1    C5    A    
C47   H19   S    
N3    C72   A    
O19   V1    S    
C9    C21   A    
C16   H16   S    
O3    C7    A    
C51   C75   S    
C56   C60   A    
N1    C70   A    
O15   V3    S    
C62   C66   A    
C48   C52   A    
C75   H35   S    
C56   C71   S    
C37   F1    S    
C33   C38   A    
C5    C12   S    
O7    C3    A    
C6    C11   S    
C73   H30   S    
C35   C40   A    
C26   C30   A    
C55   C72   S    
C36   C39   A    
C40   C44   A    
O2    V4    S    
O9    V1    S    
C23   H8    S    
C14   C18   A    
C74   H33   S    
O4    C8    A    
C51   C55   A    
C50   C54   A    
C57   C61   A    
C60   H24   S    
O1    V3    S    
O13   V1    S    
C59   C63   A    
O3    V1    S    
C2    C67   S    
C46   C50   A    
N1    N5    A    
C45   C49   A    
C1    O15   A    
C15   C31   A    
C48   H20   S    
C2    O16   A    
C16   C32   A    
C10   C18   A    
O2    C6    A    
C58   H22   S    
C10   C22   A    
C48   C68   A    
C11   C19   A    
C62   H26   S    
N2    C69   A    
C43   H3    S    
C12   C20   A    
C44   H4    S    
N4    N8    A    
C13   C29   A    
C34   C37   A    
O11   C7    A    
C11   C23   A    
C35   C36   A    
O12   C8    A    
C14   H14   S    
C24   H7    S    
C13   H13   S    
C47   C67   A    
O10   V2    S    
N8    C72   A    
C75   H36   S    
O5    V1    S    
C57   H21   S    
C73   H31   S    
C39   C43   A    
O7    V3    S    
C38   C42   A    
C61   C65   A    
C26   C34   A    
C46   H18   S    
C74   H34   S    
C17   H10   S    
C60   C64   A    
C45   H17   S    
O18   V4    S    
C15   C19   A    
C19   H12   S    
C54   C58   A    
O4    V2    S    
N4    C71   A    
C47   C51   A    
C21   H6    S    
O8    V4    S    
N2    N6    A    
O5    C1    A    
C23   C27   A    
C63   H27   S    
N3    N7    A    
C14   C30   A    
C21   C25   A    
O8    C4    A    
C7    C10   S    
O9    C5    A    
C46   C66   A    
C45   C65   A    
O14   V2    S    
C63   C67   A    
O6    V2    S    
C16   C20   A    
C76   H40   S    
C27   C35   A    
C49   C53   A    
C64   H28   S    
C75   H37   S    
C29   C41   A    
C64   C68   A    
O16   V4    S    
C3    O13   A    
C50   C74   S    
C20   H11   S    
C53   C70   S    
C25   C33   A    
C31   C43   A    
O11   V3    S    
C30   C42   A    
C61   H25   S    
O12   V4    S    
C73   H29   S    
C22   C26   A    
C8    C9    S    
C9    C17   A    
C38   F2    S    
C76   H39   S    
C15   H15   S    
C32   C44   A    
C76   H38   S    
O10   C6    A    
C33   C34   A    
C42   H2    S    
C58   C62   A    
C41   H1    S    
C52   C76   S    
C52   C56   A    
C54   C69   S    
O20   V2    S    
C12   C24   A    
C27   C31   A    
C37   C41   A    
C13   C17   A    
N7    C71   A    
C25   C29   A    
C49   C73   S    
O6    C2    A    
C4    C65   S    
N5    C69   A    
C24   C28   A    
C18   H9    S    
C28   C36   A    
C4    O14   A    
C1    C68   S    
N6    C70   A    
C59   H23   S    
C74   H32   S    
C3    C66   S    
C22   H5    S    
C53   C57   A    
C28   C32   A    
C39   F3    S    
