data_mof_unit_61863.cif
_audit_creation_date              2012-10-26T18:08:57-0400
_audit_creation_method            fapswitch 2.2
_symmetry_space_group_name_H-M    P1
_symmetry_Int_Tables_number       1
_space_group_crystal_system       triclinic
_cell_length_a                    21.736003
_cell_length_b                    21.769113
_cell_length_c                    22.147575
_cell_angle_alpha                 60.252963
_cell_angle_beta                  118.984279
_cell_angle_gamma                 90.116131
_cell_volume                      7556.80959178

loop_
_atom_site_label
_atom_site_type_symbol
_atom_type_description
_atom_site_fract_x
_atom_site_fract_y
_atom_site_fract_z
_atom_type_partial_charge
C1    C     C_R   0.620074 0.498626 0.502842 0.536509
C2    C     C_R   0.803813 0.295348 0.675259 -0.115600
C3    C     C_R   0.861773 0.292771 0.665018 -0.116998
C4    C     C_R   0.419806 0.580286 0.339749 0.545437
C5    C     C_R   0.864974 0.357708 0.606851 -0.096783
C6    C     C_R   0.810213 0.426748 0.557817 0.031113
C7    C     C_R   0.748206 0.428241 0.563444 0.027719
C8    C     C_R   0.689307 0.495834 0.507846 0.007174
C9    C     C_R   0.694402 0.561268 0.452070 -0.150175
C10   C     C_R   0.756629 0.560416 0.449264 -0.157255
C11   C     C_R   0.814822 0.494070 0.501939 0.004217
C12   C     C_3   0.289770 0.709983 0.082625 0.031762
C13   C     C_3   0.713625 0.262838 0.028334 -0.118628
C14   C     C_3   0.734051 0.322567 0.971077 -0.112623
C15   C     C_1   0.625476 0.374455 0.750166 -0.020573
C16   C     C_R   0.379682 0.501651 0.496732 0.537721
C17   C     C_1   0.875938 0.126442 0.249803 0.017401
C18   C     C_3   0.688509 0.231896 0.973313 -0.082329
C19   C     C_3   0.709712 0.290912 0.917498 0.027137
C20   C     C_3   0.768038 0.178226 0.028600 0.130324
C21   C     C_3   0.792552 0.209365 0.082485 0.051327
C22   C     C_3   0.788610 0.237462 0.971477 -0.087636
C23   C     C_3   0.185625 0.733789 0.973331 0.138833
C24   C     C_3   0.813632 0.268398 0.026519 -0.122878
C25   C     C_1   0.663513 0.336635 0.825670 -0.046352
C26   C     C_1   0.838457 0.164050 0.174312 -0.010038
C27   C     C_R   0.251917 0.638052 0.373805 -0.088235
C28   C     C_R   0.580203 0.419712 0.660274 0.543722
C29   C     C_R   0.194996 0.704842 0.322644 -0.099352
C30   C     C_R   0.136573 0.707637 0.332153 -0.109442
C31   C     C_R   0.133324 0.643093 0.390779 -0.100949
C32   C     C_R   0.188923 0.574001 0.441136 0.025381
C33   C     C_R   0.251169 0.572346 0.435745 0.027188
C34   C     C_3   0.206787 0.792582 0.917483 0.030000
C35   C     C_R   0.310323 0.504739 0.491684 0.006714
C36   C     C_R   0.305458 0.439528 0.547922 -0.146638
C37   C     C_R   0.243303 0.440462 0.550809 -0.146312
C38   C     C_R   0.184872 0.506698 0.497771 0.002781
C39   C     C_R   0.995999 0.884710 0.492601 0.567079
C40   C     C_3   0.285351 0.738440 0.971389 -0.131700
C41   C     C_R   0.079860 0.919847 0.660294 0.540544
C42   C     C_R   0.999571 0.118955 0.498908 0.527178
C43   C     C_R   0.920191 0.081151 0.339706 0.563924
C44   C     C_R   0.001208 0.618787 0.500046 0.535265
C45   C     C_3   0.211349 0.764058 0.028657 0.135672
C46   C     C_R   0.881122 0.497612 0.500419 0.529586
C47   C     C_R   0.997241 0.380171 0.501027 0.541531
C48   C     C_R   0.118784 0.502795 0.499518 0.542097
C49   C     C_R   0.852737 0.846613 0.415859 0.116820
C50   C     C_R   0.795203 0.816229 0.411939 -0.086624
C51   C     C_R   0.806285 0.741251 0.442548 -0.140166
C52   C     C_3   0.311173 0.768875 0.026915 -0.131000
C53   C     C_R   0.873285 0.697460 0.471705 -0.102022
C54   C     C_R   0.932494 0.726731 0.477765 0.016224
C55   C     C_R   0.925435 0.799579 0.459635 0.037915
C56   C     C_3   0.231914 0.823739 0.971682 -0.108931
C57   C     C_R   0.990803 0.821678 0.483518 0.007554
C58   C     C_R   0.056377 0.777068 0.509036 -0.144636
C59   C     C_R   0.059183 0.710804 0.514556 -0.153583
C60   C     C_R   0.998065 0.685309 0.499836 0.017753
C61   C     C_R   0.031704 0.106312 0.647596 -0.094416
C62   C     C_R   0.042541 0.100256 0.717745 -0.114472
C63   C     C_R   0.036399 0.163413 0.718050 -0.128874
C64   C     C_1   0.374463 0.625605 0.249906 -0.005523
C65   C     C_R   0.020665 0.232764 0.648853 -0.107958
C66   C     C_R   0.010778 0.241021 0.576594 0.029791
C67   C     C_1   0.336288 0.663702 0.174433 -0.018435
C68   C     C_R   0.014563 0.176285 0.576011 0.030079
C69   C     C_R   0.001877 0.182550 0.504204 0.014703
C70   C     C_R   0.987653 0.250667 0.434842 -0.149897
C71   C     C_R   0.984802 0.314054 0.434928 -0.146745
C72   C     C_R   0.996501 0.310802 0.504634 -0.004931
C73   C     C_1   0.124101 0.875542 0.750158 -0.006923
C74   C     C_3   0.264585 0.678873 0.028406 -0.106541
C75   C     C_1   0.161319 0.838272 0.825645 -0.020783
C76   C     C_R   0.747360 0.362282 0.625078 -0.097726
Cu1   Cu    Cu3+1 0.500040 0.438210 0.499990 0.958340
Cu2   Cu    Cu3+1 0.499960 0.561790 0.500010 0.950309
Cu3   Cu    Cu3+1 0.061810 0.999860 0.500010 0.961235
Cu4   Cu    Cu3+1 0.938190 0.999990 0.499990 1.004471
Cu5   Cu    Cu3+1 0.958570 0.541460 0.417120 0.960040
Cu6   Cu    Cu3+1 0.041430 0.458560 0.582880 0.932237
H1    H     H_    0.363392 0.782846 0.049889 0.125993
H2    H     H_    0.350616 0.387743 0.590816 0.134073
H3    H     H_    0.315447 0.728337 0.946925 0.126976
H4    H     H_    0.295660 0.638482 0.363374 0.144411
H5    H     H_    0.196567 0.754779 0.275901 0.145773
H6    H     H_    0.093287 0.759959 0.293548 0.134200
H7    H     H_    0.087468 0.648445 0.396737 0.138124
H8    H     H_    0.240402 0.388857 0.594105 0.136704
H9    H     H_    0.106427 0.792849 0.525999 0.146428
H10   H     H_    0.740041 0.851922 0.379489 0.139884
H11   H     H_    0.761153 0.718390 0.437990 0.119330
H12   H     H_    0.904611 0.240402 0.702577 0.117734
H13   H     H_    0.878569 0.640581 0.489791 0.127396
H14   H     H_    0.217914 0.883681 0.947511 0.127670
H15   H     H_    0.109656 0.678639 0.531624 0.115616
H16   H     H_    0.977864 0.254891 0.379843 0.120966
H17   H     H_    0.037359 0.055499 0.650380 0.129131
H18   H     H_    0.055408 0.046391 0.771899 0.128490
H19   H     H_    0.043999 0.158731 0.772406 0.115171
H20   H     H_    0.016176 0.278143 0.654781 0.138155
H21   H     H_    0.974421 0.365968 0.380199 0.146082
H22   H     H_    0.278309 0.618941 0.052502 0.134725
H23   H     H_    0.909666 0.353276 0.599353 0.121932
H24   H     H_    0.649371 0.613114 0.409453 0.131011
H25   H     H_    0.703907 0.361714 0.635961 0.137804
H26   H     H_    0.802152 0.245173 0.721639 0.124387
H27   H     H_    0.759666 0.612049 0.406194 0.128126
H28   H     H_    0.719532 0.382614 0.946376 0.124270
H29   H     H_    0.683262 0.272894 0.052573 0.123287
H30   H     H_    0.865460 0.283037 0.049256 0.121677
H31   H     H_    0.818955 0.227233 0.947304 0.127794
H32   H     H_    0.636783 0.217077 0.950674 0.131670
I1    I     I_    0.795090 0.063105 0.074491 -0.338198
I2    I     I_    0.814482 0.961154 0.320206 -0.314845
I3    I     I_    0.154321 0.784955 0.075919 -0.359867
I4    I     I_    0.086197 0.705042 0.929730 -0.310877
O1    O     O_R   0.590210 0.447820 0.500000 -0.512409
O2    O     O_R   0.034940 0.555150 0.570020 -0.503700
O3    O     O_R   0.874830 0.535020 0.430000 -0.506251
O4    O     O_R   0.590150 0.552170 0.500020 -0.508109
O5    O     O_R   0.944810 0.465010 0.569970 -0.519474
O6    O     O_R   0.965060 0.444870 0.429980 -0.503620
O7    O     O_R   0.035040 0.374860 0.569950 -0.528315
O8    O     O_R   0.055190 0.535000 0.430030 -0.508016
O9    O     O_R   0.125170 0.465000 0.570000 -0.506663
O10   O     O_R   0.439580 0.508290 0.379070 -0.496354
O11   O     O_R   0.439510 0.612640 0.379090 -0.511222
O12   O     O_R   0.947780 0.909820 0.499990 -0.484297
O13   O     O_R   0.409850 0.447830 0.499980 -0.503603
O14   O     O_R   0.409790 0.552180 0.500000 -0.514686
O15   O     O_R   0.560490 0.387360 0.620910 -0.511179
O16   O     O_R   0.560420 0.491710 0.620930 -0.497717
O17   O     O_R   0.052170 0.909710 0.500000 -0.513685
O18   O     O_R   0.112650 0.939420 0.620930 -0.506254
O19   O     O_R   0.008260 0.939530 0.620910 -0.498385
O20   O     O_R   0.052220 0.090030 0.500010 -0.510255
O21   O     O_R   0.947830 0.090140 0.500000 -0.513079
O22   O     O_R   0.991740 0.060320 0.379090 -0.506783
O23   O     O_R   0.887350 0.060430 0.379070 -0.480496
O24   O     O_R   0.964960 0.625150 0.430050 -0.508780

loop_
_geom_bond_atom_site_label_1
_geom_bond_atom_site_label_2
_ccdc_geom_bond_type
C66   C68   A    
C21   C26   S    
C63   C65   A    
C34   C56   S    
C23   C45   S    
C12   C74   S    
Cu5   O8    S    
C53   H13   S    
C1    C8    S    
C47   O6    A    
C35   C36   A    
C24   H30   S    
Cu6   O2    S    
C63   H19   S    
C18   H32   S    
C23   I4    S    
Cu5   Cu6   S    
C15   C28   S    
C7    C8    A    
C39   O17   A    
C53   C54   A    
C27   C33   A    
Cu3   O18   S    
C37   C38   A    
C13   C18   S    
C34   C40   S    
C17   C26   T    
C40   C52   S    
C36   C37   A    
Cu2   O11   S    
C44   C60   S    
C69   C70   A    
C16   C35   S    
Cu1   O13   S    
C30   C31   A    
C15   C25   T    
C42   O20   A    
C44   O2    A    
Cu4   O19   S    
C39   C57   S    
C27   C29   A    
C10   H27   S    
C14   H28   S    
C18   C19   S    
C1    O1    A    
C14   C24   S    
C16   O13   A    
Cu2   O14   S    
C1    O4    A    
C22   H31   S    
C66   C72   A    
C45   C56   S    
C68   C69   A    
C31   H7    S    
C46   O3    A    
C70   C71   A    
C32   C38   A    
C29   C30   A    
C58   H9    S    
C7    C76   A    
C38   C48   S    
C34   C75   S    
Cu3   O22   S    
C59   C60   A    
C13   C14   S    
C73   C75   T    
C61   H17   S    
Cu1   O15   S    
C65   H20   S    
Cu2   O4    S    
C12   C52   S    
C47   O7    A    
Cu6   O9    S    
C12   C67   S    
Cu4   O12   S    
C4    O10   A    
Cu5   O6    S    
C28   O15   A    
C64   C67   T    
C19   C22   S    
C6    C11   A    
C8    C9    A    
C5    H23   S    
C3    C5    A    
C9    H24   S    
Cu1   Cu2   S    
C48   O8    A    
C42   C69   S    
Cu5   O3    S    
C51   C53   A    
C40   H3    S    
C52   H1    S    
C17   C43   S    
Cu6   O7    S    
C62   C63   A    
C31   C32   A    
C23   C34   S    
C49   I2    S    
C50   C51   A    
C13   C21   S    
C43   O22   A    
Cu2   O16   S    
C6    C7    A    
Cu1   O10   S    
C51   H11   S    
C62   H18   S    
C37   H8    S    
C50   H10   S    
Cu5   O24   S    
C20   C22   S    
C65   C66   A    
C76   H25   S    
C55   C57   A    
C59   H15   S    
C27   H4    S    
C22   C24   S    
C46   O5    A    
C43   O23   A    
C23   C74   S    
C30   H6    S    
Cu6   O5    S    
C2    C76   A    
C74   H22   S    
C9    C10   A    
C45   I3    S    
C56   H14   S    
C71   H21   S    
C54   C55   A    
C42   O21   A    
C41   O19   A    
C14   C19   S    
C12   C45   S    
Cu1   O1    S    
C20   I1    S    
C4    O11   A    
C39   O12   A    
Cu4   O21   S    
Cu3   O17   S    
C4    C64   S    
C54   C60   A    
C32   C33   A    
C2    C3    A    
C58   C59   A    
C71   C72   A    
C13   H29   S    
C49   C55   A    
C48   O9    A    
C61   C68   A    
C57   C58   A    
C5    C6    A    
C36   H2    S    
C2    H26   S    
C33   C35   A    
C40   C74   S    
C3    H12   S    
C18   C20   S    
C61   C62   A    
C16   O14   A    
C47   C72   S    
C29   H5    S    
C10   C11   A    
C19   C25   S    
C41   C73   S    
Cu3   Cu4   S    
C52   C56   S    
C28   O16   A    
Cu3   O20   S    
C20   C21   S    
C44   O24   A    
C49   C50   A    
C21   C24   S    
C11   C46   S    
Cu4   O23   S    
C41   O18   A    
C70   H16   S    
