data_mof_unit_62631.cif
_audit_creation_date              2012-12-11T15:49:50-0500
_audit_creation_method            fapswitch 2.2
_symmetry_space_group_name_H-M    P1
_symmetry_Int_Tables_number       1
_space_group_crystal_system       triclinic
_cell_length_a                    8.306029
_cell_length_b                    19.099846
_cell_length_c                    27.104056
_cell_angle_alpha                 95.809941
_cell_angle_beta                  93.240345
_cell_angle_gamma                 84.795294
_cell_volume                      4255.30077506

loop_
_atom_site_label
_atom_site_type_symbol
_atom_type_description
_atom_site_fract_x
_atom_site_fract_y
_atom_site_fract_z
_atom_type_partial_charge
Ba1   Ba    Ba6+2 0.854000 0.466860 0.523710 1.777212
Ba2   Ba    Ba6+2 0.335820 0.533080 0.476290 1.774869
Br1   Br    Br    0.563739 0.365148 0.258824 -0.320468
Br2   Br    Br    0.160285 0.629704 0.730003 -0.496362
Br3   Br    Br    0.228487 0.110475 0.557109 -0.524680
Br4   Br    Br    0.092821 0.248097 0.436020 -0.453936
Br5   Br    Br    0.128093 0.712330 0.246137 -0.366415
Br6   Br    Br    0.926831 0.837826 0.307701 -0.275167
Br7   Br    Br    0.106926 0.394361 0.267661 -0.347308
Br8   Br    Br    0.619107 0.469116 0.775703 -0.432022
Br9   Br    Br    0.571900 0.450057 0.059246 -0.510671
Br10  Br    Br    0.588699 0.552535 0.224408 -0.340228
Br11  Br    Br    0.635737 0.681265 0.107913 -0.271647
Br12  Br    Br    0.632879 0.576481 0.940433 -0.511445
C1    C     C_3   0.728438 0.213382 0.667049 0.269649
C2    C     C_R   0.899709 0.586605 0.175508 0.714518
C3    C     C_2   0.774722 0.555278 0.270757 0.261241
C4    C     C_3   0.160293 0.315638 0.660999 0.290788
C5    C     C_3   0.747698 0.575617 0.325430 -0.106662
C6    C     C_1   0.991951 0.496231 0.342996 0.070051
C7    C     C_2   0.024640 0.487637 0.294312 0.238391
C8    C     C_2   0.927904 0.532230 0.256978 0.091499
C9    C     C_R   0.050655 0.533220 0.104861 -0.107787
C10   C     C_R   0.164146 0.503599 0.139038 -0.070057
C11   C     C_R   0.311511 0.471475 0.121936 0.031841
C12   C     C_3   0.690456 0.281795 0.642750 0.362835
C13   C     C_R   0.919121 0.578291 0.123396 -0.052216
C14   C     C_2   0.875975 0.543317 0.360204 -0.256342
C15   C     C_2   0.340730 0.475545 0.641247 -0.390609
C16   C     C_3   0.158094 0.294630 0.713501 -0.260551
C17   C     C_R   0.237145 0.469247 0.983167 0.066578
C18   C     C_R   0.983323 0.542267 0.966470 0.006576
C19   C     C_R   0.125890 0.502672 0.949270 0.044933
C20   C     C_R   0.352177 0.416622 0.963164 -0.019724
C21   C     C_R   0.375542 0.405885 0.912383 0.006613
C22   C     C_R   0.280814 0.445774 0.879110 -0.012508
C23   C     C_3   0.525907 0.632840 0.625503 0.267504
C24   C     C_R   0.153238 0.492771 0.897301 -0.077496
C25   C     C_R   0.045054 0.524765 0.862949 -0.081930
C26   C     C_R   0.079878 0.517616 0.811856 0.700730
C27   C     C_R   0.304572 0.436308 0.827576 0.653875
C28   C     C_3   0.205880 0.306568 0.398672 0.565162
C29   C     C_2   0.431054 0.459451 0.730615 0.265928
C30   C     C_3   0.452688 0.435321 0.675939 -0.081739
C31   C     C_1   0.214858 0.516338 0.658347 -0.000275
C32   C     C_2   0.188790 0.530504 0.706900 0.240284
C33   C     C_2   0.279743 0.485436 0.744463 0.102192
C34   C     C_3   0.555005 0.645697 0.681424 -0.280369
C35   C     C_R   0.220260 0.484003 0.035441 0.005565
C36   C     C_R   0.077120 0.523145 0.052796 0.042834
C37   C     C_R   0.964762 0.555814 0.018868 0.026238
C38   C     C_R   0.344162 0.465340 0.071640 0.251437
C39   C     C_R   0.818861 0.616403 0.089527 0.349224
C40   C     C_3   0.281973 0.254499 0.359131 -0.176546
C41   C     C_R   0.862009 0.562513 0.929805 0.244612
C42   C     C_R   0.898361 0.558226 0.879746 0.004604
C43   C     C_R   0.846459 0.606597 0.038894 -0.028734
C44   C     C_R   0.401772 0.299907 0.523891 -0.315762
C45   C     C_3   0.002310 0.699589 0.341419 0.341709
C46   C     C_R   0.545016 0.278308 0.499944 0.022116
C47   C     C_R   0.603332 0.206856 0.497211 -0.104533
C48   C     C_R   0.514987 0.156054 0.515574 -0.024784
C49   C     C_R   0.365540 0.178379 0.537709 0.226575
C50   C     C_R   0.310333 0.250714 0.542163 0.028335
C51   C     C_R   0.593018 0.039702 0.550107 -0.057638
C52   C     C_3   0.007557 0.680823 0.578752 0.313339
C53   C     C_R   0.635801 0.966760 0.544218 -0.058675
C54   C     C_R   0.670507 0.932421 0.497286 -0.015423
C55   C     C_R   0.664900 0.972956 0.456695 -0.010280
C56   C     C_3   0.962160 0.735962 0.293980 0.409176
C57   C     C_R   0.613313 0.045181 0.461733 0.410513
C58   C     C_R   0.575628 0.079615 0.508894 0.020495
C59   C     C_R   0.849217 0.826882 0.464227 -0.084342
C60   C     C_R   0.891770 0.753953 0.458976 0.014057
C61   C     C_R   0.659265 0.734303 0.504517 0.022888
C62   C     C_R   0.618511 0.807620 0.511170 -0.092066
C63   C     C_R   0.711937 0.854580 0.490364 0.029249
C64   C     C_3   0.990170 0.760485 0.591643 -0.343199
C65   C     C_R   0.792106 0.708070 0.476827 -0.279180
C66   C     C_3   0.601328 0.346928 0.363589 0.536092
C67   C     C_3   0.487594 0.719807 0.352950 0.274952
C68   C     C_3   0.648473 0.309297 0.311875 0.783751
C69   C     C_3   0.434704 0.785310 0.326319 0.641698
C70   C     C_R   0.133110 0.511639 0.190272 0.728411
Cl1   Cl    Cl    0.691871 0.426503 0.375286 -0.693793
Cl2   Cl    Cl    0.859579 0.293585 0.307358 -0.435686
Cl3   Cl    Cl    0.583490 0.222818 0.298384 -0.450651
Cl4   Cl    Cl    0.632116 0.218643 0.724609 -0.574291
Cl5   Cl    Cl    0.516279 0.777860 0.266370 -0.398049
Cl6   Cl    Cl    0.501491 0.861664 0.361418 -0.591395
Cl7   Cl    Cl    0.586995 0.088817 0.407205 -0.512226
H1    H     H_    0.744457 0.275484 0.605844 0.009379
H2    H     H_    0.470223 0.360373 0.363547 -0.046678
H3    H     H_    0.861055 0.202776 0.673674 0.101099
H4    H     H_    0.556741 0.290299 0.637198 -0.085463
H5    H     H_    0.683252 0.168861 0.642140 -0.004764
H6    H     H_    0.395882 0.625647 0.617003 0.020476
H7    H     H_    0.600415 0.583698 0.612968 0.065326
H8    H     H_    0.479914 0.693555 0.696055 0.160675
H9    H     H_    0.522686 0.599557 0.699417 0.099360
H10   H     H_    0.684784 0.653151 0.690590 0.166040
H11   H     H_    0.213442 0.334813 0.739720 0.119399
H12   H     H_    0.309067 0.283108 0.327532 0.140867
H13   H     H_    0.057574 0.645206 0.331648 0.009067
H14   H     H_    0.885985 0.696600 0.358814 -0.152019
H15   H     H_    0.848696 0.716755 0.276346 0.101295
H16   H     H_    0.621589 0.714486 0.355348 -0.059783
H17   H     H_    0.443582 0.727591 0.391230 0.048066
H18   H     H_    0.091559 0.368208 0.659506 0.054753
H19   H     H_    0.301333 0.792819 0.322311 0.123448
H20   H     H_    0.406345 0.454032 0.148146 0.199269
H21   H     H_    0.468296 0.365846 0.899261 0.152828
H22   H     H_    0.419512 0.380147 0.986052 0.140268
H23   H     H_    0.390887 0.225770 0.375501 0.139773
H24   H     H_    0.288066 0.318691 0.652205 -0.037193
H25   H     H_    0.805617 0.576849 0.853285 0.185311
H26   H     H_    0.778135 0.642409 0.015808 0.158320
H27   H     H_    0.871692 0.560540 0.399475 0.095616
H28   H     H_    0.349805 0.460070 0.601793 0.094360
H29   H     H_    0.516282 0.827939 0.533012 0.086036
H30   H     H_    0.643414 0.937229 0.576461 0.093704
H31   H     H_    0.569266 0.064837 0.586909 0.123305
H32   H     H_    0.714849 0.190331 0.478856 0.173079
H33   H     H_    0.695890 0.948006 0.420490 0.189780
H34   H     H_    0.197028 0.215362 0.343354 0.217737
H35   H     H_    0.031821 0.291265 0.723821 0.160311
H36   H     H_    0.926910 0.862036 0.450073 0.111762
H37   H     H_    0.826119 0.651826 0.472942 0.050232
H38   H     H_    0.355521 0.354836 0.525334 0.073429
H39   H     H_    0.227906 0.242673 0.716386 0.177020
H40   H     H_    0.297331 0.334443 0.422627 -0.152529
H41   H     H_    0.889403 0.662288 0.565516 -0.018256
H42   H     H_    0.095675 0.668053 0.549291 0.058714
H43   H     H_    0.892050 0.775079 0.617928 0.140649
H44   H     H_    0.961222 0.788026 0.557922 0.045448
H45   H     H_    0.105557 0.778421 0.609045 0.144436
N1    N     N_R   0.983554 0.540425 0.206516 -0.423721
N2    N     N_R   0.224341 0.482155 0.795531 -0.418297
O1    O     O_2   0.913240 0.537010 0.617740 -0.446767
O2    O     O_2   0.229204 0.749300 0.464582 -0.473245
O3    O     O_3   0.110611 0.736863 0.373457 -0.582779
O4    O     O_3   0.145240 0.536960 0.557560 -0.512284
O5    O     O_3   0.557280 0.416300 0.475860 -0.466432
O6    O     O_2   0.376710 0.670070 0.522470 -0.463952
O7    O     O_3   0.569365 0.691384 0.603352 -0.636670
O8    O     O_2   0.435575 0.523091 0.323900 -0.345829
O9    O     O_3   0.422724 0.660166 0.327096 -0.556579
O10   O     O_2   0.242990 0.497383 0.220239 -0.479131
O11   O     O_2   0.391545 0.385257 0.811217 -0.530857
O12   O     O_3   0.650113 0.302558 0.400570 -0.587688
O13   O     O_2   0.817642 0.637832 0.193635 -0.484054
O14   O     O_2   0.977630 0.540222 0.782062 -0.509654
O15   O     O_3   0.669960 0.410470 0.588880 -0.514630
O16   O     O_2   0.775467 0.473802 0.675616 -0.415751
O17   O     O_3   0.060973 0.649737 0.621751 -0.583447
O18   O     O_3   0.756664 0.337859 0.672643 -0.556225
O19   O     O_2   0.812980 0.329910 0.477500 -0.377643
O20   O     O_3   0.078660 0.374870 0.564770 -0.500829
O21   O     O_2   0.969375 0.250156 0.537681 -0.417339
O22   O     O_3   0.088219 0.264787 0.628175 -0.582738
O23   O     O_2   0.276450 0.462960 0.382230 -0.467572
O24   O     O_3   0.044470 0.462980 0.442430 -0.463475
O25   O     O_3   0.519740 0.589470 0.411120 -0.465289
O26   O     O_3   0.093568 0.351572 0.374276 -0.535205
O27   O     O_3   0.632420 0.583650 0.524140 -0.476589
O28   O     O_3   0.111040 0.625070 0.435230 -0.507235
P1    P     P_3+3 0.082480 0.557670 0.610090 1.039938
P2    P     P_3+3 0.635220 0.340300 0.462910 1.122396
P3    P     P_3+3 0.111827 0.283941 0.567431 1.050558
P4    P     P_3+3 0.107220 0.442270 0.389900 1.141479
P5    P     P_3+3 0.086424 0.716991 0.434059 0.984770
P6    P     P_3+3 0.663515 0.417026 0.653565 1.037042
P7    P     P_3+3 0.560858 0.672106 0.538739 0.954393
P8    P     P_3+3 0.532929 0.584763 0.346762 1.142102

loop_
_geom_bond_atom_site_label_1
_geom_bond_atom_site_label_2
_ccdc_geom_bond_type
Br1   C68   S    
C6    P4    S    
C41   C42   A    
C67   H16   S    
C61   P7    S    
Ba2   O6    S    
C59   C60   A    
C12   O18   S    
C21   C22   A    
C4    H18   S    
C65   H37   S    
Ba2   O24   S    
C1    H3    S    
C16   H35   S    
O9    P8    S    
Br2   C32   S    
C31   C32   D    
C20   H22   S    
C66   O12   S    
C15   H28   S    
C8    N1    S    
Br3   C49   S    
C45   H14   S    
C45   H13   S    
Ba1   O20   S    
C20   C21   A    
C52   O17   S    
C28   O26   S    
C27   O11   D    
Br9   C38   S    
C44   H38   S    
C12   H1    S    
C68   Cl3   S    
C40   H23   S    
O3    P5    S    
C26   O14   D    
Ba1   Ba2   S    
C46   P2    S    
C50   P3    S    
C55   C57   A    
Ba1   O4    S    
O4    P1    S    
O26   P4    S    
C12   H4    S    
C2    N1    Am   
O17   P1    S    
C54   C55   A    
C67   O9    S    
C26   N2    Am   
Br10  C3    S    
O22   P3    S    
C17   C19   A    
Ba1   P1    S    
Ba2   O23   S    
C28   H40   S    
C37   C43   A    
C9    C13   A    
C64   H44   S    
Ba2   O28   S    
C18   C41   A    
C52   H41   S    
Ba1   O1    S    
C2    C13   A    
Br12  C41   S    
C67   H17   S    
O28   P5    S    
C7    C8    S    
Ba2   O5    S    
C22   C27   A    
C17   C35   A    
C69   Cl5   S    
C53   H30   S    
O19   P2    D    
C23   H6    S    
C23   H7    S    
C67   C69   S    
C64   H45   S    
C44   C46   A    
Br11  C39   S    
C70   O10   D    
C44   C50   A    
C52   C64   S    
C40   H34   S    
C69   H19   S    
C4    H24   S    
O16   P6    D    
C53   C54   A    
C40   H12   S    
C34   H9    S    
C62   C63   A    
C66   C68   S    
C56   H15   S    
C25   C26   A    
C39   C43   A    
C9    C36   A    
C6    C14   D    
C55   H33   S    
C51   C53   A    
C16   H39   S    
O18   P6    S    
C15   C31   D    
C46   C47   A    
O6    P7    D    
Ba1   O15   S    
C61   C62   A    
C30   P6    S    
C18   C37   A    
C66   Cl1   S    
Ba1   O5    S    
C52   H42   S    
C64   H43   S    
C25   C42   A    
O24   P4    S    
Ba1   O27   S    
C9    C10   A    
C35   C38   A    
O12   P2    S    
C16   H11   S    
C48   C49   A    
C36   C37   A    
C42   H25   S    
C17   C20   A    
C48   C58   S    
C62   H29   S    
C51   H31   S    
C10   C11   A    
C23   C34   S    
O1    P1    D    
C5    C14   S    
C31   P1    S    
Ba2   O27   S    
C60   P5    S    
Ba2   P4    S    
C4    C16   S    
O23   P4    D    
O15   P6    S    
O7    P7    S    
C70   N1    Am   
O2    P5    D    
C60   C65   A    
C29   C30   S    
Ba2   O4    S    
C1    H5    S    
C43   H26   S    
C54   C63   S    
C34   H8    S    
C69   Cl6   S    
C32   C33   S    
O21   P3    D    
Br8   C29   S    
C3    C8    D    
C1    C12   S    
Ba2   O25   S    
Ba1   O24   S    
C13   C39   A    
O20   P3    S    
C51   C58   A    
Br6   C56   S    
C19   C24   A    
Ba1   P2    S    
C47   H32   S    
C23   O7    S    
C18   C19   A    
Ba1   O19   S    
Br5   C56   S    
C10   C70   A    
C5    P8    S    
C57   C58   A    
C15   C30   S    
C59   H36   S    
C28   C40   S    
C68   Cl2   S    
Br7   C7    S    
C24   C25   A    
C61   C65   A    
C34   H10   S    
O8    P8    D    
C33   N2    S    
C22   C24   A    
O27   P7    S    
C3    C5    S    
C2    O13   D    
C47   C48   A    
O5    P2    S    
C11   C38   A    
C4    O22   S    
C11   H20   S    
C45   C56   S    
C49   C50   A    
C57   Cl7   S    
C6    C7    D    
C45   O3    S    
C35   C36   A    
Br4   C28   S    
C59   C63   A    
C14   H27   S    
C27   N2    Am   
C66   H2    S    
O25   P8    S    
C29   C33   D    
C21   H21   S    
C1    Cl4   S    
