data_mof_unit_66653.cif
_audit_creation_date              2012-12-11T14:17:44-0500
_audit_creation_method            fapswitch 2.2
_symmetry_space_group_name_H-M    P1
_symmetry_Int_Tables_number       1
_space_group_crystal_system       triclinic
_cell_length_a                    11.158045
_cell_length_b                    11.235562
_cell_length_c                    18.803272
_cell_angle_alpha                 90.340428
_cell_angle_beta                  89.560978
_cell_angle_gamma                 119.261574
_cell_volume                      2056.44224855

loop_
_atom_site_label
_atom_site_type_symbol
_atom_type_description
_atom_site_fract_x
_atom_site_fract_y
_atom_site_fract_z
_atom_type_partial_charge
C1    C     C_R   0.517533 0.459431 0.149204 0.539904
C2    C     C_R   0.545423 0.062721 0.147582 0.550792
C3    C     C_R   0.937992 0.478820 0.147681 0.543162
C4    C     C_R   0.453687 0.526531 0.856252 0.526020
C5    C     C_R   0.068685 0.547288 0.854521 0.549809
C6    C     C_R   0.477634 0.929941 0.855313 0.543669
C7    C     C_R   0.391445 0.936943 0.451806 -0.150166
C8    C     C_R   0.090320 0.475665 0.446699 -0.176640
C9    C     C_R   0.529616 0.602802 0.454197 -0.187119
C10   C     C_R   0.134138 0.496037 0.517370 -0.166968
C11   C     C_R   0.371551 0.886847 0.520414 -0.170102
C12   C     C_R   0.531531 0.618119 0.527642 -0.159139
C13   C     C_R   0.735748 0.977978 0.563057 -0.106717
C14   C     C_R   0.024733 0.753900 0.562851 -0.096946
C15   C     C_R   0.407336 0.261817 0.586783 -0.083186
C16   C     C_R   0.840512 0.607890 0.459096 -0.073030
C17   C     C_R   0.771605 0.161927 0.458904 -0.081846
C18   C     C_R   0.300602 0.226665 0.450886 -0.079506
C19   C     C_R   0.867525 0.073477 0.542252 -0.151496
C20   C     C_R   0.937433 0.797735 0.538310 -0.151956
C21   C     C_R   0.312097 0.132103 0.563592 -0.116618
C22   C     C_R   0.844774 0.725198 0.486173 -0.113763
C23   C     C_R   0.885253 0.164288 0.489669 -0.117311
C24   C     C_R   0.253049 0.115774 0.496906 -0.140228
C25   C     C_R   0.514461 0.453391 0.353278 0.518730
C26   C     C_R   0.550463 0.073830 0.356403 0.535338
C27   C     C_R   0.933811 0.480141 0.354434 0.507712
C28   C     C_R   0.456272 0.520516 0.646072 0.517076
C29   C     C_R   0.127588 0.581470 0.639143 0.542450
C30   C     C_R   0.456689 0.874436 0.638835 0.538067
C31   C     C_R   0.497019 0.973724 0.930597 -0.020500
C32   C     C_R   0.019983 0.516187 0.928496 -0.007055
C33   C     C_R   0.484250 0.528026 0.934104 -0.011337
C34   C     C_R   0.001123 0.496912 0.077162 -0.011686
C35   C     C_R   0.509618 0.991197 0.079105 -0.003669
C36   C     C_R   0.488791 0.514557 0.084087 -0.012259
C37   C     C_R   0.398261 0.989743 0.970572 0.024012
C38   C     C_R   0.988349 0.391196 0.962144 0.024150
C39   C     C_R   0.603565 0.632163 0.973523 0.030830
C40   C     C_R   0.004764 0.388943 0.037785 0.028597
C41   C     C_R   0.388857 0.963733 0.044769 0.041358
C42   C     C_R   0.591601 0.633758 0.050813 0.041197
C43   C     C_R   0.614284 0.986421 0.039921 -0.142556
C44   C     C_R   0.019790 0.613541 0.041409 -0.149991
C45   C     C_R   0.373906 0.426908 0.045476 -0.159876
C46   C     C_R   0.040986 0.627163 0.970072 -0.148838
C47   C     C_R   0.602362 0.966974 0.967542 -0.151547
C48   C     C_R   0.369908 0.434848 0.973168 -0.158953
C49   C     C_R   0.319581 0.045171 0.942849 0.021954
C50   C     C_R   0.938464 0.268037 0.923299 0.032988
C51   C     C_R   0.736345 0.729129 0.943430 0.002530
C52   C     C_R   0.017600 0.277016 0.067849 0.014125
C53   C     C_R   0.267384 0.933256 0.082332 0.028893
C54   C     C_R   0.690172 0.747828 0.092256 0.021473
C55   C     C_R   0.210539 0.035378 0.983692 -0.144271
C56   C     C_R   0.949327 0.161435 0.953433 -0.143604
C57   C     C_R   0.838112 0.820725 0.989123 -0.136698
C58   C     C_R   0.995683 0.170339 0.022413 -0.149357
C59   C     C_R   0.179872 0.971232 0.049972 -0.154311
C60   C     C_R   0.812752 0.832217 0.059958 -0.136524
C61   C     C_R   0.481935 0.911316 0.563509 -0.004963
C62   C     C_R   0.094916 0.569843 0.563191 -0.002576
C63   C     C_R   0.492695 0.506277 0.573148 0.005171
C64   C     C_R   0.987501 0.505484 0.426559 -0.002794
C65   C     C_R   0.524230 0.025911 0.429055 0.014773
C66   C     C_R   0.476943 0.473191 0.425706 -0.005208
C67   C     C_R   0.617766 0.978856 0.534134 0.037732
C68   C     C_R   0.023105 0.634642 0.534586 0.040528
C69   C     C_R   0.440878 0.375865 0.544052 0.022248
C70   C     C_R   0.946859 0.578307 0.473756 0.024291
C71   C     C_R   0.637654 0.057212 0.473887 0.024476
C72   C     C_R   0.406727 0.357726 0.471960 0.038812
Cr1   Cr    Cr6+3 0.768550 0.541320 0.250660 0.963401
Cr2   Cr    Cr6+3 0.458680 0.227230 0.250660 0.964348
Cr3   Cr    Cr6+3 0.772770 0.231450 0.250660 0.950146
Cr4   Cr    Cr6+3 0.541320 0.768550 0.749340 0.945981
Cr5   Cr    Cr6+3 0.227230 0.458680 0.749340 0.969191
Cr6   Cr    Cr6+3 0.231450 0.772770 0.749340 0.945641
H1    H     H_    0.708755 0.004191 0.064236 0.160246
H2    H     H_    0.012132 0.694836 0.067571 0.156363
H3    H     H_    0.288393 0.344780 0.070193 0.151240
H4    H     H_    0.074356 0.726926 0.948312 0.145367
H5    H     H_    0.679631 0.952217 0.940390 0.153233
H6    H     H_    0.275151 0.361684 0.947820 0.156796
H7    H     H_    0.150533 0.078469 0.963356 0.105643
H8    H     H_    0.918874 0.069117 0.923682 0.096617
H9    H     H_    0.939223 0.888570 0.969769 0.109674
H10   H     H_    0.008866 0.089509 0.041610 0.107008
H11   H     H_    0.092993 0.958130 0.079164 0.082538
H12   H     H_    0.891212 0.904193 0.093062 0.084815
H13   H     H_    0.303940 0.910198 0.417757 0.123760
H14   H     H_    0.128468 0.427750 0.409519 0.112543
H15   H     H_    0.569376 0.691251 0.419850 0.114752
H16   H     H_    0.199863 0.456849 0.535756 0.142073
H17   H     H_    0.270779 0.828990 0.540329 0.118379
H18   H     H_    0.560643 0.716817 0.549014 0.131396
H19   H     H_    0.730807 0.903777 0.600855 0.145269
H20   H     H_    0.098549 0.822532 0.600710 0.137107
H21   H     H_    0.451450 0.275400 0.638934 0.105704
H22   H     H_    0.759539 0.544299 0.424146 0.169839
H23   H     H_    0.786798 0.240937 0.423313 0.165115
H24   H     H_    0.246602 0.208715 0.401182 0.133443
H25   H     H_    0.957051 0.081235 0.568220 0.104919
H26   H     H_    0.942087 0.887124 0.560918 0.098228
H27   H     H_    0.280412 0.045806 0.598453 0.120618
H28   H     H_    0.781517 0.764273 0.465530 0.124803
H29   H     H_    0.987529 0.231850 0.471825 0.123950
H30   H     H_    0.172844 0.016736 0.479910 0.114814
O1    O     O_R   0.910960 0.572410 0.171010 -0.539737
O2    O     O_R   0.427590 0.338550 0.171010 -0.532134
O3    O     O_R   0.661450 0.089040 0.171010 -0.563804
O4    O     O_R   0.572410 0.910960 0.828990 -0.550143
O5    O     O_R   0.338550 0.427590 0.828990 -0.535182
O6    O     O_R   0.089040 0.661450 0.828990 -0.541597
O7    O     O_R   0.639750 0.528530 0.175600 -0.515709
O8    O     O_R   0.471470 0.111220 0.175600 -0.494855
O9    O     O_R   0.888780 0.360250 0.175600 -0.519771
O10   O     O_R   0.528530 0.639750 0.824400 -0.526014
O11   O     O_R   0.111220 0.471470 0.824400 -0.493428
O12   O     O_R   0.360250 0.888780 0.824400 -0.493595
O13   O     O_R   0.909330 0.572400 0.331540 -0.538058
O14   O     O_R   0.427600 0.336930 0.331540 -0.553754
O15   O     O_R   0.663070 0.090670 0.331540 -0.551641
O16   O     O_R   0.572400 0.909330 0.668460 -0.546339
O17   O     O_R   0.336930 0.427600 0.668460 -0.533645
O18   O     O_R   0.090670 0.663070 0.668460 -0.552446
O19   O     O_R   0.638240 0.528520 0.324410 -0.524602
O20   O     O_R   0.471480 0.109720 0.324410 -0.510521
O21   O     O_R   0.890280 0.361760 0.324410 -0.532336
O22   O     O_R   0.528520 0.638240 0.675590 -0.527190
O23   O     O_R   0.109720 0.471480 0.675590 -0.499665
O24   O     O_R   0.361760 0.890280 0.675590 -0.536095
O25   O     O_3   0.666667 0.333333 0.250630 -0.237795
O26   O     O_3   0.333333 0.666667 0.749370 -0.277198
C73   C     C_3   0.365803 0.139173 0.879098 -0.234691
C74   C     C_3   0.251322 0.093952 0.824352 -0.291725
C75   C     C_3   0.307393 0.151406 0.751499 -0.427303
H31   H     H_    0.368351 0.105138 0.730389 0.171641
H32   H     H_    0.220961 0.128024 0.714901 0.128270
H33   H     H_    0.374776 0.263280 0.754827 0.192741
H34   H     H_    0.196993 0.981624 0.820465 0.192596
H35   H     H_    0.177796 0.128850 0.841057 0.143873
H36   H     H_    0.394475 0.243320 0.897479 0.146956
H37   H     H_    0.460778 0.149178 0.854435 0.133969
C76   C     C_3   0.849512 0.238929 0.857588 -0.232415
C77   C     C_3   0.892581 0.179042 0.795130 -0.286324
C78   C     C_3   0.828045 0.190544 0.726228 -0.398232
H38   H     H_    0.863707 0.299001 0.713322 0.179461
H39   H     H_    0.858092 0.144285 0.682375 0.154004
H40   H     H_    0.714491 0.137065 0.731430 0.190762
H41   H     H_    0.005875 0.231393 0.788646 0.193157
H42   H     H_    0.857272 0.069485 0.805069 0.141340
H43   H     H_    0.742770 0.165023 0.872334 0.141573
H44   H     H_    0.842761 0.329570 0.840418 0.132536
C79   C     C_3   0.774317 0.741742 0.864661 -0.241786
C80   C     C_3   0.923117 0.823030 0.839381 -0.352896
C81   C     C_3   0.931150 0.804162 0.758856 -0.401823
H45   H     H_    0.891675 0.694795 0.745742 0.189399
H46   H     H_    0.869218 0.841271 0.730027 0.125163
H47   H     H_    0.038347 0.862061 0.739251 0.146208
H48   H     H_    0.963393 0.932982 0.850117 0.112713
H49   H     H_    0.986691 0.790044 0.867621 0.198395
H50   H     H_    0.733141 0.637012 0.842557 0.165326
H51   H     H_    0.733446 0.804907 0.841539 0.210114
C82   C     C_3   0.054477 0.266630 0.145894 -0.250252
C83   C     C_3   0.110936 0.171048 0.167626 -0.346341
C84   C     C_3   0.157349 0.196906 0.245110 -0.399557
H52   H     H_    0.234373 0.305705 0.253038 0.191516
H53   H     H_    0.069532 0.173693 0.281074 0.107716
H54   H     H_    0.202028 0.131295 0.259871 0.156739
H55   H     H_    0.029225 0.063713 0.164701 0.117885
H56   H     H_    0.194560 0.177875 0.133937 0.197111
H57   H     H_    0.122874 0.371186 0.166649 0.144081
H58   H     H_    0.957521 0.214448 0.175955 0.206952
C85   C     C_3   0.227492 0.864591 0.156030 -0.240475
C86   C     C_3   0.278232 0.761484 0.171895 -0.296579
C87   C     C_3   0.235428 0.701030 0.246174 -0.448600
H59   H     H_    0.284820 0.782230 0.287092 0.152498
H60   H     H_    0.122876 0.652073 0.252477 0.201220
H61   H     H_    0.267685 0.623026 0.254679 0.125619
H62   H     H_    0.238133 0.678715 0.131852 0.163238
H63   H     H_    0.390917 0.808160 0.170203 0.154370
H64   H     H_    0.256810 0.940540 0.199315 0.167112
H65   H     H_    0.114374 0.810035 0.161466 0.137589
C88   C     C_3   0.687579 0.766271 0.174104 -0.256059
C89   C     C_3   0.731618 0.903170 0.209156 -0.321747
C90   C     C_3   0.809342 0.920700 0.278985 -0.445835
H66   H     H_    0.743767 0.839494 0.317334 0.155519
H67   H     H_    0.905298 0.916044 0.269316 0.120233
H68   H     H_    0.837809 0.021090 0.303127 0.180417
H69   H     H_    0.797860 0.986552 0.172912 0.180562
H70   H     H_    0.635750 0.902977 0.224961 0.209578
H71   H     H_    0.583734 0.697119 0.196313 0.142139
H72   H     H_    0.767694 0.743385 0.193846 0.211082

loop_
_geom_bond_atom_site_label_1
_geom_bond_atom_site_label_2
_ccdc_geom_bond_type
C2    C35   S    
C39   C51   A    
C83   H56   S    
C82   C83   S    
C55   C59   A    
C5    O6    A    
C36   C42   A    
C78   H38   S    
Cr3   O9    S    
C88   H72   S    
C76   C77   S    
C53   C59   A    
C73   C74   S    
C84   H53   S    
Cr6   O6    S    
Cr6   O12   S    
C86   H63   S    
C75   H32   S    
C51   C79   S    
C33   C39   A    
C5    O11   A    
Cr3   O15   S    
C80   C81   S    
C78   H39   S    
Cr5   O23   S    
C52   C82   S    
C32   C46   A    
C10   H16   S    
C82   H57   S    
Cr2   O25   S    
C18   H24   S    
C89   H69   S    
C17   H23   S    
C9    C66   A    
C90   H68   S    
C74   H35   S    
C3    O9    A    
C46   H4    S    
Cr4   O22   S    
C81   H45   S    
Cr2   O20   S    
C63   C69   A    
C87   H60   S    
C54   C88   S    
C51   C57   A    
C47   H5    S    
C84   H54   S    
C35   C43   A    
C25   O14   A    
C28   O22   A    
C8    H14   S    
C5    C32   S    
C76   H43   S    
C73   H36   S    
C6    C31   S    
C49   C73   S    
C80   H49   S    
C83   H55   S    
C81   H46   S    
C31   C47   A    
C29   O18   A    
C13   H19   S    
Cr3   O3    S    
C4    O10   A    
C10   C62   A    
C19   H25   S    
Cr5   O5    S    
C6    O12   A    
C44   C46   A    
C14   H20   S    
C39   C42   A    
C18   C72   A    
C86   H62   S    
C15   C69   A    
C75   H33   S    
C66   C72   A    
C2    O3    A    
C38   C50   A    
C13   C19   A    
Cr4   O16   S    
C89   H70   S    
C14   C20   A    
C4    O5    A    
C44   H2    S    
C78   H40   S    
C16   C70   A    
C18   C24   A    
C88   H71   S    
C84   H52   S    
C12   C63   A    
Cr4   O26   S    
C16   H22   S    
C57   C60   A    
C54   C60   A    
C3    C34   S    
C79   H50   S    
C82   H58   S    
C65   C71   A    
Cr4   O10   S    
C48   H6    S    
C31   C37   A    
C59   H11   S    
C55   H7    S    
C69   C72   A    
C19   C23   A    
C64   C70   A    
Cr1   O19   S    
C74   H34   S    
C1    O2    A    
C7    C65   A    
C37   C49   A    
C61   C67   A    
C56   H8    S    
C85   C86   S    
Cr4   O4    S    
C87   H61   S    
C23   H29   S    
C34   C44   A    
C36   C45   A    
C17   C23   A    
C26   O20   A    
Cr6   O26   S    
C41   C53   A    
C52   C58   A    
C8    C64   A    
C77   H42   S    
C76   H44   S    
C50   C76   S    
C22   H28   S    
C73   H37   S    
Cr2   O14   S    
C30   O16   A    
C80   H48   S    
C17   C71   A    
C81   H47   S    
C32   C38   A    
C83   C84   S    
C27   O21   A    
C34   C40   A    
C21   C24   A    
Cr5   O26   S    
C20   C22   A    
Cr6   O18   S    
C9    H15   S    
C7    H13   S    
Cr1   O25   S    
Cr5   O17   S    
C28   O17   A    
C53   C85   S    
Cr6   O24   S    
C85   H64   S    
C77   C78   S    
C13   C67   A    
C45   C48   A    
C11   H17   S    
C33   C48   A    
C4    C33   S    
C29   C62   S    
C86   C87   S    
C16   C22   A    
C26   C65   S    
C6    O4    A    
C45   H3    S    
C25   C66   S    
C15   H21   S    
C74   C75   S    
Cr5   O11   S    
C49   C55   A    
C58   H10   S    
Cr2   O2    S    
C2    O8    A    
Cr3   O25   S    
Cr1   O1    S    
C20   H26   S    
C60   H12   S    
C79   H51   S    
C75   H31   S    
Cr1   O13   S    
Cr1   O7    S    
C62   C68   A    
C25   O19   A    
C90   H66   S    
C40   C52   A    
Cr2   O8    S    
C42   C54   A    
C38   C40   A    
C88   C89   S    
C29   O23   A    
C43   C47   A    
C3    O1    A    
C30   O24   A    
C56   C58   A    
C67   C71   A    
C11   C61   A    
C37   C41   A    
C35   C41   A    
C9    C12   A    
C50   C56   A    
C90   H67   S    
C27   C64   S    
C77   H41   S    
C28   C63   S    
C57   H9    S    
C15   C21   A    
C8    C10   A    
C87   H59   S    
C26   O15   A    
C30   C61   S    
C79   C80   S    
C27   O13   A    
C68   C70   A    
C14   C68   A    
C12   H18   S    
C1    O7    A    
C89   C90   S    
C43   H1    S    
C21   H27   S    
C24   H30   S    
Cr3   O21   S    
C1    C36   S    
C7    C11   A    
C85   H65   S    
