data_mof_unit_48840.cif
_audit_creation_date              2012-12-10T16:57:49-0500
_audit_creation_method            fapswitch 2.2
_symmetry_space_group_name_H-M    P1
_symmetry_Int_Tables_number       1
_space_group_crystal_system       triclinic
_cell_length_a                    7.926572
_cell_length_b                    8.684718
_cell_length_c                    19.288383
_cell_angle_alpha                 95.377171
_cell_angle_beta                  82.57344
_cell_angle_gamma                 92.004496
_cell_volume                      1310.52873458

loop_
_atom_site_label
_atom_site_type_symbol
_atom_type_description
_atom_site_fract_x
_atom_site_fract_y
_atom_site_fract_z
_atom_type_partial_charge
C1    C     C_R   0.542913 0.792979 0.497249 0.921747
C2    C     C_R   0.653468 0.496120 0.165942 0.111300
C3    C     C_R   0.520635 0.546705 0.855861 -0.065442
C4    C     C_R   0.509961 0.560709 0.145551 -0.068677
C5    C     C_R   0.639846 0.454179 0.811145 0.040620
C6    C     C_R   0.361231 0.575980 0.192602 0.110920
C7    C     C_R   0.627591 0.438460 0.738521 0.390544
C8    C     C_R   0.368928 0.578622 0.264181 0.366190
C9    C     C_R   0.489827 0.503497 0.712471 -0.213540
C10   C     C_R   0.511333 0.518179 0.288241 -0.221208
C11   C     C_R   0.499260 0.566063 0.071071 0.312155
C12   C     C_R   0.457640 0.206769 0.502740 0.938571
C13   C     C_R   0.522544 0.553672 0.930832 0.329922
C14   C     C_3   0.179612 0.598271 0.738953 -0.342980
C15   C     C_3   0.166430 0.755944 0.711958 -0.864851
C16   C     C_3   0.789678 0.371511 0.258533 -0.383970
C17   C     C_3   0.721691 0.212111 0.275466 -0.865716
C18   C     C_3   0.249950 0.703432 0.882809 -0.372876
C19   C     C_3   0.124052 0.602830 0.927165 -0.877226
C20   C     C_3   0.795277 0.443107 0.108004 -0.401937
C21   C     C_3   0.779819 0.271304 0.082563 -0.823752
C22   C     C_3   0.773012 0.365338 0.841237 -0.407581
C23   C     C_2   0.558766 0.949217 0.481598 -0.056041
C24   C     C_3   0.728089 0.192610 0.839080 -0.805655
C25   C     C_3   0.198563 0.517013 0.167184 -0.416876
C26   C     C_3   0.200627 0.338224 0.160951 -0.875950
C27   C     C_3   0.690189 0.981938 0.418678 -0.409151
C28   C     C_3   0.679153 0.865066 0.354676 -0.861297
C29   C     C_3   0.329682 0.010964 0.584863 -0.416874
C30   C     C_3   0.285000 0.144753 0.640998 -0.836043
C31   C     C_2   0.444415 0.050257 0.518078 -0.045001
C32   C     C_R   0.496260 0.501263 0.635020 0.907600
C33   C     C_R   0.503614 0.502462 0.365007 0.887638
C34   C     C_R   0.354926 0.573663 0.760196 0.052185
C35   C     C_R   0.651928 0.467421 0.237745 0.098003
C36   C     C_R   0.378690 0.607267 0.831460 0.117871
H1    H     H_    0.240279 0.756441 0.659888 0.265452
H2    H     H_    0.854284 0.431964 0.301138 0.223774
H3    H     H_    0.095981 0.491459 0.897302 0.253479
H4    H     H_    0.175356 0.578488 0.975697 0.269983
H5    H     H_    0.003006 0.664781 0.943204 0.249548
H6    H     H_    0.316664 0.786665 0.917741 0.213380
H7    H     H_    0.176803 0.779502 0.855538 0.211080
H8    H     H_    0.820326 0.196770 0.120490 0.249924
H9    H     H_    0.647261 0.238093 0.074102 0.275278
H10   H     H_    0.863393 0.247610 0.032105 0.246360
H11   H     H_    0.801933 0.510410 0.061639 0.211792
H12   H     H_    0.031444 0.778894 0.707595 0.257103
H13   H     H_    0.917900 0.472020 0.124738 0.197416
H14   H     H_    0.600875 0.173639 0.869051 0.265793
H15   H     H_    0.727332 0.141352 0.784210 0.277413
H16   H     H_    0.823941 0.132257 0.863202 0.237965
H17   H     H_    0.901904 0.382879 0.813188 0.173891
H18   H     H_    0.786584 0.407090 0.896365 0.214870
H19   H     H_    0.326477 0.292321 0.138094 0.279092
H20   H     H_    0.171847 0.295351 0.213769 0.249050
H21   H     H_    0.108555 0.287188 0.126416 0.259476
H22   H     H_    0.087355 0.560504 0.203770 0.211671
H23   H     H_    0.217168 0.850273 0.746816 0.244444
H24   H     H_    0.185275 0.560008 0.115801 0.203076
H25   H     H_    0.853788 0.355728 0.707569 0.332777
H26   H     H_    0.154821 0.533488 0.316087 0.347631
H27   H     H_    0.731614 0.753374 0.363393 0.283787
H28   H     H_    0.545418 0.849435 0.343408 0.270883
H29   H     H_    0.757880 0.904059 0.307635 0.247423
H30   H     H_    0.674702 0.095021 0.400269 0.221589
H31   H     H_    0.819996 0.980236 0.434486 0.245408
H32   H     H_    0.403036 0.204855 0.654981 0.263803
H33   H     H_    0.197931 0.226360 0.623705 0.285617
H34   H     H_    0.142242 0.503706 0.700941 0.221176
H35   H     H_    0.217926 0.098491 0.689088 0.238448
H36   H     H_    0.209753 0.955325 0.570195 0.238285
H37   H     H_    0.399744 0.930794 0.611564 0.200673
H38   H     H_    0.938281 0.291652 0.414218 0.325165
H39   H     H_    0.062066 0.720509 0.578168 0.324001
H40   H     H_    0.078933 0.588867 0.783820 0.200485
H41   H     H_    0.825085 0.151855 0.294632 0.245669
H42   H     H_    0.607796 0.219625 0.315228 0.257398
H43   H     H_    0.684295 0.144285 0.228001 0.262733
H44   H     H_    0.892498 0.350197 0.216334 0.227610
N1    N     N_R   0.463855 0.429405 0.964444 -0.167657
N2    N     N_R   0.559364 0.690759 0.037474 -0.192852
N3    N     N_R   0.453721 0.435347 0.033532 -0.174421
N4    N     N_R   0.569712 0.684974 0.967942 -0.200155
N5    N     N_2   0.950330 0.457950 0.481240 0.187768
N6    N     N_2   0.049670 0.542050 0.518760 0.189085
O1    O     O_R   0.389250 0.738570 0.504600 -0.652801
O2    O     O_3   0.228643 0.627069 0.309649 -0.744470
O3    O     O_3   0.029790 0.346413 0.437813 -0.675051
O4    O     O_3   0.969841 0.657265 0.559460 -0.661053
O5    O     O_R   0.610750 0.261430 0.495400 -0.649450
O6    O     O_R   0.678400 0.711620 0.492580 -0.573906
O7    O     O_R   0.321600 0.288380 0.507420 -0.573053
O8    O     O_R   0.355380 0.513500 0.607880 -0.661986
O9    O     O_R   0.644620 0.486500 0.392120 -0.657776
O10   O     O_R   0.644530 0.486550 0.595850 -0.514878
O11   O     O_R   0.355470 0.513450 0.404150 -0.536829
O12   O     O_3   0.739860 0.348715 0.691964 -0.746528
Zn1   Zn    Zn3+2 0.306930 0.517990 0.508030 1.030251
Zn2   Zn    Zn3+2 0.693070 0.482010 0.491970 1.041269

loop_
_geom_bond_atom_site_label_1
_geom_bond_atom_site_label_2
_ccdc_geom_bond_type
C2    C35   A    
C1    O1    A    
C32   O8    A    
C24   H16   S    
C7    O12   S    
C12   O5    A    
H25   O12   S    
C26   H19   S    
C30   H35   S    
C22   H18   S    
N5    N6    D    
C13   N4    A    
C20   H13   S    
C3    C36   A    
H38   O3    S    
C18   H6    S    
C16   C35   S    
C6    C25   S    
C29   H37   S    
C13   N1    A    
C17   H43   S    
C18   C19   S    
C15   H1    S    
C9    C32   S    
N1    N3    A    
C5    C22   S    
C16   C17   S    
C10   C35   A    
C25   H24   S    
C23   C27   S    
O5    Zn2   S    
O7    Zn1   S    
C21   H9    S    
H39   O4    S    
C29   H36   S    
C24   H15   S    
C14   H34   S    
C15   H12   S    
C33   O9    A    
O11   Zn1   S    
C22   H17   S    
O1    Zn1   S    
C11   N2    A    
C24   H14   S    
C2    C20   S    
C4    C6    A    
N6    O4    S    
C5    C7    A    
N5    O3    S    
O9    Zn2   S    
C6    C8    A    
C11   N3    A    
C25   C26   S    
H26   O2    S    
C8    O2    S    
C23   C31   D    
C3    C13   S    
C2    C4    A    
C29   C30   S    
C21   H8    S    
C17   H41   S    
C4    C11   S    
N6    Zn1   S    
C19   H3    S    
C28   H28   S    
C32   O10   A    
C1    C23   S    
C1    O6    A    
N2    N4    A    
C12   C31   S    
C9    C34   A    
C22   C24   S    
C12   O7    A    
C25   H22   S    
C30   H33   S    
O6    Zn2   S    
C21   H10   S    
C7    C9    A    
C14   H40   S    
C15   H23   S    
C3    C5    A    
C26   H20   S    
C14   C34   S    
C28   H29   S    
C29   C31   S    
N5    Zn2   S    
C18   H7    S    
O8    Zn1   S    
O10   Zn2   S    
C17   H42   S    
C10   C33   S    
C34   C36   A    
C26   H21   S    
C20   H11   S    
C27   H31   S    
C19   H4    S    
C28   H27   S    
C20   C21   S    
C8    C10   A    
C27   C28   S    
C27   H30   S    
C14   C15   S    
C33   O11   A    
C16   H44   S    
C18   C36   S    
C30   H32   S    
C19   H5    S    
C16   H2    S    
