data_mof_unit_27154.cif
_audit_creation_date              2012-12-10T18:47:07-0500
_audit_creation_method            fapswitch 2.2
_symmetry_space_group_name_H-M    P1
_symmetry_Int_Tables_number       1
_space_group_crystal_system       triclinic
_cell_length_a                    10.554111
_cell_length_b                    9.829867
_cell_length_c                    15.032622
_cell_angle_alpha                 90.534234
_cell_angle_beta                  89.941393
_cell_angle_gamma                 89.373404
_cell_volume                      1559.40496023

loop_
_atom_site_label
_atom_site_type_symbol
_atom_type_description
_atom_site_fract_x
_atom_site_fract_y
_atom_site_fract_z
_atom_type_partial_charge
C1    C     C_R   0.260457 0.501299 0.512808 0.905351
C2    C     C_R   0.129226 0.504090 0.543089 -0.191248
C3    C     C_R   0.541941 0.072426 0.572345 -0.058527
C4    C     C_R   0.456635 0.927572 0.428031 -0.064248
C5    C     C_R   0.456683 0.071447 0.428021 -0.007598
C6    C     C_R   0.541961 0.928640 0.572332 -0.003030
C7    C     C_R   0.501174 0.499238 0.326608 0.957491
C8    C     C_R   0.499000 0.500769 0.673366 0.970686
C9    C     C_R   0.541111 0.386692 0.813329 -0.194454
C10   C     C_R   0.460687 0.613740 0.186465 -0.223791
C11   C     C_R   0.499412 0.502461 0.769099 -0.212940
C12   C     C_R   0.739259 0.499124 0.513423 0.910582
C13   C     C_R   0.501562 0.497680 0.230772 -0.243911
C14   C     C_R   0.458859 0.618484 0.815759 0.676475
C15   C     C_R   0.542441 0.381752 0.184083 0.655677
C16   C     C_R   0.459231 0.618709 0.908298 -0.158450
C17   C     C_R   0.543004 0.381866 0.091506 -0.150123
C18   C     C_R   0.502173 0.501057 0.953482 -0.053646
C19   C     C_R   0.500323 0.499616 0.046315 -0.050389
C20   C     C_R   0.546141 0.384670 0.905623 -0.001074
C21   C     C_R   0.456336 0.616009 0.094156 0.005584
C22   C     C_R   0.415651 0.733492 0.956075 0.675046
C23   C     C_R   0.412357 0.732760 0.048779 -0.175030
C24   C     C_R   0.587117 0.267292 0.043701 0.671700
C25   C     C_2   0.358978 0.854212 0.095774 1.002468
C26   C     C_2   0.644484 0.146937 0.903895 1.003518
C27   C     C_2   0.142962 0.266295 0.605683 0.971464
C28   C     C_2   0.857649 0.735499 0.608116 0.945708
C29   C     C_2   0.874801 0.241877 0.559662 1.033071
C30   C     C_2   0.123077 0.761681 0.551827 1.040134
C31   C     C_R   0.590612 0.268116 0.950976 -0.175632
C32   C     C_R   0.070102 0.380532 0.564512 -0.102990
C33   C     C_R   0.929509 0.621921 0.563835 -0.078630
C34   C     C_R   0.938890 0.374357 0.554897 -0.087824
C35   C     C_R   0.060432 0.627987 0.552707 -0.104246
C36   C     C_R   0.870385 0.497543 0.543723 -0.195355
F1    F     F_    0.415123 0.728909 0.770778 -0.570671
F2    F     F_    0.585414 0.271028 0.229095 -0.588350
F3    F     F_    0.371966 0.845552 0.912816 -0.548676
F4    F     F_    0.631073 0.155363 0.086966 -0.553302
H1    H     H_    0.568867 0.298012 0.774700 0.210707
H2    H     H_    0.833636 0.936494 0.629272 0.353744
H3    H     H_    0.818689 0.074129 0.492877 0.364108
H4    H     H_    0.165202 0.927807 0.480257 0.359224
H5    H     H_    0.432857 0.702424 0.225058 0.204271
H6    H     H_    0.575293 0.126990 0.630345 0.178758
H7    H     H_    0.421463 0.872922 0.370561 0.153741
H8    H     H_    0.421734 0.125387 0.370521 0.174429
H9    H     H_    0.575171 0.874944 0.630341 0.199794
H10   H     H_    0.235622 0.929050 0.186949 0.357270
H11   H     H_    0.767548 0.072858 0.812228 0.366586
H12   H     H_    0.170379 0.065021 0.619709 0.378188
N1    N     N_R   0.500000 0.857200 0.500000 -0.093596
N2    N     N_R   0.500000 0.142800 0.500000 -0.096355
O1    O     O_R   0.316770 0.614620 0.499990 -0.614033
O2    O     O_R   0.264409 0.838931 0.160031 -0.801147
O3    O     O_2   0.609106 0.033003 0.923496 -0.494830
O4    O     O_R   0.738522 0.162791 0.839307 -0.777218
O5    O     O_2   0.226543 0.291683 0.659489 -0.596826
O6    O     O_R   0.115296 0.131095 0.585261 -0.770031
O7    O     O_2   0.774310 0.708880 0.661633 -0.627025
O8    O     O_R   0.886915 0.871193 0.591987 -0.767789
O9    O     O_2   0.819773 0.209943 0.627781 -0.639820
O10   O     O_R   0.874124 0.156529 0.484797 -0.714106
O11   O     O_2   0.189381 0.796589 0.614474 -0.564689
O12   O     O_R   0.683230 0.385380 0.500010 -0.607608
O13   O     O_R   0.109652 0.844565 0.477323 -0.737000
O14   O     O_R   0.683230 0.614620 0.500010 -0.607908
O15   O     O_R   0.316770 0.385380 0.499990 -0.614816
O16   O     O_R   0.499980 0.614680 0.367850 -0.637262
O17   O     O_R   0.500020 0.385320 0.632150 -0.627661
O18   O     O_R   0.500020 0.614680 0.632150 -0.554317
O19   O     O_R   0.499980 0.385320 0.367850 -0.564619
O20   O     O_2   0.395160 0.967904 0.076325 -0.497860
Zn1   Zn    Zn3+2 0.500000 0.653120 0.500000 1.038218
Zn2   Zn    Zn3+2 0.500000 0.346880 0.500000 1.036653

loop_
_geom_bond_atom_site_label_1
_geom_bond_atom_site_label_2
_ccdc_geom_bond_type
C2    C35   A    
C29   O9    D    
C4    N1    A    
C25   O2    S    
C3    C6    A    
C7    O16   A    
C7    O19   A    
O14   Zn1   S    
C12   O14   A    
C30   C35   S    
C19   C21   A    
C25   O20   D    
C27   O6    S    
O17   Zn2   S    
C3    N2    A    
C33   C36   A    
O15   Zn2   S    
C2    C32   A    
C1    C2    S    
H12   O6    S    
C17   C19   A    
C12   C36   S    
H2    O8    S    
C18   C20   A    
C30   O13   S    
O1    Zn1   S    
C28   O7    D    
C29   O10   S    
C26   C31   S    
N1    Zn1   S    
O18   Zn1   S    
H3    O10   S    
C10   C21   A    
C5    H8    S    
C8    O18   A    
C17   C24   A    
C5    N2    A    
C11   C14   A    
C18   C19   A    
C12   O12   A    
C29   C34   S    
C1    O15   A    
C32   C34   A    
C15   F2    S    
C26   O4    S    
C9    C20   A    
O12   Zn2   S    
C10   H5    S    
H11   O4    S    
C9    C11   A    
N2    Zn2   S    
C28   C33   S    
C21   C23   A    
O19   Zn2   S    
C14   C16   A    
C6    N1    A    
C15   C17   A    
C24   F4    S    
C8    O17   A    
C16   C22   A    
C27   C32   S    
C4    C5    A    
C10   C13   A    
C3    H6    S    
C9    H1    S    
C13   C15   A    
C1    O1    A    
C24   C31   A    
C27   O5    D    
C14   F1    S    
C8    C11   S    
C22   F3    S    
C33   C35   A    
C34   C36   A    
C23   C25   S    
C6    H9    S    
C26   O3    D    
H10   O2    S    
C30   O11   D    
C7    C13   S    
C16   C18   A    
O16   Zn1   S    
C22   C23   A    
H4    O13   S    
C4    H7    S    
C20   C31   A    
C28   O8    S    
