data_mof_unit_31194.cif
_audit_creation_date              2012-12-11T15:20:10-0500
_audit_creation_method            fapswitch 2.2
_symmetry_space_group_name_H-M    P1
_symmetry_Int_Tables_number       1
_space_group_crystal_system       triclinic
_cell_length_a                    16.721545
_cell_length_b                    16.72186
_cell_length_c                    43.227082
_cell_angle_alpha                 89.999578
_cell_angle_beta                  90.000854
_cell_angle_gamma                 120.000488
_cell_volume                      10467.5586022

loop_
_atom_site_label
_atom_site_type_symbol
_atom_type_description
_atom_site_fract_x
_atom_site_fract_y
_atom_site_fract_z
_atom_type_partial_charge
C1    C     C_R   0.584173 0.426328 0.794431 0.579387
C2    C     C_R   0.842158 0.415828 0.705570 0.579398
C3    C     C_R   0.573679 0.157864 0.794436 0.579395
C4    C     C_R   0.584165 0.426331 0.705572 0.579408
C5    C     C_R   0.842143 0.415817 0.794434 0.579364
C6    C     C_R   0.573674 0.157855 0.705566 0.579425
C7    C     C_R   0.426316 0.584196 0.294441 0.579360
C8    C     C_R   0.415822 0.842149 0.205567 0.579377
C9    C     C_R   0.157872 0.573679 0.294438 0.579341
C10   C     C_R   0.426321 0.584187 0.205563 0.579373
C11   C     C_R   0.415819 0.842142 0.294435 0.579316
C12   C     C_R   0.157859 0.573676 0.205566 0.579401
C13   C     C_R   0.142551 0.540248 0.119338 0.279370
C14   C     C_R   0.397632 0.857277 0.380665 0.279577
C15   C     C_R   0.459784 0.602435 0.119336 0.279382
C16   C     C_R   0.142737 0.540224 0.380665 0.279509
C17   C     C_R   0.397700 0.857410 0.119340 0.279489
C18   C     C_R   0.459810 0.602535 0.380668 0.279578
C19   C     C_R   0.540184 0.142433 0.619341 0.279247
C20   C     C_R   0.857376 0.397638 0.880661 0.279231
C21   C     C_R   0.602071 0.459671 0.619344 0.279207
C22   C     C_R   0.540207 0.142543 0.880662 0.279425
C23   C     C_R   0.857513 0.397817 0.619344 0.279202
C24   C     C_R   0.602196 0.459714 0.880661 0.279268
C25   C     C_R   0.168704 0.543838 0.150462 0.245424
C26   C     C_R   0.375107 0.831178 0.349537 0.245347
C27   C     C_R   0.456229 0.624960 0.150466 0.245271
C28   C     C_R   0.168781 0.543759 0.349531 0.245430
C29   C     C_R   0.375145 0.831270 0.150464 0.245408
C30   C     C_R   0.456357 0.625066 0.349531 0.245371
C31   C     C_R   0.543759 0.168604 0.650462 0.245418
C32   C     C_R   0.831260 0.375097 0.849534 0.245209
C33   C     C_R   0.624687 0.456042 0.650458 0.245236
C34   C     C_R   0.543741 0.168653 0.849536 0.245434
C35   C     C_R   0.831299 0.375237 0.650461 0.245323
C36   C     C_R   0.624767 0.456064 0.849542 0.245338
C37   C     C_R   0.042714 0.569704 0.166300 0.167632
C38   C     C_R   0.526934 0.957263 0.333722 0.167663
C39   C     C_R   0.430153 0.473004 0.166267 0.167684
C40   C     C_R   0.042919 0.569899 0.333751 0.167630
C41   C     C_R   0.526973 0.957315 0.166299 0.167609
C42   C     C_R   0.429851 0.472925 0.333766 0.167674
C43   C     C_R   0.569776 0.042718 0.666312 0.167645
C44   C     C_R   0.957270 0.526961 0.833713 0.167684
C45   C     C_R   0.473002 0.430520 0.666351 0.167673
C46   C     C_R   0.569886 0.042830 0.833713 0.167640
C47   C     C_R   0.957463 0.526956 0.666331 0.167630
C48   C     C_R   0.473038 0.430482 0.833674 0.167679
C49   C     C_R   0.013909 0.559407 0.135402 -0.038965
C50   C     C_R   0.545392 0.986030 0.364626 -0.039003
C51   C     C_R   0.440429 0.454531 0.135362 -0.039006
C52   C     C_R   0.014217 0.559656 0.364659 -0.039041
C53   C     C_R   0.545458 0.986127 0.135400 -0.038969
C54   C     C_R   0.440018 0.454431 0.364677 -0.039138
C55   C     C_R   0.559487 0.013890 0.635417 -0.038945
C56   C     C_R   0.986062 0.545432 0.864614 -0.038919
C57   C     C_R   0.454467 0.440898 0.635464 -0.038858
C58   C     C_R   0.559643 0.014060 0.864614 -0.039019
C59   C     C_R   0.986348 0.545451 0.635440 -0.038848
C60   C     C_R   0.454541 0.440861 0.864566 -0.038882
C61   C     C_R   0.062894 0.544581 0.111899 0.151007
C62   C     C_R   0.481580 0.936968 0.388121 0.150990
C63   C     C_R   0.455338 0.518409 0.111874 0.150998
C64   C     C_R   0.063195 0.544728 0.388138 0.151072
C65   C     C_R   0.481661 0.937104 0.111897 0.150951
C66   C     C_R   0.455099 0.518401 0.388150 0.151109
C67   C     C_R   0.544593 0.062813 0.611910 0.150998
C68   C     C_R   0.937044 0.481610 0.888111 0.150924
C69   C     C_R   0.518166 0.455572 0.611936 0.150870
C70   C     C_R   0.544701 0.062980 0.888110 0.151034
C71   C     C_R   0.937304 0.481720 0.611923 0.150859
C72   C     C_R   0.518280 0.455567 0.888082 0.150982
C73   C     C_R   0.879402 0.440568 0.826068 0.026606
C74   C     C_R   0.561154 0.120540 0.673940 0.026591
C75   C     C_R   0.559380 0.438847 0.826057 0.026717
C76   C     C_R   0.879473 0.440621 0.673946 0.026574
C77   C     C_R   0.561176 0.120590 0.826068 0.026652
C78   C     C_R   0.559341 0.438856 0.673952 0.026606
C79   C     C_R   0.440563 0.879372 0.326073 0.026749
C80   C     C_R   0.120578 0.561165 0.173935 0.026662
C81   C     C_R   0.438790 0.559468 0.326085 0.026717
C82   C     C_R   0.440590 0.879421 0.173935 0.026650
C83   C     C_R   0.120666 0.561192 0.326080 0.026700
C84   C     C_R   0.438814 0.559444 0.173925 0.026642
C85   C     C_R   0.012578 0.596792 0.032475 0.042493
C86   C     C_R   0.584230 0.987449 0.467534 0.042488
C87   C     C_R   0.403039 0.415972 0.032435 0.042490
C88   C     C_R   0.013227 0.597111 0.467587 0.042500
C89   C     C_R   0.584365 0.987671 0.032493 0.042482
C90   C     C_R   0.402650 0.416107 0.467610 0.042491
C91   C     C_R   0.596827 0.012547 0.532483 0.042493
C92   C     C_R   0.987475 0.584218 0.967527 0.042490
C93   C     C_R   0.415285 0.403613 0.532559 0.042476
C94   C     C_R   0.596977 0.012794 0.967545 0.042488
C95   C     C_R   0.988102 0.584504 0.532534 0.042485
C96   C     C_R   0.415600 0.403466 0.967484 0.042491
C97   C     C_R   0.028778 0.603198 0.064616 0.463773
C98   C     C_R   0.574413 0.971257 0.435392 0.463766
C99   C     C_R   0.396650 0.425746 0.064578 0.463811
C100  C     C_R   0.029390 0.603503 0.435444 0.463884
C101  C     C_R   0.574531 0.971449 0.064633 0.463705
C102  C     C_R   0.396253 0.425870 0.435467 0.463968
C103  C     C_R   0.603244 0.028756 0.564623 0.463767
C104  C     C_R   0.971275 0.574408 0.935386 0.463680
C105  C     C_R   0.425147 0.397204 0.564696 0.463573
C106  C     C_R   0.603392 0.028998 0.935404 0.463834
C107  C     C_R   0.971849 0.574663 0.564671 0.463547
C108  C     C_R   0.425415 0.397072 0.935344 0.463705
C109  C     C_R   0.013070 0.452189 0.064870 0.480432
C110  C     C_R   0.438844 0.986506 0.435183 0.480475
C111  C     C_R   0.547702 0.560989 0.064837 0.480436
C112  C     C_R   0.013341 0.452351 0.435169 0.480437
C113  C     C_R   0.438972 0.986714 0.064841 0.480464
C114  C     C_R   0.547497 0.560844 0.435177 0.480419
C115  C     C_R   0.452153 0.012856 0.564893 0.480400
C116  C     C_R   0.986698 0.438941 0.935161 0.480479
C117  C     C_R   0.560890 0.547894 0.564887 0.480463
C118  C     C_R   0.452282 0.013054 0.935132 0.480410
C119  C     C_R   0.986906 0.438985 0.564877 0.480469
C120  C     C_R   0.560944 0.547917 0.935123 0.480459
C121  C     C_R   0.005324 0.447271 0.032554 0.048220
C122  C     C_R   0.441694 0.994205 0.467501 0.048221
C123  C     C_R   0.552604 0.558186 0.032519 0.048208
C124  C     C_R   0.005616 0.447424 0.467486 0.048209
C125  C     C_R   0.441834 0.994433 0.032525 0.048220
C126  C     C_R   0.552427 0.558077 0.467494 0.048217
C127  C     C_R   0.447210 0.005092 0.532577 0.048215
C128  C     C_R   0.994426 0.441789 0.967477 0.048208
C129  C     C_R   0.557988 0.552753 0.532571 0.048218
C130  C     C_R   0.447351 0.005317 0.967448 0.048222
C131  C     C_R   0.994683 0.441877 0.532561 0.048212
C132  C     C_R   0.558083 0.552798 0.967440 0.048210
C133  C     C_R   0.004488 0.519866 0.016297 -0.027110
C134  C     C_R   0.515277 0.995281 0.483735 -0.027135
C135  C     C_R   0.479983 0.484791 0.016259 -0.027115
C136  C     C_R   0.004958 0.520093 0.483754 -0.027126
C137  C     C_R   0.515419 0.995513 0.016291 -0.027129
C138  C     C_R   0.479717 0.484814 0.483770 -0.027131
C139  C     C_R   0.519844 0.004355 0.516312 -0.027108
C140  C     C_R   0.995410 0.515313 0.983720 -0.027122
C141  C     C_R   0.484305 0.480321 0.516348 -0.027117
C142  C     C_R   0.519990 0.004592 0.983714 -0.027117
C143  C     C_R   0.995865 0.515516 0.516330 -0.027117
C144  C     C_R   0.484532 0.480278 0.983680 -0.027104
C145  C     C_R   0.007062 0.666427 0.015984 -0.107829
C146  C     C_R   0.659529 0.993217 0.484002 -0.107799
C147  C     C_R   0.333374 0.340855 0.015940 -0.107774
C148  C     C_R   0.007904 0.666838 0.484089 -0.107835
C149  C     C_R   0.659671 0.993453 0.016026 -0.107824
C150  C     C_R   0.332887 0.341112 0.484121 -0.107766
C151  C     C_R   0.666507 0.007129 0.515983 -0.107811
C152  C     C_R   0.993148 0.659460 0.984003 -0.107827
C153  C     C_R   0.339882 0.334175 0.516102 -0.107798
C154  C     C_R   0.666667 0.007382 0.984046 -0.107842
C155  C     C_R   0.993981 0.659858 0.516070 -0.107867
C156  C     C_R   0.340334 0.333918 0.983958 -0.107777
C157  C     C_R   0.001353 0.372865 0.016113 -0.101746
C158  C     C_R   0.371145 0.997905 0.483964 -0.101663
C159  C     C_R   0.627027 0.628609 0.016080 -0.101692
C160  C     C_R   0.001472 0.372921 0.483916 -0.101771
C161  C     C_R   0.371291 0.998143 0.016060 -0.101662
C162  C     C_R   0.626975 0.628407 0.483917 -0.101658
C163  C     C_R   0.372739 0.001013 0.516145 -0.101713
C164  C     C_R   0.998239 0.371291 0.983933 -0.101734
C165  C     C_R   0.628592 0.626923 0.516098 -0.101644
C166  C     C_R   0.372883 0.001244 0.983879 -0.101689
C167  C     C_R   0.998339 0.371309 0.516096 -0.101761
C168  C     C_R   0.628602 0.627085 0.983899 -0.101689
Cr1   Cr    Cr6+3 0.530290 0.262330 0.750000 1.128321
Cr2   Cr    Cr6+3 0.732040 0.469710 0.750000 1.128210
Cr3   Cr    Cr6+3 0.737670 0.267960 0.750000 1.128336
Cr4   Cr    Cr6+3 0.262330 0.530290 0.250000 1.128354
Cr5   Cr    Cr6+3 0.469710 0.732040 0.250000 1.128343
Cr6   Cr    Cr6+3 0.267960 0.737670 0.250000 1.128225
H1    H     H_    0.996544 0.313479 0.972006 0.176990
H2    H     H_    0.316535 0.002499 0.528089 0.176999
H3    H     H_    0.686430 0.683188 0.971974 0.177021
H4    H     H_    0.996495 0.313412 0.528014 0.176973
H5    H     H_    0.316681 0.002729 0.971934 0.177013
H6    H     H_    0.686521 0.682954 0.528010 0.177050
H7    H     H_    0.313284 0.996130 0.472043 0.177021
H8    H     H_    0.002925 0.316699 0.028052 0.176981
H9    H     H_    0.683229 0.686020 0.471963 0.177037
H10   H     H_    0.313431 0.996369 0.027980 0.177028
H11   H     H_    0.002908 0.316695 0.471969 0.176961
H12   H     H_    0.683210 0.686322 0.028021 0.177017
H13   H     H_    0.987626 0.713610 0.972176 0.174934
H14   H     H_    0.726294 0.012857 0.527792 0.174920
H15   H     H_    0.286164 0.274269 0.972128 0.174963
H16   H     H_    0.988603 0.714079 0.527906 0.174927
H17   H     H_    0.726448 0.013119 0.972238 0.174925
H18   H     H_    0.285635 0.274612 0.527944 0.174963
H19   H     H_    0.713719 0.987777 0.472169 0.174944
H20   H     H_    0.012711 0.726168 0.027800 0.174926
H21   H     H_    0.273031 0.287123 0.472321 0.174932
H22   H     H_    0.713857 0.988009 0.027860 0.174936
H23   H     H_    0.013703 0.726658 0.472284 0.174904
H24   H     H_    0.273619 0.286777 0.027754 0.174945
H25   H     H_    0.047256 0.610123 0.870417 0.195556
H26   H     H_    0.563065 0.952735 0.629626 0.195462
H27   H     H_    0.389895 0.437486 0.870348 0.195506
H28   H     H_    0.047635 0.610089 0.629661 0.195584
H29   H     H_    0.563286 0.952948 0.870418 0.195490
H30   H     H_    0.389828 0.437556 0.629694 0.195589
H31   H     H_    0.610064 0.047241 0.370433 0.195571
H32   H     H_    0.952723 0.562922 0.129604 0.195475
H33   H     H_    0.436196 0.389613 0.370509 0.195488
H34   H     H_    0.610140 0.047342 0.129604 0.195581
H35   H     H_    0.953119 0.563305 0.370482 0.195465
H36   H     H_    0.436820 0.389798 0.129547 0.195494
N1    N     N_R   0.031327 0.532209 0.080219 -0.366899
N2    N     N_R   0.500736 0.968483 0.419810 -0.366868
N3    N     N_R   0.467672 0.499243 0.080185 -0.366876
N4    N     N_R   0.031733 0.532425 0.419830 -0.366883
N5    N     N_R   0.500847 0.968663 0.080213 -0.366874
N6    N     N_R   0.467378 0.499228 0.419844 -0.366852
N7    N     N_R   0.532219 0.031217 0.580232 -0.366898
N8    N     N_R   0.968581 0.500782 0.919797 -0.366880
N9    N     N_R   0.498942 0.468014 0.580264 -0.366891
N10   N     N_R   0.532352 0.031427 0.919792 -0.366881
N11   N     N_R   0.968933 0.500914 0.580248 -0.366900
N12   N     N_R   0.499077 0.467976 0.919759 -0.366899
O1    O     O_R   0.509640 0.171340 0.784000 -0.464396
O2    O     O_R   0.661700 0.490360 0.716000 -0.464587
O3    O     O_R   0.828660 0.338300 0.784000 -0.464410
O4    O     O_R   0.509640 0.171340 0.716000 -0.464398
O5    O     O_R   0.661700 0.490360 0.784000 -0.464482
O6    O     O_R   0.828660 0.338300 0.716000 -0.464512
O7    O     O_R   0.171340 0.509640 0.284000 -0.464291
O8    O     O_R   0.490360 0.661700 0.216000 -0.464412
O9    O     O_R   0.338300 0.828660 0.284000 -0.464508
O10   O     O_R   0.171340 0.509640 0.216000 -0.464419
O11   O     O_R   0.490360 0.661700 0.284000 -0.464247
O12   O     O_R   0.338300 0.828660 0.216000 -0.464481
O13   O     O_R   0.539230 0.345420 0.781810 -0.474986
O14   O     O_R   0.806190 0.460770 0.718190 -0.475017
O15   O     O_R   0.654580 0.193810 0.781810 -0.474908
O16   O     O_R   0.539230 0.345420 0.718190 -0.474894
O17   O     O_R   0.806190 0.460770 0.781810 -0.474999
O18   O     O_R   0.654580 0.193810 0.718190 -0.474989
O19   O     O_R   0.345420 0.539230 0.281810 -0.474946
O20   O     O_R   0.460770 0.806190 0.218190 -0.474927
O21   O     O_R   0.193810 0.654580 0.281810 -0.475024
O22   O     O_R   0.345420 0.539230 0.218190 -0.474963
O23   O     O_R   0.460770 0.806190 0.281810 -0.474844
O24   O     O_R   0.193810 0.654580 0.218190 -0.474919
O25   O     O_3   0.666667 0.333333 0.750000 -0.262862
O26   O     O_3   0.333333 0.666667 0.250000 -0.262933
O27   O     O_2   0.042515 0.672478 0.078590 -0.475013
O28   O     O_2   0.630069 0.957731 0.421401 -0.475043
O29   O     O_2   0.327356 0.370220 0.078550 -0.474952
O30   O     O_2   0.043271 0.672843 0.421478 -0.474868
O31   O     O_2   0.630176 0.957905 0.078625 -0.475115
O32   O     O_2   0.326871 0.370459 0.421508 -0.474760
O33   O     O_2   0.672565 0.042582 0.578591 -0.475007
O34   O     O_2   0.957666 0.630019 0.921401 -0.475102
O35   O     O_2   0.369432 0.328067 0.578694 -0.475259
O36   O     O_2   0.672721 0.042843 0.921439 -0.474928
O37   O     O_2   0.958387 0.630359 0.578664 -0.475295
O38   O     O_2   0.369777 0.327872 0.921356 -0.475103
O39   O     O_2   0.006312 0.386369 0.079434 -0.468690
O40   O     O_2   0.379659 0.993105 0.420639 -0.468647
O41   O     O_2   0.613548 0.620010 0.079402 -0.468728
O42   O     O_2   0.006429 0.386482 0.420597 -0.468663
O43   O     O_2   0.379788 0.993314 0.079385 -0.468673
O44   O     O_2   0.613408 0.619722 0.420598 -0.468756
O45   O     O_2   0.386315 0.006026 0.579464 -0.468767
O46   O     O_2   0.993352 0.379801 0.920610 -0.468638
O47   O     O_2   0.620174 0.613625 0.579424 -0.468700
O48   O     O_2   0.386427 0.006183 0.920560 -0.468757
O49   O     O_2   0.993382 0.379729 0.579420 -0.468646
O50   O     O_2   0.620124 0.613690 0.920574 -0.468664
O51   O     O_3   0.008509 0.593967 0.812024 -0.649548
H37   H     H_    0.985285 0.570470 0.791008 0.330144
O52   O     O_3   0.585610 0.991557 0.688013 -0.649578
H38   H     H_    0.585215 0.014735 0.709027 0.330126
O53   O     O_3   0.406113 0.414826 0.811964 -0.649582
H39   H     H_    0.429570 0.414881 0.790959 0.330140
O54   O     O_3   0.008736 0.593874 0.688041 -0.649596
H40   H     H_    0.985391 0.570379 0.709048 0.330119
O55   O     O_3   0.585766 0.991676 0.812022 -0.649532
H41   H     H_    0.585232 0.014745 0.791002 0.330123
O56   O     O_3   0.406115 0.414892 0.688072 -0.649558
H42   H     H_    0.429662 0.415109 0.709077 0.330089
O57   O     O_3   0.593927 0.008547 0.312035 -0.649557
H43   H     H_    0.570440 0.985322 0.291018 0.330135
O58   O     O_3   0.991490 0.585462 0.187997 -0.649586
H44   H     H_    0.014654 0.585058 0.209013 0.330108
O59   O     O_3   0.413806 0.405775 0.312101 -0.649532
H45   H     H_    0.414342 0.429324 0.291071 0.330189
O60   O     O_3   0.593957 0.008563 0.187994 -0.649585
H46   H     H_    0.570461 0.985302 0.209008 0.330140
O61   O     O_3   0.991709 0.585773 0.312080 -0.649585
H47   H     H_    0.014854 0.585438 0.291056 0.330183
O62   O     O_3   0.414293 0.405947 0.187946 -0.649577
H48   H     H_    0.414628 0.429449 0.208967 0.330160
O63   O     O_3   0.243914 0.535271 0.158696 -0.628137
H49   H     H_    0.256711 0.502158 0.142226 0.363030
O64   O     O_3   0.291354 0.755955 0.341295 -0.628308
H50   H     H_    0.245378 0.743287 0.357731 0.362884
O65   O     O_3   0.464899 0.708767 0.158714 -0.628117
H51   H     H_    0.498241 0.754729 0.142277 0.362960
O66   O     O_3   0.243892 0.535057 0.341268 -0.628376
H52   H     H_    0.256668 0.501889 0.357725 0.362986
O67   O     O_3   0.291379 0.756041 0.158694 -0.628069
H53   H     H_    0.245418 0.743382 0.142252 0.362935
O68   O     O_3   0.465282 0.708965 0.341260 -0.628391
H54   H     H_    0.498503 0.754874 0.357720 0.363045
O69   O     O_3   0.535123 0.243778 0.658687 -0.627906
H55   H     H_    0.502006 0.256554 0.642212 0.363090
O70   O     O_3   0.756049 0.291327 0.841297 -0.628085
H56   H     H_    0.743372 0.245367 0.857740 0.362968
O71   O     O_3   0.708413 0.464434 0.658657 -0.627843
H57   H     H_    0.754345 0.497700 0.642205 0.362975
O72   O     O_3   0.535016 0.243765 0.841296 -0.628112
H58   H     H_    0.501843 0.256496 0.857762 0.363059
O73   O     O_3   0.755977 0.291516 0.658672 -0.627871
H59   H     H_    0.743279 0.245569 0.642223 0.362966
O74   O     O_3   0.708491 0.464482 0.841325 -0.628079
H60   H     H_    0.754391 0.497546 0.857802 0.363019
Cl1   Cl    Cl    0.213610 0.537896 0.089349 -0.442031
Cl2   Cl    Cl    0.324220 0.786085 0.410632 -0.441854
Cl3   Cl    Cl    0.462204 0.675942 0.089371 -0.442050
Cl4   Cl    Cl    0.213811 0.537736 0.410625 -0.442144
Cl5   Cl    Cl    0.324310 0.786261 0.089360 -0.441781
Cl6   Cl    Cl    0.462457 0.676188 0.410621 -0.442284
Cl7   Cl    Cl    0.537762 0.213429 0.589342 -0.442013
Cl8   Cl    Cl    0.786221 0.324231 0.910635 -0.441884
Cl9   Cl    Cl    0.675294 0.461750 0.589336 -0.441716
Cl10  Cl    Cl    0.537728 0.213553 0.910644 -0.442052
Cl11  Cl    Cl    0.786346 0.324549 0.589345 -0.441659
Cl12  Cl    Cl    0.675490 0.461906 0.910666 -0.441980

loop_
_geom_bond_atom_site_label_1
_geom_bond_atom_site_label_2
_ccdc_geom_bond_type
C132  C144  A    
C154  H17   S    
C71   N11   S    
O60   H46   S    
C93   C141  A    
C15   Cl3   S    
Cr4   O10   S    
Cr6   O26   S    
O65   H51   S    
C45   C57   A    
C45   O56   S    
C159  H12   S    
C47   C76   A    
C112  C124  A    
C149  H22   S    
C34   O72   S    
C33   C78   A    
C21   C33   A    
C60   C72   A    
C103  O33   D    
C86   C134  A    
C127  C163  A    
C48   C60   A    
C45   C78   A    
C96   C108  A    
C28   C83   A    
C40   C83   A    
C152  H13   S    
Cr6   O12   S    
C47   O54   S    
C41   O60   S    
C151  H14   S    
C125  C161  A    
C2    O6    A    
C11   O23   A    
C114  N6    Am   
C99   O29   D    
C20   Cl8   S    
C97   O27   D    
Cr3   O15   S    
Cr3   O25   S    
C18   Cl6   S    
C101  O31   D    
C4    C78   S    
C96   C144  A    
C162  C165  A    
C15   C27   A    
O66   H52   S    
C100  N4    Am   
C7    O19   A    
C122  C158  A    
C14   C26   A    
C145  H20   S    
C11   C79   S    
C9    C83   S    
Cr2   O2    S    
C43   C55   A    
Cr1   O16   S    
C157  H8    S    
C116  N8    Am   
C3    C77   S    
C131  C143  A    
Cr6   O24   S    
C11   O9    A    
C89   C101  A    
C20   C68   A    
C111  N3    Am   
C91   C103  A    
C138  C141  A    
C46   C77   A    
C117  O47   D    
C16   Cl4   S    
C36   O74   S    
C119  O49   D    
C120  O50   D    
C161  H10   S    
C93   C153  A    
C162  H9    S    
C4    O2    A    
C109  C121  A    
C96   C156  A    
C123  C159  A    
C101  N5    Am   
C41   C82   A    
C124  C160  A    
C57   H30   S    
C5    O3    A    
C26   O64   S    
C117  N9    Am   
C85   C97   A    
C92   C104  A    
C47   C59   A    
C29   C82   A    
C167  H4    S    
C129  C141  A    
Cr3   O6    S    
C38   C79   A    
C21   C69   A    
C62   N2    S    
Cr1   O4    S    
C147  H24   S    
C109  N1    Am   
C110  C122  A    
C39   C51   A    
C137  C142  A    
C90   C150  A    
C37   O58   S    
C24   C36   A    
C27   C84   A    
C1    O13   A    
C39   C84   A    
C65   N5    S    
C136  C143  A    
C114  O44   D    
C114  C126  A    
C14   C62   A    
C10   O8    A    
C164  H1    S    
C107  O37   D    
C122  C134  A    
C33   O71   S    
C23   Cl11  S    
C105  N9    Am   
C119  C131  A    
C148  C155  A    
C112  N4    Am   
C53   C65   A    
C156  H15   S    
C131  C167  A    
O53   H39   S    
C46   C58   A    
C42   C81   A    
C160  H11   S    
C90   C138  A    
C22   C34   A    
C37   C80   A    
C35   C76   A    
C94   C142  A    
C134  C139  A    
C31   C74   A    
C56   C68   A    
C63   N3    S    
C123  C135  A    
C28   O66   S    
O61   H47   S    
C36   C75   A    
C120  N12   Am   
O59   H45   S    
C13   Cl1   S    
C49   H32   S    
C157  C164  A    
C41   C53   A    
C158  C163  A    
Cr5   O26   S    
C2    O14   A    
C7    C81   S    
C103  N7    Am   
C118  N10   Am   
C9    O21   A    
C24   C72   A    
C20   C32   A    
C102  N6    Am   
C3    O1    A    
Cr1   O13   S    
C110  N2    Am   
C116  O46   D    
Cr4   O7    S    
C54   C66   A    
C18   C66   A    
C128  C140  A    
C39   O62   S    
C59   H28   S    
C12   O24   A    
C5    C73   S    
C130  C142  A    
C158  H7    S    
C150  H21   S    
C145  C152  A    
Cr5   O8    S    
C146  C151  A    
Cr4   O22   S    
C25   O63   S    
O56   H42   S    
C4    O16   A    
C24   Cl12  S    
C22   C70   A    
C118  O48   D    
C8    O12   A    
C106  N10   Am   
Cr2   O17   S    
C95   C143  A    
C25   C80   A    
C17   C29   A    
O52   H38   S    
C19   C31   A    
C14   Cl2   S    
C48   O53   S    
C31   O69   S    
C87   C147  A    
C8    C82   S    
C34   C77   A    
C148  H23   S    
C43   O52   S    
Cr3   O18   S    
C168  H3    S    
C53   H34   S    
Cr5   O20   S    
C94   C106  A    
Cr5   O11   S    
C150  C153  A    
O54   H40   S    
C19   C67   A    
C97   N1    Am   
C89   C149  A    
C44   O51   S    
C42   O59   S    
O72   H58   S    
Cr2   O5    S    
C86   C146  A    
C115  O45   D    
C6    C74   S    
C49   C61   A    
C124  C136  A    
C111  C123  A    
O68   H54   S    
C87   C135  A    
C67   N7    S    
C10   O22   A    
C88   C136  A    
C52   C64   A    
O62   H48   S    
C98   O28   D    
C125  C137  A    
Cr2   O14   S    
C102  O32   D    
O64   H50   S    
C17   Cl5   S    
O57   H43   S    
C118  C130  A    
C155  H16   S    
C23   C71   A    
C37   C49   A    
C44   C56   A    
C19   Cl7   S    
C55   H26   S    
C51   C63   A    
C146  H19   S    
C147  C156  A    
C104  N8    Am   
C88   C100  A    
C95   C107  A    
C91   C139  A    
C58   H29   S    
C89   C137  A    
C119  N11   Am   
C52   H35   S    
Cr2   O25   S    
C109  O39   D    
C92   C140  A    
C2    C76   S    
Cr5   O23   S    
C105  O35   D    
C5    O17   A    
C69   N9    S    
C58   C70   A    
C85   C145  A    
C99   N3    Am   
C26   C79   A    
C129  C165  A    
C30   C81   A    
C42   C54   A    
C51   H36   S    
O71   H57   S    
C98   N2    Am   
C6    O4    A    
C44   C73   A    
C86   C98   A    
C23   C35   A    
O74   H60   S    
C60   H27   S    
C133  C140  A    
O67   H53   S    
C85   C133  A    
C16   C28   A    
O70   H56   S    
C7    O11   A    
O63   H49   S    
C128  C164  A    
C149  C154  A    
C35   O73   S    
O69   H55   S    
C64   N4    S    
C113  C125  A    
Cr4   O26   S    
C115  C127  A    
C159  C168  A    
C9    O7    A    
C61   N1    S    
C160  C167  A    
C130  C166  A    
C93   C105  A    
C90   C102  A    
Cr3   O3    S    
C92   C152  A    
C18   C30   A    
Cr6   O9    S    
C161  C166  A    
C56   H25   S    
C1    O5    A    
C43   C74   A    
C121  C157  A    
C66   N6    S    
C48   C75   A    
C13   C25   A    
C40   O61   S    
C127  C139  A    
C163  H2    S    
C12   O10   A    
C87   C99   A    
C22   Cl10  S    
C88   C148  A    
C1    C75   S    
C32   C73   A    
O55   H41   S    
C40   C52   A    
C6    O18   A    
C70   N10   S    
C68   N8    S    
C108  N12   Am   
C8    O20   A    
C94   C154  A    
C72   N12   S    
O51   H37   S    
C30   O68   S    
C29   O67   S    
Cr1   O25   S    
C111  O41   D    
Cr6   O21   S    
C3    O15   A    
C135  C144  A    
C112  O42   D    
Cr4   O19   S    
O58   H44   S    
C50   C62   A    
C108  O38   D    
C113  N5    Am   
C21   Cl9   S    
C117  C129  A    
C165  H6    S    
C126  C138  A    
C120  C132  A    
C132  C168  A    
C100  O30   D    
C55   C67   A    
C38   C50   A    
C32   O70   S    
C17   C65   A    
C104  O34   D    
C57   C69   A    
C27   O65   S    
C91   C151  A    
Cr1   O1    S    
C12   C80   S    
C10   C84   S    
C95   C155  A    
O73   H59   S    
C113  O43   D    
C110  O40   D    
C50   H31   S    
C13   C61   A    
C54   H33   S    
C116  C128  A    
C106  O36   D    
C46   O55   S    
C15   C63   A    
C115  N7    Am   
C166  H5    S    
C16   C64   A    
C121  C133  A    
C126  C162  A    
C38   O57   S    
C59   C71   A    
C107  N11   Am   
C153  H18   S    
