data_mof_unit_17767.cif
_audit_creation_date              2012-12-11T16:45:46-0500
_audit_creation_method            fapswitch 2.2
_symmetry_space_group_name_H-M    P1
_symmetry_Int_Tables_number       1
_space_group_crystal_system       triclinic
_cell_length_a                    19.804815
_cell_length_b                    17.080306
_cell_length_c                    15.309195
_cell_angle_alpha                 90.000883
_cell_angle_beta                  52.62812
_cell_angle_gamma                 90.001873
_cell_volume                      4115.55963867

loop_
_atom_site_label
_atom_site_type_symbol
_atom_type_description
_atom_site_fract_x
_atom_site_fract_y
_atom_site_fract_z
_atom_type_partial_charge
C1    C     C_R   0.873766 0.693829 0.993599 -0.113210
C2    C     C_R   0.210555 0.347342 0.978150 0.152250
C3    C     C_R   0.289411 0.847356 0.021928 0.152269
C4    C     C_R   0.710554 0.847342 0.978154 0.152242
C5    C     C_R   0.806836 0.637789 0.324114 0.082703
C6    C     C_R   0.193163 0.637793 0.675885 0.082693
C7    C     C_R   0.306836 0.137790 0.324114 0.082703
C8    C     C_R   0.693163 0.137791 0.675885 0.082692
C9    C     C_R   0.711274 0.638063 0.526977 0.152575
C10   C     C_R   0.288712 0.638070 0.473024 0.152561
C11   C     C_R   0.211273 0.138063 0.526977 0.152577
C12   C     C_R   0.126260 0.693826 0.006386 -0.113163
C13   C     C_R   0.788701 0.138073 0.473027 0.152554
C14   C     C_R   0.727686 0.663132 0.428414 -0.039095
C15   C     C_R   0.272311 0.663137 0.571583 -0.039085
C16   C     C_R   0.227686 0.163133 0.428413 -0.039095
C17   C     C_R   0.772309 0.163135 0.571582 -0.039084
C18   C     C_R   0.173705 0.221798 0.435646 0.046300
C19   C     C_R   0.826307 0.221789 0.564338 0.046289
C20   C     C_R   0.673705 0.721798 0.435646 0.046301
C21   C     C_R   0.326305 0.721794 0.564343 0.046284
C22   C     C_R   0.125642 0.268367 0.530867 -0.261154
C23   C     C_R   0.373764 0.193828 0.993600 -0.113201
C24   C     C_R   0.874379 0.268353 0.469112 -0.261155
C25   C     C_R   0.625642 0.768367 0.530867 -0.261155
C26   C     C_R   0.374377 0.768358 0.469117 -0.261153
C27   C     C_R   0.129227 0.254032 0.618459 0.017606
C28   C     C_R   0.870778 0.254028 0.381530 0.017611
C29   C     C_R   0.629228 0.754032 0.618459 0.017607
C30   C     C_R   0.370783 0.754028 0.381530 0.017610
C31   C     C_R   0.662182 0.682523 0.620730 0.163937
C32   C     C_R   0.337810 0.682527 0.379268 0.163923
C33   C     C_R   0.162181 0.182523 0.620730 0.163937
C34   C     C_R   0.626246 0.193830 0.006398 -0.113190
C35   C     C_R   0.837798 0.182530 0.379270 0.163921
C36   C     C_3   0.715491 0.663210 0.656891 -0.523273
C37   C     C_3   0.284486 0.663232 0.343121 -0.523247
C38   C     C_3   0.215489 0.163209 0.656892 -0.523272
C39   C     C_3   0.784463 0.163247 0.343135 -0.523248
C40   C     C_R   0.899560 0.301672 0.207148 -0.155196
C41   C     C_R   0.100446 0.301674 0.792847 -0.155194
C42   C     C_R   0.399565 0.801672 0.207147 -0.155205
C43   C     C_R   0.600447 0.801674 0.792846 -0.155193
C44   C     C_3   0.769811 0.614809 0.554066 -0.508996
C45   C     C_R   0.888681 0.314960 0.303494 0.095710
C46   C     C_3   0.230160 0.614835 0.445949 -0.508984
C47   C     C_3   0.269810 0.114809 0.554067 -0.508996
C48   C     C_3   0.730139 0.114850 0.445963 -0.508980
C49   C     C_2   0.694693 0.236051 0.092734 -0.204366
C50   C     C_2   0.305296 0.236059 0.907312 -0.204542
C51   C     C_2   0.194758 0.736014 0.092666 -0.204382
C52   C     C_2   0.805313 0.736068 0.907293 -0.204517
C53   C     C_2   0.215931 0.806957 0.045382 -0.190573
C54   C     C_2   0.783961 0.806919 0.954848 -0.190524
C55   C     C_2   0.715954 0.306956 0.045317 -0.190495
C56   C     C_R   0.111328 0.314963 0.696498 0.095713
C57   C     C_2   0.283961 0.306916 0.954841 -0.190560
C58   C     C_R   0.830321 0.410565 0.950701 -0.143742
C59   C     C_R   0.169660 0.410558 0.049336 -0.143754
C60   C     C_R   0.330312 0.910567 0.950718 -0.143727
C61   C     C_R   0.669658 0.910558 0.049338 -0.143758
C62   C     C_R   0.857121 0.577075 0.314358 -0.141874
C63   C     C_R   0.142877 0.577077 0.685642 -0.141871
C64   C     C_R   0.357121 0.077075 0.314358 -0.141877
C65   C     C_R   0.642877 0.077076 0.685643 -0.141870
C66   C     C_R   0.840756 0.320167 0.048003 -0.115949
C67   C     C_R   0.388685 0.814960 0.303493 0.095715
C68   C     C_R   0.159237 0.320162 0.952016 -0.115931
C69   C     C_R   0.340750 0.820178 0.048024 -0.115952
C70   C     C_R   0.659236 0.820160 0.952020 -0.115931
C71   C     C_R   0.850553 0.672319 0.220671 -0.122933
C72   C     C_R   0.149447 0.672322 0.779327 -0.122928
C73   C     C_R   0.350553 0.172319 0.220671 -0.122931
C74   C     C_R   0.649449 0.172321 0.779327 -0.122929
C75   C     C_R   0.906618 0.393167 0.304325 -0.144235
C76   C     C_R   0.093386 0.393168 0.695672 -0.144229
C77   C     C_R   0.406620 0.893168 0.304325 -0.144231
C78   C     C_R   0.611329 0.814963 0.696498 0.095712
C79   C     C_R   0.593387 0.893168 0.695672 -0.144228
C80   C     C_R   0.864245 0.602280 0.897826 -0.163913
C81   C     C_R   0.135771 0.602268 0.102157 -0.163902
C82   C     C_R   0.364242 0.102278 0.897829 -0.163926
C83   C     C_R   0.635756 0.102278 0.102175 -0.163893
C84   C     C_R   0.845260 0.679359 0.932838 0.158912
C85   C     C_R   0.154764 0.679344 0.067150 0.158831
C86   C     C_R   0.345255 0.179356 0.932842 0.158916
C87   C     C_R   0.654741 0.179357 0.067173 0.158844
C88   C     C_1   0.170140 0.239012 0.346223 0.031803
C89   C     C_R   0.789420 0.347352 0.021903 0.152244
C90   C     C_1   0.829883 0.238993 0.653755 0.031822
C91   C     C_1   0.670139 0.739011 0.346224 0.031803
C92   C     C_1   0.329877 0.739001 0.653762 0.031825
H1    H     H_    0.880725 0.749769 0.020109 0.080810
H2    H     H_    0.250107 0.714668 0.342958 0.202691
H3    H     H_    0.249880 0.214635 0.657061 0.202677
H4    H     H_    0.750087 0.214689 0.342979 0.202686
H5    H     H_    0.680522 0.627292 0.733091 0.187069
H6    H     H_    0.319439 0.627315 0.266922 0.187056
H7    H     H_    0.180520 0.127291 0.733092 0.187069
H8    H     H_    0.819407 0.127331 0.266935 0.187055
H9    H     H_    0.835110 0.638957 0.495891 0.201705
H10   H     H_    0.164868 0.638991 0.504132 0.201708
H11   H     H_    0.335108 0.138956 0.495893 0.201703
H12   H     H_    0.119359 0.749767 0.979822 0.080812
H13   H     H_    0.664851 0.139013 0.504154 0.201709
H14   H     H_    0.766427 0.551149 0.571543 0.188941
H15   H     H_    0.233526 0.551175 0.428474 0.188932
H16   H     H_    0.266425 0.051148 0.571544 0.188941
H17   H     H_    0.733496 0.051192 0.428486 0.188929
H18   H     H_    0.718402 0.214167 0.135910 0.125528
H19   H     H_    0.281668 0.214232 0.864041 0.125620
H20   H     H_    0.218580 0.714077 0.135666 0.125552
H21   H     H_    0.781707 0.714250 0.863983 0.125603
H22   H     H_    0.190264 0.829754 0.005048 0.124847
H23   H     H_    0.380718 0.249769 0.020114 0.080809
H24   H     H_    0.809370 0.829591 0.995551 0.124881
H25   H     H_    0.690393 0.329709 0.004820 0.124819
H26   H     H_    0.309387 0.329595 0.995512 0.124899
H27   H     H_    0.906287 0.245361 0.170504 0.100022
H28   H     H_    0.093720 0.245363 0.829490 0.100026
H29   H     H_    0.406295 0.745360 0.170501 0.100022
H30   H     H_    0.593722 0.745363 0.829489 0.100025
H31   H     H_    0.809285 0.443865 0.911220 0.098000
H32   H     H_    0.190677 0.443844 0.088850 0.097984
H33   H     H_    0.309269 0.943867 0.911244 0.098001
H34   H     H_    0.619320 0.249769 0.979856 0.080813
H35   H     H_    0.690674 0.943846 0.088853 0.097989
H36   H     H_    0.842015 0.535064 0.376181 0.112772
H37   H     H_    0.157981 0.535066 0.623818 0.112770
H38   H     H_    0.342015 0.035064 0.376182 0.112772
H39   H     H_    0.657981 0.035065 0.623819 0.112771
H40   H     H_    0.831423 0.270642 0.097915 0.088086
H41   H     H_    0.168568 0.270625 0.902120 0.088083
H42   H     H_    0.331408 0.770670 0.097965 0.088078
H43   H     H_    0.668566 0.770619 0.902129 0.088084
H44   H     H_    0.832191 0.722725 0.197369 0.106085
H45   H     H_    0.092394 0.319147 0.531935 0.134869
H46   H     H_    0.167813 0.722731 0.802624 0.106085
H47   H     H_    0.332191 0.222726 0.197369 0.106085
H48   H     H_    0.667816 0.222729 0.802625 0.106083
H49   H     H_    0.916717 0.420414 0.359282 0.088068
H50   H     H_    0.083287 0.420413 0.640717 0.088061
H51   H     H_    0.416718 0.920416 0.359281 0.088064
H52   H     H_    0.583287 0.920413 0.640717 0.088061
H53   H     H_    0.859928 0.575220 0.837494 0.094734
H54   H     H_    0.140096 0.575199 0.162477 0.094733
H55   H     H_    0.359921 0.075216 0.837502 0.094738
H56   H     H_    0.907646 0.319123 0.468031 0.134875
H57   H     H_    0.640070 0.075214 0.162507 0.094728
H58   H     H_    0.592394 0.819146 0.531935 0.134869
H59   H     H_    0.407640 0.819131 0.468039 0.134874
H60   H     H_    0.749881 0.714636 0.657060 0.202676
N1    N     N_R   0.908660 0.628630 0.995840 -0.045213
N2    N     N_R   0.096530 0.421430 0.063580 -0.040398
N3    N     N_R   0.403470 0.921430 0.936420 -0.040404
N4    N     N_R   0.596530 0.921430 0.063580 -0.040398
N5    N     N_R   0.927500 0.575670 0.211370 -0.041369
N6    N     N_R   0.072500 0.575670 0.788630 -0.041370
N7    N     N_R   0.427500 0.075670 0.211370 -0.041370
N8    N     N_R   0.572500 0.075670 0.788630 -0.041370
N9    N     N_R   0.908660 0.365680 0.995820 -0.045517
N10   N     N_R   0.091340 0.365680 0.004180 -0.045517
N11   N     N_R   0.408660 0.865680 0.995820 -0.045519
N12   N     N_R   0.091340 0.628630 0.004160 -0.045218
N13   N     N_R   0.591340 0.865680 0.004180 -0.045516
N14   N     N_R   0.922310 0.631420 0.151980 -0.044549
N15   N     N_R   0.077690 0.631420 0.848020 -0.044547
N16   N     N_R   0.422310 0.131420 0.151980 -0.044548
N17   N     N_R   0.577690 0.131420 0.848020 -0.044547
N18   N     N_R   0.927500 0.426330 0.211360 -0.038644
N19   N     N_R   0.072500 0.426330 0.788640 -0.038644
N20   N     N_R   0.427500 0.926330 0.211360 -0.038643
N21   N     N_R   0.572500 0.926330 0.788640 -0.038644
N22   N     N_R   0.903470 0.570760 0.936440 -0.039050
N23   N     N_R   0.408660 0.128630 0.995840 -0.045214
N24   N     N_R   0.096530 0.570760 0.063560 -0.039046
N25   N     N_R   0.403470 0.070760 0.936440 -0.039050
N26   N     N_R   0.596530 0.070760 0.063560 -0.039047
N27   N     N_1   0.166829 0.252878 0.274882 -0.093618
N28   N     N_1   0.833204 0.252851 0.725090 -0.093589
N29   N     N_1   0.666828 0.752877 0.274883 -0.093620
N30   N     N_1   0.333194 0.752862 0.725100 -0.093574
N31   N     N_R   0.591340 0.128630 0.004160 -0.045215
N32   N     N_R   0.922310 0.368460 0.151950 -0.038804
N33   N     N_R   0.077690 0.368460 0.848050 -0.038803
N34   N     N_R   0.422310 0.868460 0.151950 -0.038804
N35   N     N_R   0.577690 0.868460 0.848050 -0.038803
N36   N     N_R   0.903470 0.421430 0.936420 -0.040401
Ni1   Ni    Ni4+2 0.000000 0.630300 0.000000 0.207066
Ni2   Ni    Ni4+2 0.500000 0.130300 0.000000 0.207067
Ni3   Ni    Ni4+2 0.000000 0.369700 0.000000 0.209370
Ni4   Ni    Ni4+2 0.500000 0.869700 0.000000 0.209369
Ni5   Ni    Ni4+2 0.988090 0.497570 0.863760 0.211418
Ni6   Ni    Ni4+2 0.011910 0.497570 0.136240 0.211421
Ni7   Ni    Ni4+2 0.488090 0.997570 0.863760 0.211420
Ni8   Ni    Ni4+2 0.511910 0.997570 0.136240 0.211418

loop_
_geom_bond_atom_site_label_1
_geom_bond_atom_site_label_2
_ccdc_geom_bond_type
C83   C87   A    
C21   C26   A    
N31   Ni2   S    
C69   H42   S    
C56   C76   A    
C60   H33   S    
C79   N21   A    
C11   C47   S    
C67   C77   A    
N19   Ni5   S    
C51   C85   S    
N23   Ni2   S    
C4    C70   A    
C82   H55   S    
C2    C57   S    
N23   N25   A    
N1    Ni1   S    
C52   H21   S    
C27   C33   A    
C43   C78   A    
C6    C72   A    
C46   H10   S    
C22   H45   S    
C58   H31   S    
C51   H20   S    
C12   C85   A    
C26   H59   S    
C3    C69   A    
C12   H12   S    
N9    N36   A    
C2    C68   A    
C10   C15   A    
C65   N8    A    
N4    Ni8   S    
C23   N23   A    
C20   C25   A    
N13   Ni4   S    
N16   Ni2   S    
N7    N16   A    
C82   N25   A    
C52   C84   S    
C49   C87   S    
N10   Ni3   S    
C74   N17   A    
C75   H49   S    
C6    C15   S    
N21   N35   A    
C29   C78   S    
C79   H52   S    
C28   C35   A    
N20   N34   A    
C9    C31   A    
C23   C86   A    
C54   H24   S    
C38   H3    S    
C10   C46   S    
N8    N17   A    
N11   Ni4   S    
C30   C32   A    
C24   C28   A    
C30   C67   S    
C36   C44   S    
N9    Ni3   S    
N18   N32   A    
C3    C60   A    
C42   N34   A    
C72   H46   S    
C48   H17   S    
C8    C65   A    
C18   C22   A    
C40   C45   A    
N17   Ni2   S    
C73   N16   A    
C37   H6    S    
C65   H39   S    
C59   N2    A    
C52   C54   D    
N6    N15   A    
N33   Ni3   S    
C66   C89   A    
C66   H40   S    
C25   C29   A    
N7    Ni8   S    
N15   Ni1   S    
C20   C91   S    
C90   N28   T    
C28   C45   S    
N32   Ni3   S    
N6    Ni5   S    
C47   H11   S    
N19   N33   A    
C58   N36   A    
N5    Ni6   S    
C81   N24   A    
C14   C20   A    
C11   C33   A    
C7    C73   A    
C24   H56   S    
C70   N13   A    
C71   H44   S    
N18   Ni6   S    
C80   H53   S    
C78   C79   A    
C36   H60   S    
C73   H47   S    
N3    N11   A    
C82   C86   A    
N26   Ni8   S    
N1    N22   A    
C71   N14   A    
C18   C88   S    
C66   N9    A    
C25   H58   S    
C51   C53   D    
C6    C63   A    
C76   N19   A    
C35   C39   S    
C9    C14   A    
C77   H51   S    
C41   C56   A    
N21   Ni7   S    
C12   N12   A    
C11   C16   A    
C48   H13   S    
C43   N35   A    
C34   H34   S    
C46   H15   S    
C75   N18   A    
C8    C74   A    
N35   Ni4   S    
C62   N5    A    
C41   N33   A    
C34   N31   A    
C61   H35   S    
C16   C18   A    
C32   C37   S    
C27   C56   S    
C1    N1    A    
C43   H30   S    
C5    C14   S    
C36   H5    S    
N8    Ni7   S    
C1    H1    S    
C7    C16   S    
C64   H38   S    
N36   Ni5   S    
C26   C30   A    
C68   N10   A    
C22   C27   A    
C91   N29   T    
C70   H43   S    
C72   N15   A    
N20   Ni8   S    
C1    C84   A    
N12   Ni1   S    
C61   N4    A    
N26   N31   A    
C53   H22   S    
C88   N27   T    
C55   H25   S    
C59   H32   S    
C47   H16   S    
C68   H41   S    
C9    C44   S    
C7    C64   A    
N25   Ni7   S    
C83   N26   A    
C4    C54   S    
C2    C59   A    
C50   C57   D    
C5    C62   A    
N2    N10   A    
C69   N11   A    
C38   H7    S    
C39   C48   S    
N5    N14   A    
C13   C48   S    
C44   H9    S    
C13   C35   A    
C44   H14   S    
C8    C17   S    
C38   C47   S    
C45   C75   A    
N14   Ni1   S    
C19   C24   A    
C60   N3    A    
C80   N22   A    
C5    C71   A    
C19   C90   S    
C49   C55   D    
C80   C84   A    
C62   H36   S    
C3    C53   S    
C39   H8    S    
C42   C67   A    
C74   H48   S    
N4    N13   A    
C77   N20   A    
C4    C61   A    
C64   N7    A    
C50   H19   S    
C17   C19   A    
C37   H2    S    
N12   N24   A    
C34   C87   A    
C63   H37   S    
C41   H28   S    
N34   Ni4   S    
C55   C89   S    
C58   C89   A    
C39   H4    S    
N3    Ni7   S    
C50   C86   S    
C23   H23   S    
C13   C17   A    
N2    Ni6   S    
C10   C32   A    
C15   C21   A    
C40   H27   S    
C83   H57   S    
N22   Ni5   S    
C29   C31   A    
C81   H54   S    
C31   C36   S    
C57   H26   S    
C33   C38   S    
C92   N30   T    
C63   N6    A    
N24   Ni6   S    
C37   C46   S    
C81   C85   A    
C42   H29   S    
C49   H18   S    
C40   N32   A    
C21   C92   S    
C76   H50   S    
