data_mof_unit_28296.cif
_audit_creation_date              2012-12-10T16:55:42-0500
_audit_creation_method            fapswitch 2.2
_symmetry_space_group_name_H-M    P1
_symmetry_Int_Tables_number       1
_space_group_crystal_system       triclinic
_cell_length_a                    7.822795
_cell_length_b                    8.561692
_cell_length_c                    10.470019
_cell_angle_alpha                 91.787461
_cell_angle_beta                  84.635106
_cell_angle_gamma                 93.586997
_cell_volume                      696.577529519

loop_
_atom_site_label
_atom_site_type_symbol
_atom_type_description
_atom_site_fract_x
_atom_site_fract_y
_atom_site_fract_z
_atom_type_partial_charge
C1    C     C_R   0.545543 0.794530 0.496805 0.943796
C2    C     C_3   0.499326 0.500368 0.877589 0.036916
C3    C     C_3   0.395499 0.380046 0.046260 -0.172470
C4    C     C_3   0.604501 0.619953 0.953740 -0.172469
C5    C     C_2   0.569508 0.958055 0.494858 -0.381022
C6    C     C_2   0.430492 0.041945 0.505147 -0.381022
C7    C     C_R   0.454457 0.205471 0.503198 0.943796
C8    C     C_R   0.500126 0.500465 0.742460 0.843638
C9    C     C_R   0.499874 0.499535 0.257540 0.843643
C10   C     C_3   0.338494 0.516761 0.970950 -0.132044
C11   C     C_3   0.661505 0.483239 0.029050 -0.132044
C12   C     C_3   0.443991 0.636315 0.049805 -0.190217
C13   C     C_3   0.556008 0.363685 0.950195 -0.190217
C14   C     C_3   0.500674 0.499632 0.122411 0.036915
H1    H     H_    0.398528 0.746928 0.095356 0.137776
H2    H     H_    0.063311 0.698491 0.660103 0.327945
H3    H     H_    0.601472 0.253072 0.904644 0.137776
H4    H     H_    0.206695 0.530461 0.943346 0.148614
H5    H     H_    0.793305 0.469539 0.056654 0.148614
H6    H     H_    0.310626 0.282765 0.088960 0.145435
H7    H     H_    0.689374 0.717234 0.911041 0.145435
H8    H     H_    0.700914 0.008860 0.484938 0.191216
H9    H     H_    0.299086 0.991140 0.515068 0.191215
H10   H     H_    0.936689 0.301509 0.339896 0.327946
N1    N     N_2   0.950320 0.457950 0.465730 0.180169
N2    N     N_2   0.049680 0.542050 0.534270 0.180169
O1    O     O_R   0.389250 0.738570 0.508410 -0.634481
O2    O     O_3   0.969915 0.643640 0.615422 -0.668180
O3    O     O_R   0.610750 0.261430 0.491590 -0.634481
O4    O     O_R   0.678390 0.711620 0.486450 -0.578681
O5    O     O_R   0.321610 0.288380 0.513550 -0.578682
O6    O     O_R   0.355460 0.513510 0.697030 -0.648748
O7    O     O_R   0.644540 0.486490 0.302970 -0.648747
O8    O     O_R   0.644600 0.486560 0.675070 -0.576259
O9    O     O_R   0.355400 0.513440 0.324930 -0.576258
O10   O     O_3   0.030085 0.356360 0.384578 -0.668180
Zn1   Zn    Zn3+2 0.306940 0.517990 0.514670 1.026594
Zn2   Zn    Zn3+2 0.693060 0.482010 0.485330 1.026594

loop_
_geom_bond_atom_site_label_1
_geom_bond_atom_site_label_2
_ccdc_geom_bond_type
O3    Zn2   S    
H2    O2    S    
C2    C4    S    
C9    C14   S    
N2    Zn1   S    
C6    C7    S    
C7    O3    A    
N1    Zn2   S    
C4    C12   S    
N2    O2    S    
O7    Zn2   S    
C3    C13   S    
C12   H1    S    
C13   H3    S    
C3    H6    S    
C3    C10   S    
C8    O8    A    
O6    Zn1   S    
C4    C11   S    
C9    O7    A    
C4    H7    S    
C11   C13   S    
C11   H5    S    
H10   O10   S    
C3    C14   S    
C10   C12   S    
O1    Zn1   S    
C1    C5    S    
C6    H9    S    
C1    O4    A    
O9    Zn1   S    
C10   H4    S    
C5    C6    D    
C11   C14   S    
C7    O5    A    
N1    O10   S    
C8    O6    A    
O4    Zn2   S    
C9    O9    A    
C1    O1    A    
C2    C13   S    
N1    N2    D    
O8    Zn2   S    
C2    C8    S    
C5    H8    S    
O5    Zn1   S    
C12   C14   S    
C2    C10   S    
