data_mof_unit_42180.cif
_audit_creation_date              2012-12-10T17:03:23-0500
_audit_creation_method            fapswitch 2.2
_symmetry_space_group_name_H-M    P1
_symmetry_Int_Tables_number       1
_space_group_crystal_system       triclinic
_cell_length_a                    15.018072
_cell_length_b                    11.075259
_cell_length_c                    9.878577
_cell_angle_alpha                 111.639423
_cell_angle_beta                  98.57878
_cell_angle_gamma                 90.630704
_cell_volume                      1506.30550955

loop_
_atom_site_label
_atom_site_type_symbol
_atom_type_description
_atom_site_fract_x
_atom_site_fract_y
_atom_site_fract_z
_atom_type_partial_charge
C1    C     C_R   0.495934 0.254402 0.440524 0.882643
C2    C     C_R   0.504248 0.745603 0.559570 0.884725
C3    C     C_R   0.050036 0.325817 0.598508 -0.165301
C4    C     C_R   0.949798 0.674222 0.401961 -0.173061
C5    C     C_2   0.484570 0.116131 0.408793 -0.319881
C6    C     C_2   0.516298 0.883853 0.591858 -0.327871
C7    C     C_2   0.518680 0.064924 0.507690 0.158149
C8    C     C_2   0.481266 0.936188 0.494641 0.162352
C9    C     C_2   0.502907 0.515258 0.081964 0.029964
C10   C     C_2   0.489235 0.496209 0.920268 0.068903
C11   C     C_R   0.328991 0.496822 0.500141 0.849449
C12   C     C_R   0.670976 0.503030 0.499877 0.847152
C13   C     C_R   0.810140 0.593873 0.452481 0.072809
C14   C     C_R   0.189860 0.406727 0.548946 0.079143
C15   C     C_R   0.767312 0.505758 0.499065 -0.094446
C16   C     C_R   0.232605 0.494127 0.501175 -0.092933
C17   C     C_R   0.816366 0.419502 0.548384 -0.269667
C18   C     C_R   0.183440 0.580019 0.451318 -0.253193
C19   C     C_R   0.908821 0.416711 0.549070 0.110489
C20   C     C_R   0.091002 0.583007 0.450919 0.107918
C21   C     C_R   0.953048 0.501749 0.499782 0.045535
C22   C     C_R   0.046807 0.498116 0.500428 0.042845
C23   C     C_R   0.903793 0.590772 0.450765 0.074873
C24   C     C_R   0.096106 0.409391 0.549911 0.075541
C25   C     C_R   0.957469 0.329581 0.598018 -0.190103
C26   C     C_R   0.042329 0.670164 0.401992 -0.186607
Cu1   Cu    Cu3+1 0.515770 0.521810 0.644910 0.990786
Cu2   Cu    Cu3+1 0.484230 0.478190 0.355090 1.018712
H1    H     H_    0.781901 0.353503 0.585187 0.173278
H2    H     H_    0.217834 0.645778 0.414121 0.175581
H3    H     H_    0.923799 0.264031 0.636166 0.166936
H4    H     H_    0.075963 0.735574 0.363619 0.166957
H5    H     H_    0.084441 0.257155 0.638058 0.186808
H6    H     H_    0.915313 0.742830 0.362389 0.184013
H7    H     H_    0.563802 0.938701 0.690190 0.169102
H8    H     H_    0.438258 0.060128 0.309348 0.169864
H9    H     H_    0.434719 0.429338 0.845394 0.147903
H10   H     H_    0.553961 0.588779 0.157225 0.187070
N1    N     N_2   0.460520 0.445420 0.137370 -0.083403
N2    N     N_2   0.539480 0.554580 0.862630 -0.089509
O1    O     O_R   0.508410 0.332340 0.577400 -0.548349
O2    O     O_R   0.491590 0.667660 0.422600 -0.549645
O3    O     O_R   0.481780 0.295500 0.332650 -0.573844
O4    O     O_R   0.518220 0.704500 0.667350 -0.588776
O5    O     O_R   0.383570 0.518390 0.622380 -0.578259
O6    O     O_R   0.616430 0.481610 0.377620 -0.573888
O7    O     O_R   0.356940 0.481550 0.377630 -0.544676
O8    O     O_R   0.643060 0.518450 0.622370 -0.581471
I1    I     I_    0.733651 0.737996 0.399873 -0.404557
I2    I     I_    0.266708 0.265110 0.606331 -0.424208
I3    I     I_    0.362758 0.841553 0.333584 -0.370169
I4    I     I_    0.635492 0.161587 0.672240 -0.405636
N3    N     N_2   0.612882 0.635210 0.952567 -0.336399
H11   H     H_    0.627515 0.708478 0.916859 0.285096
C27   C     C_3   0.692178 0.566477 0.973303 -0.561647
H12   H     H_    0.747848 0.637282 0.047847 0.219715
H13   H     H_    0.714841 0.513653 0.866384 0.244761
H14   H     H_    0.677998 0.495497 0.023920 0.227668
N4    N     N_2   0.388199 0.360346 0.050175 -0.302382
H15   H     H_    0.343207 0.396924 0.987924 0.249719
C28   C     C_3   0.412466 0.229848 0.971718 -0.546572
H16   H     H_    0.350318 0.165667 0.913064 0.222280
H17   H     H_    0.449521 0.190020 0.049914 0.243638
H18   H     H_    0.455492 0.229582 0.889456 0.214078

loop_
_geom_bond_atom_site_label_1
_geom_bond_atom_site_label_2
_ccdc_geom_bond_type
Cu1   O8    S    
C25   H3    S    
C28   H18   S    
C4    C26   A    
C27   H12   S    
Cu2   O7    S    
C26   H4    S    
C18   H2    S    
C17   H1    S    
C9    C10   S    
Cu1   O1    S    
Cu2   O3    S    
C11   O7    A    
C1    C5    S    
C12   C15   S    
C9    N1    D    
Cu1   N2    S    
C12   O8    A    
N1    N4    S    
Cu1   O5    S    
C13   C15   A    
C7    C8    S    
N4    H15   S    
C14   I2    S    
C21   C22   A    
C8    I3    S    
Cu2   O6    S    
C3    C24   A    
C2    C6    S    
C20   C26   A    
C2    O2    A    
C10   H9    S    
C13   I1    S    
Cu1   O4    S    
C22   C24   A    
C16   C18   A    
C9    H10   S    
C17   C19   A    
C20   C22   A    
C7    I4    S    
C18   C20   A    
C27   H13   S    
C4    H6    S    
C28   H16   S    
C19   C25   A    
C14   C16   A    
C11   O5    A    
N4    C28   S    
C3    H5    S    
N3    C27   S    
C5    H8    S    
C3    C25   A    
C6    H7    S    
C13   C23   A    
C10   N2    D    
N2    N3    S    
C11   C16   S    
C27   H14   S    
C14   C24   A    
Cu1   Cu2   S    
C5    C7    D    
C4    C23   A    
C6    C8    D    
Cu2   O2    S    
Cu2   N1    S    
C19   C21   A    
C15   C17   A    
C21   C23   A    
C1    O3    A    
C28   H17   S    
C1    O1    A    
N3    H11   S    
C2    O4    A    
C12   O6    A    
