data_mof_unit_26716.cif
_audit_creation_date              2012-12-10T17:03:45-0500
_audit_creation_method            fapswitch 2.2
_symmetry_space_group_name_H-M    P1
_symmetry_Int_Tables_number       1
_space_group_crystal_system       triclinic
_cell_length_a                    10.093301
_cell_length_b                    10.710295
_cell_length_c                    13.241534
_cell_angle_alpha                 90.185078
_cell_angle_beta                  74.151636
_cell_angle_gamma                 89.960922
_cell_volume                      1377.01822911

loop_
_atom_site_label
_atom_site_type_symbol
_atom_type_description
_atom_site_fract_x
_atom_site_fract_y
_atom_site_fract_z
_atom_type_partial_charge
C1    C     C_R   0.500120 0.737196 0.500014 0.946762
C2    C     C_R   0.386108 0.470897 0.813818 -0.141718
C3    C     C_2   0.600713 0.065041 0.535366 0.489990
C4    C     C_R   0.427085 0.490668 0.701416 0.894343
C5    C     C_2   0.491511 0.131766 0.526693 -0.387824
C6    C     C_2   0.588183 0.929980 0.542420 -0.280114
C7    C     C_2   0.501977 0.869482 0.498791 -0.375389
C8    C     C_2   0.097807 0.426115 0.439957 0.519950
C9    C     C_2   0.950689 0.441751 0.430507 -0.255275
C10   C     C_R   0.498301 0.262823 0.506007 0.945079
C11   C     C_R   0.573503 0.501885 0.297748 0.885049
C12   C     C_R   0.433426 0.426647 0.979791 -0.123417
C13   C     C_R   0.782286 0.430122 0.025219 -0.289687
C14   C     C_R   0.612610 0.489916 0.184277 -0.229721
C15   C     C_R   0.255696 0.513460 0.867833 -0.438357
C16   C     C_R   0.207394 0.498277 0.975368 0.500473
C17   C     C_R   0.291055 0.444335 0.030859 0.393773
C18   C     C_3   0.849700 0.653107 0.179531 0.204694
C19   C     C_3   0.950419 0.695904 0.239705 -0.729191
C20   C     C_3   0.121733 0.227336 0.366441 0.105524
C21   C     C_3   0.229506 0.124994 0.332683 -0.826873
C22   C     C_R   0.475488 0.421077 0.869345 0.036291
C23   C     C_R   0.537363 0.431291 0.032670 0.104002
C24   C     C_R   0.676308 0.405712 0.977768 0.104286
C25   C     C_R   0.707554 0.365224 0.873747 -0.226312
C26   C     C_R   0.607492 0.372197 0.819626 -0.148389
C27   C     C_R   0.508986 0.476152 0.135002 -0.323122
C28   C     C_R   0.750829 0.481836 0.126318 0.497495
H1    H     H_    0.390858 0.089610 0.537858 0.108984
H2    H     H_    0.189437 0.557318 0.826133 0.177688
H3    H     H_    0.636759 0.342787 0.738484 0.188075
H4    H     H_    0.746209 0.688772 0.222901 0.087249
H5    H     H_    0.877651 0.698056 0.100994 0.114503
H6    H     H_    0.055412 0.659607 0.202351 0.291316
H7    H     H_    0.954134 0.799496 0.240947 0.175803
H8    H     H_    0.916103 0.662191 0.321781 0.249156
H9    H     H_    0.067065 0.236030 0.304441 0.173600
H10   H     H_    0.047976 0.197969 0.441779 0.140238
H11   H     H_    0.284729 0.111582 0.393652 0.250794
H12   H     H_    0.656434 0.879324 0.578795 0.169648
H13   H     H_    0.178865 0.035883 0.321737 0.206092
H14   H     H_    0.305093 0.150367 0.257561 0.252866
H15   H     H_    0.286113 0.336636 0.148259 0.337954
H16   H     H_    0.037365 0.583264 0.979234 0.301766
H17   H     H_    0.791694 0.056335 0.539800 0.314751
H18   H     H_    0.435211 0.915497 0.458658 0.142922
H19   H     H_    0.087099 0.569900 0.538215 0.101354
H20   H     H_    0.925118 0.400049 0.363574 0.218073
H21   H     H_    0.873955 0.530105 0.566103 0.153033
H22   H     H_    0.811438 0.337536 0.832014 0.144665
H23   H     H_    0.888385 0.413997 0.981972 0.182727
H24   H     H_    0.406941 0.505981 0.177190 0.236684
N1    N     N_2   0.148270 0.498670 0.498870 -0.219927
N2    N     N_2   0.852610 0.498640 0.498840 -0.219348
O1    O     O_R   0.386950 0.680940 0.500020 -0.623736
O2    O     O_3   0.188079 0.340855 0.377050 -0.553442
O3    O     O_3   0.229296 0.405158 0.131871 -0.727450
O4    O     O_3   0.078726 0.537850 0.028369 -0.715107
O5    O     O_3   0.723791 0.121827 0.535862 -0.758475
O6    O     O_R   0.613110 0.680900 0.499980 -0.615353
O7    O     O_R   0.330780 0.500000 0.653640 -0.622925
O8    O     O_R   0.556930 0.499960 0.653610 -0.633971
O9    O     O_R   0.386890 0.319100 0.500020 -0.589017
O10   O     O_R   0.613050 0.319060 0.499980 -0.544295
O11   O     O_R   0.443070 0.500040 0.346390 -0.578527
O12   O     O_R   0.669220 0.500000 0.346360 -0.578124
O13   O     O_3   0.854419 0.520668 0.169405 -0.536211
Zn1   Zn    Zn3+2 0.349000 0.500030 0.500020 0.980313
Zn2   Zn    Zn3+2 0.651000 0.499970 0.499980 0.963336

loop_
_geom_bond_atom_site_label_1
_geom_bond_atom_site_label_2
_ccdc_geom_bond_type
C8    N1    D    
C2    C22   A    
C2    C4    S    
C23   C24   A    
C13   C28   A    
C6    C7    D    
C2    C15   A    
C23   C27   A    
C14   C27   A    
C20   H10   S    
C10   O9    A    
C21   H11   S    
C11   O12   A    
C20   O2    S    
H19   N1    S    
C3    C6    S    
O11   Zn1   S    
O1    Zn1   S    
C1    O1    A    
C24   C25   A    
C26   H3    S    
C16   O4    S    
O10   Zn2   S    
C27   H24   S    
C12   C17   A    
C20   H9    S    
C12   C23   A    
C8    O2    S    
C16   C17   A    
N2    Zn2   S    
O6    Zn2   S    
C9    H20   S    
C21   H13   S    
C4    O7    A    
C18   H5    S    
C5    H1    S    
C19   H8    S    
C13   H23   S    
C13   C24   A    
C11   C14   S    
C6    H12   S    
O12   Zn2   S    
C18   H4    S    
C15   C16   A    
H15   O3    S    
C21   H14   S    
C7    H18   S    
C4    O8    A    
C5    C10   S    
C28   O13   S    
C12   C22   A    
C20   C21   S    
C18   O13   S    
C15   H2    S    
C18   C19   S    
C22   C26   A    
C1    O6    A    
H16   O4    S    
N1    Zn1   S    
O7    Zn1   S    
O9    Zn1   S    
H17   O5    S    
C19   H7    S    
C9    N2    D    
C14   C28   A    
C25   C26   A    
C1    C7    S    
C11   O11   A    
C25   H22   S    
C10   O10   A    
H21   N2    S    
O8    Zn2   S    
C17   O3    S    
C8    C9    S    
C3    C5    D    
C19   H6    S    
C3    O5    S    
