data_mof_unit_63841.cif
_audit_creation_date              2013-03-05T16:31:09-0500
_audit_creation_method            fapswitch 2.2
_symmetry_space_group_name_H-M    P1
_symmetry_Int_Tables_number       1
_space_group_crystal_system       triclinic
_cell_length_a                    38.613576
_cell_length_b                    32.060853
_cell_length_c                    21.540185
_cell_angle_alpha                 89.999582
_cell_angle_beta                  56.142929
_cell_angle_gamma                 89.999166
_cell_volume                      22144.5839881

loop_
_atom_site_label
_atom_site_type_symbol
_atom_site_description
_atom_site_fract_x
_atom_site_fract_y
_atom_site_fract_z
_atom_type_partial_charge
O1    O     O_R   0.939010 0.534400 0.560970 -0.584234
O2    O     O_R   0.060990 0.534400 0.439030 -0.584235
O3    O     O_R   0.439010 0.034400 0.560970 -0.584363
O4    O     O_R   0.560990 0.034400 0.439030 -0.584642
O5    O     O_R   0.938970 0.465540 0.561010 -0.634067
O6    O     O_R   0.061030 0.465540 0.438990 -0.634063
O7    O     O_R   0.438970 0.965540 0.561010 -0.634041
O8    O     O_R   0.561030 0.965540 0.438990 -0.634104
C1    C     C_R   0.919264 0.499977 0.580626 0.928364
C2    C     C_R   0.080737 0.499977 0.419373 0.928364
C3    C     C_R   0.419263 0.999977 0.580629 0.928572
C4    C     C_R   0.580736 0.999977 0.419373 0.928663
O9    O     O_R   0.999990 0.534400 0.407410 -0.619355
O10   O     O_R   0.000010 0.534400 0.592590 -0.619363
O11   O     O_R   0.499990 0.034400 0.407410 -0.619350
O12   O     O_R   0.500010 0.034400 0.592590 -0.619394
O13   O     O_R   0.999950 0.465540 0.407450 -0.633014
O14   O     O_R   0.000050 0.465540 0.592550 -0.633014
O15   O     O_R   0.499950 0.965540 0.407450 -0.633029
O16   O     O_R   0.500050 0.965540 0.592550 -0.633052
C5    C     C_R   0.996479 0.499920 0.382236 0.934464
C6    C     C_R   0.003521 0.499920 0.617764 0.934476
C7    C     C_R   0.496482 0.999920 0.382233 0.934384
C8    C     C_R   0.503520 0.999920 0.617765 0.934667
Zn1   Zn    Zn3+2 0.000000 0.545950 0.500000 1.029462
Zn2   Zn    Zn3+2 0.500000 0.045950 0.500000 1.028766
Zn3   Zn    Zn3+2 1.000000 0.454000 0.500000 0.966582
Zn4   Zn    Zn3+2 0.500000 0.954000 0.500000 0.966437
C9    C     C_1   0.000001 0.375004 0.999999 -0.052382
C10   C     C_1   0.500001 0.875004 0.999990 -0.052240
C11   C     C_1   0.500001 0.624775 0.999998 -0.167441
C12   C     C_1   1.000000 0.124775 1.000000 -0.167585
C13   C     C_R   0.000001 0.293264 0.999999 0.140641
C14   C     C_R   0.500003 0.793263 0.999989 0.140724
C15   C     C_R   0.997497 0.271638 0.946229 -0.155136
C16   C     C_R   0.002504 0.271638 0.053768 -0.155145
C17   C     C_R   0.496971 0.771637 0.946804 -0.155046
C18   C     C_R   0.503034 0.771639 0.053175 -0.155035
C19   C     C_3   0.971189 0.538267 0.313055 0.149122
C20   C     C_3   0.028809 0.538267 0.686947 0.149113
C21   C     C_3   0.471104 0.038215 0.313147 0.149228
C22   C     C_3   0.528801 0.038273 0.686955 0.149001
H1    H     H_    0.986367 0.567301 0.315168 0.116143
H2    H     H_    0.013630 0.567301 0.684832 0.116134
H3    H     H_    0.486247 0.067278 0.315256 0.115983
H4    H     H_    0.513615 0.067304 0.684849 0.115972
C23   C     C_3   0.975443 0.539205 0.236963 -0.547535
C24   C     C_3   0.024552 0.539207 0.763041 -0.547547
C25   C     C_3   0.475314 0.039133 0.237094 -0.547288
C26   C     C_3   0.524545 0.039211 0.763048 -0.547592
H5    H     H_    0.944918 0.541576 0.243525 0.246726
H6    H     H_    0.055075 0.541584 0.756483 0.246726
H7    H     H_    0.444765 0.041372 0.243720 0.246859
H8    H     H_    0.555069 0.041590 0.756489 0.246771
H9    H     H_    0.992893 0.567763 0.205611 0.160634
H10   H     H_    0.007096 0.567763 0.794395 0.160621
H11   H     H_    0.492647 0.067751 0.205806 0.160491
H12   H     H_    0.507086 0.067764 0.794407 0.160479
H13   H     H_    0.053409 0.536197 0.248347 0.168422
H14   H     H_    0.946589 0.536195 0.751657 0.168416
H15   H     H_    0.553348 0.036291 0.248464 0.168517
H16   H     H_    0.446581 0.036185 0.751664 0.168402
H17   H     H_    0.060578 0.530240 0.138289 0.162042
H18   H     H_    0.939417 0.530232 0.861718 0.162038
H19   H     H_    0.560459 0.030466 0.138447 0.161902
H20   H     H_    0.439412 0.030224 0.861722 0.162033
C27   C     C_3   0.042555 0.504456 0.245497 -0.102198
C28   C     C_3   0.957445 0.504454 0.754503 -0.102187
C29   C     C_3   0.542540 0.004545 0.245514 -0.101862
C30   C     C_3   0.457443 0.004446 0.754505 -0.102000
C31   C     C_3   0.977472 0.457603 0.306489 -0.075036
C32   C     C_3   0.022529 0.457603 0.693510 -0.075051
C33   C     C_3   0.477534 0.957574 0.306433 -0.075379
C34   C     C_3   0.522534 0.957606 0.693505 -0.076047
C35   C     C_3   0.996046 0.499591 0.314512 -0.027841
C36   C     C_3   0.003953 0.499591 0.685488 -0.027836
C37   C     C_3   0.496041 0.999592 0.314517 -0.027960
C38   C     C_3   0.503952 0.999591 0.685489 -0.027727
H21   H     H_    0.998911 0.431987 0.298525 0.225811
H22   H     H_    0.001090 0.431987 0.701479 0.225817
H23   H     H_    0.498979 0.931983 0.298552 0.225719
H24   H     H_    0.501100 0.931987 0.701470 0.225840
C39   C     C_3   0.999389 0.500070 0.190102 -0.074285
C40   C     C_3   0.000611 0.500070 0.809898 -0.074274
C41   C     C_3   0.499389 0.000075 0.190103 -0.074417
C42   C     C_3   0.500611 0.000070 0.809899 -0.074213
C43   C     C_3   0.044201 0.502042 0.172506 -0.360007
C44   C     C_3   0.955798 0.502036 0.827495 -0.360027
C45   C     C_3   0.544193 0.002192 0.172513 -0.359681
C46   C     C_3   0.455797 0.002030 0.827496 -0.359925
C47   C     C_3   0.975751 0.460339 0.236509 0.159663
C48   C     C_3   0.024254 0.460341 0.763487 0.159663
C49   C     C_3   0.475882 0.960265 0.236370 0.159777
C50   C     C_3   0.524259 0.960345 0.763482 0.159720
H25   H     H_    0.942602 0.464322 0.255007 0.158606
H26   H     H_    0.057403 0.464329 0.744984 0.158635
H27   H     H_    0.442739 0.964111 0.254762 0.158242
H28   H     H_    0.557408 0.964337 0.744979 0.158759
H29   H     H_    0.062882 0.474966 0.137761 0.247586
H30   H     H_    0.937122 0.474957 0.862233 0.247579
H31   H     H_    0.562980 0.975203 0.137612 0.247662
H32   H     H_    0.437125 0.974949 0.862232 0.247579
H33   H     H_    0.788416 0.482910 0.808363 0.142267
H34   H     H_    0.211584 0.483075 0.191571 0.142267
H35   H     H_    0.288415 0.976792 0.805507 0.142722
H36   H     H_    0.711590 0.966114 0.201964 0.143604
C51   C     C_R   0.728222 0.490335 0.826301 -0.172018
C52   C     C_R   0.271778 0.490427 0.173662 -0.172000
C53   C     C_R   0.228221 0.986889 0.824694 -0.172042
C54   C     C_R   0.771782 0.980876 0.179518 -0.172231
H37   H     H_    0.711585 0.482884 0.885277 0.145126
H38   H     H_    0.288415 0.483049 0.114658 0.145138
H39   H     H_    0.211585 0.976762 0.882421 0.145143
H40   H     H_    0.788421 0.966086 0.125053 0.145040
C55   C     C_R   0.706520 0.499930 0.793478 0.162125
C56   C     C_R   0.293479 0.499927 0.206522 0.162115
C57   C     C_R   0.206521 0.999930 0.793479 0.162220
C58   C     C_R   0.793481 0.999933 0.206527 0.162471
C59   C     C_R   0.728101 0.509532 0.717322 -0.178819
C60   C     C_R   0.271899 0.509435 0.282715 -0.178807
C61   C     C_R   0.228100 0.012980 0.718931 -0.179038
C62   C     C_R   0.771898 0.018992 0.276872 -0.179139
H41   H     H_    0.711368 0.516978 0.691752 0.150251
H42   H     H_    0.288631 0.516807 0.308314 0.150255
H43   H     H_    0.211368 0.023100 0.694611 0.150274
H44   H     H_    0.788629 0.033778 0.297931 0.150001
C63   C     C_R   0.771556 0.509544 0.673817 -0.155010
C64   C     C_R   0.228443 0.509447 0.326219 -0.155000
C65   C     C_R   0.271556 0.012990 0.675424 -0.154930
C66   C     C_R   0.728443 0.018999 0.320384 -0.154633
H45   H     H_    0.788201 0.516995 0.614837 0.167696
H46   H     H_    0.211798 0.516824 0.385229 0.167675
H47   H     H_    0.288200 0.023114 0.617690 0.168388
H48   H     H_    0.711796 0.033784 0.374858 0.168249
C67   C     C_R   0.793250 0.499956 0.706653 0.156634
C68   C     C_R   0.206750 0.499953 0.293347 0.156641
C69   C     C_R   0.293249 0.999955 0.706652 0.156168
C70   C     C_R   0.706751 0.999951 0.293359 0.155679
C71   C     C_R   0.771677 0.490350 0.782799 -0.183626
C72   C     C_R   0.228323 0.490442 0.217164 -0.183606
C73   C     C_R   0.271676 0.986904 0.781191 -0.183823
C74   C     C_R   0.728328 0.980891 0.223022 -0.183877
C75   C     C_1   0.662070 0.499928 0.837980 -0.062573
C76   C     C_1   0.337930 0.499927 0.162020 -0.062560
C77   C     C_1   0.162070 0.999929 0.837982 -0.062553
C78   C     C_1   0.837931 0.999930 0.162021 -0.062516
C79   C     C_1   0.837687 0.499977 0.662181 -0.048729
C80   C     C_1   0.162313 0.499974 0.337819 -0.048716
C81   C     C_1   0.337686 0.999976 0.662181 -0.048794
C82   C     C_1   0.662314 0.999974 0.337828 -0.048960
C83   C     C_1   0.875008 0.499986 0.624859 -0.137573
C84   C     C_1   0.124992 0.499984 0.375141 -0.137568
C85   C     C_1   0.375007 0.999986 0.624861 -0.137524
C86   C     C_1   0.624992 0.999985 0.375145 -0.137715
C87   C     C_1   0.624736 0.499935 0.875332 -0.167953
C88   C     C_1   0.375264 0.499934 0.124668 -0.167942
C89   C     C_1   0.124736 0.999935 0.875333 -0.167909
C90   C     C_1   0.875265 0.999936 0.124667 -0.167888
C91   C     C_1   0.500001 0.662106 0.999996 -0.059575
C92   C     C_1   1.000000 0.162105 1.000000 -0.059762
O17   O     O_R   0.965540 0.560940 0.034450 -0.620476
O18   O     O_R   0.034460 0.560940 0.965550 -0.620456
O19   O     O_R   0.465540 0.060940 0.034450 -0.620394
O20   O     O_R   0.534460 0.060940 0.965550 -0.620360
C93   C     C_R   1.000000 0.580664 0.000000 0.891985
C94   C     C_R   0.500000 0.080664 0.000000 0.891873
O21   O     O_R   0.965550 0.499950 0.127040 -0.625674
O22   O     O_R   0.034450 0.499950 0.872960 -0.625658
O23   O     O_R   0.465550 0.999950 0.127040 -0.625805
O24   O     O_R   0.534450 0.999950 0.872960 -0.625555
O25   O     O_R   0.034410 0.500000 0.058200 -0.626649
O26   O     O_R   0.965590 0.500000 0.941800 -0.626665
O27   O     O_R   0.534410 1.000000 0.058200 -0.626489
O28   O     O_R   0.465590 1.000000 0.941800 -0.626675
C95   C     C_R   0.000008 0.500469 0.121529 0.920005
C96   C     C_R   0.999992 0.500469 0.878471 0.920003
C97   C     C_R   0.500008 0.000476 0.121530 0.919732
C98   C     C_R   0.499992 0.000469 0.878471 0.919874
Zn5   Zn    Zn3+2 0.954000 0.499940 0.045990 1.006610
Zn6   Zn    Zn3+2 0.046000 0.499940 0.954010 1.006695
Zn7   Zn    Zn3+2 0.454000 0.999940 0.045990 1.006632
Zn8   Zn    Zn3+2 0.546000 0.999940 0.954010 1.007303
O29   O     O_R   0.965550 0.438960 0.034430 -0.602648
O30   O     O_R   0.034450 0.438960 0.965570 -0.602604
O31   O     O_R   0.465550 0.938960 0.034430 -0.602830
O32   O     O_R   0.534450 0.938960 0.965570 -0.602434
C99   C     C_1   0.000001 0.337688 0.999999 -0.012978
C100  C     C_1   0.500002 0.837688 0.999988 -0.012839
C101  C     C_R   0.000000 0.419251 1.000000 1.004873
C102  C     C_R   0.500000 0.919251 0.999995 1.004814
O33   O     O_R   0.499940 0.439020 0.947690 -0.613921
O34   O     O_R   0.500060 0.439020 0.052310 -0.613915
O35   O     O_R   0.999940 0.939020 0.947690 -0.613891
O36   O     O_R   0.000060 0.939020 0.052310 -0.613732
C103  C     C_R   0.500000 0.419551 0.000000 0.898871
C104  C     C_R   1.000000 0.919551 0.000000 0.898622
O37   O     O_R   0.560960 0.500010 0.886780 -0.613331
O38   O     O_R   0.439040 0.500010 0.113220 -0.613328
O39   O     O_R   0.060960 0.000010 0.886780 -0.613281
O40   O     O_R   0.939040 0.000010 0.113220 -0.613101
O41   O     O_R   0.560970 0.499940 0.991330 -0.614198
O42   O     O_R   0.439030 0.499940 0.008670 -0.614195
O43   O     O_R   0.060970 0.999940 0.991330 -0.614070
O44   O     O_R   0.939030 0.999940 0.008670 -0.613961
C105  C     C_R   0.580452 0.499953 0.919586 0.899939
C106  C     C_R   0.419547 0.499953 0.080414 0.899942
C107  C     C_R   0.080453 0.999953 0.919586 0.899763
C108  C     C_R   0.919548 0.999953 0.080413 0.899545
Zn9   Zn    Zn3+2 0.499970 0.500020 0.930220 0.979695
Zn10  Zn    Zn3+2 0.500030 0.500020 0.069780 0.979693
Zn11  Zn    Zn3+2 0.999970 0.000020 0.930220 0.980124
Zn12  Zn    Zn3+2 0.000030 0.000020 0.069780 0.980190
O45   O     O_R   0.500000 0.561000 0.947810 -0.613710
O46   O     O_R   0.500000 0.561000 0.052190 -0.613716
O47   O     O_R   0.000000 0.061000 0.947810 -0.613645
O48   O     O_R   0.000000 0.061000 0.052190 -0.613780
C109  C     C_R   0.500000 0.580502 1.000000 0.901224
C110  C     C_R   1.000000 0.080502 1.000000 0.900963
H49   H     H_    0.024649 0.711678 0.882212 0.145254
H50   H     H_    0.975347 0.711678 0.117792 0.145273
H51   H     H_    0.519244 0.211678 0.884830 0.144671
H52   H     H_    0.480753 0.211678 0.115173 0.144691
C111  C     C_R   0.510837 0.271829 0.935146 -0.175577
C112  C     C_R   0.489160 0.271829 0.064857 -0.175553
C113  C     C_R   0.013881 0.771829 0.933672 -0.175693
C114  C     C_R   0.986115 0.771829 0.066333 -0.175636
H53   H     H_    0.519247 0.288517 0.884829 0.146158
H54   H     H_    0.480751 0.288517 0.115174 0.146178
H55   H     H_    0.024652 0.788517 0.882211 0.146282
H56   H     H_    0.975344 0.788517 0.117793 0.146337
C115  C     C_R   0.499999 0.293472 0.000002 0.163222
C116  C     C_R   0.999998 0.793472 0.000002 0.163143
C117  C     C_R   0.986116 0.728367 0.066333 -0.176720
C118  C     C_R   0.013880 0.728368 0.933672 -0.176719
C119  C     C_R   0.489161 0.228367 0.064857 -0.176641
C120  C     C_R   0.510836 0.228367 0.935146 -0.176661
C121  C     C_R   0.999998 0.706727 0.000002 0.165102
C122  C     C_R   0.499998 0.206727 0.000002 0.165584
C123  C     C_1   0.499999 0.337926 0.000001 -0.064755
C124  C     C_1   0.999999 0.837926 0.000002 -0.064792
C125  C     C_1   0.999999 0.662276 0.000002 -0.065835
C126  C     C_1   0.499999 0.162276 0.000001 -0.065748
C127  C     C_1   0.999999 0.624941 0.000001 -0.174008
C128  C     C_1   0.499999 0.124941 0.000001 -0.173979
C129  C     C_1   0.500000 0.375265 0.000001 -0.168431
C130  C     C_1   0.999999 0.875265 0.000001 -0.168421
H57   H     H_    0.004445 0.288338 0.095477 0.172332
H58   H     H_    0.995556 0.288339 0.904520 0.172344
H59   H     H_    0.505385 0.788339 0.094430 0.172247
H60   H     H_    0.494621 0.788336 0.905548 0.172209
C131  C     C_R   0.503038 0.728183 0.053173 -0.177103
C132  C     C_R   0.496967 0.728181 0.946811 -0.177042
C133  C     C_R   0.002506 0.228182 0.053764 -0.177271
C134  C     C_R   0.997493 0.228182 0.946234 -0.177164
H61   H     H_    0.505395 0.711493 0.094425 0.149616
H62   H     H_    0.494610 0.711490 0.905560 0.149625
H63   H     H_    0.004454 0.211491 0.095470 0.149629
H64   H     H_    0.995546 0.211492 0.904529 0.149674
C135  C     C_R   0.500002 0.706547 0.999993 0.161371
C136  C     C_R   1.000000 0.206547 1.000000 0.161331
N1    N     N_R   0.991152 0.421727 0.192199 0.189359
O49   O     O_R   0.028369 0.407557 0.166630 -0.427254
O50   O     O_R   0.966455 0.400017 0.181475 -0.409880
N2    N     N_R   0.008861 0.421728 0.807793 0.189358
O51   O     O_R   0.971646 0.407552 0.833368 -0.427276
O52   O     O_R   0.033563 0.400021 0.818510 -0.409810
N3    N     N_R   0.491466 0.921699 0.191959 0.189488
O53   O     O_R   0.528712 0.907661 0.166501 -0.427255
O54   O     O_R   0.466897 0.899883 0.181057 -0.409998
N4    N     N_R   0.508871 0.921729 0.807783 0.189362
O55   O     O_R   0.471658 0.907549 0.833356 -0.427381
O56   O     O_R   0.533576 0.900026 0.818497 -0.409496
C137  C     C_3   0.074487 0.474010 0.242544 -0.856493
H65   H     H_    0.076329 0.478067 0.291717 0.236245
H66   H     H_    0.067093 0.441041 0.239152 0.274675
H67   H     H_    0.106057 0.480784 0.192295 0.239640
C138  C     C_3   0.925513 0.474008 0.757453 -0.856529
H68   H     H_    0.923671 0.478068 0.708281 0.236251
H69   H     H_    0.932909 0.441038 0.760841 0.274662
H70   H     H_    0.893943 0.480780 0.807704 0.239635
C139  C     C_3   0.574513 0.974121 0.242471 -0.856400
H71   H     H_    0.576337 0.978129 0.291672 0.236111
H72   H     H_    0.567172 0.941151 0.238951 0.274653
H73   H     H_    0.606077 0.980961 0.192258 0.240274
C140  C     C_3   0.425517 0.973994 0.757452 -0.856665
H74   H     H_    0.423673 0.978052 0.708281 0.236235
H75   H     H_    0.432918 0.941026 0.760835 0.274579
H76   H     H_    0.393945 0.980761 0.807704 0.239818
N5    N     N_R   0.927447 0.539751 0.378183 0.210970
O57   O     O_R   0.896247 0.538755 0.370676 -0.408414
O58   O     O_R   0.919511 0.547591 0.444148 -0.397487
N6    N     N_R   0.072551 0.539752 0.621822 0.210964
O59   O     O_R   0.103749 0.538755 0.629333 -0.408404
O60   O     O_R   0.080489 0.547589 0.555855 -0.397487
N7    N     N_R   0.427373 0.039636 0.378326 0.211034
O61   O     O_R   0.396151 0.038607 0.370884 -0.408257
O62   O     O_R   0.419464 0.047483 0.444269 -0.398021
N8    N     N_R   0.572542 0.039767 0.621829 0.210961
O63   O     O_R   0.603741 0.038774 0.629338 -0.407702
O64   O     O_R   0.580478 0.047613 0.555867 -0.398290
C141  C     C_3   0.934572 0.444093 0.375531 -0.856048
H77   H     H_    0.928024 0.411548 0.367276 0.252182
H78   H     H_    0.933628 0.444625 0.427838 0.263495
H79   H     H_    0.908730 0.463570 0.383692 0.286765
C142  C     C_3   0.065429 0.444090 0.624466 -0.856030
H80   H     H_    0.071981 0.411549 0.632730 0.252215
H81   H     H_    0.066367 0.444612 0.572165 0.263489
H82   H     H_    0.091270 0.463572 0.616290 0.286773
C143  C     C_3   0.434613 0.944060 0.375428 -0.854632
H83   H     H_    0.433534 0.944862 0.427854 0.263476
H84   H     H_    0.408760 0.963374 0.383246 0.286708
H85   H     H_    0.428196 0.911425 0.367383 0.251921
C144  C     C_3   0.565435 0.944101 0.624459 -0.853983
H86   H     H_    0.571994 0.911561 0.632720 0.252148
H87   H     H_    0.566372 0.944619 0.572159 0.263449
H88   H     H_    0.591273 0.963589 0.616283 0.287276

loop_
_geom_bond_atom_site_label_1
_geom_bond_atom_site_label_2
_geom_bond_distance
_ccdc_geom_bond_type
O36   C104  1.289232 A    
O38   C106  1.287837 A    
C39   C43   1.552767 S    
C33   C49   1.548037 S    
C68   C72   1.398792 A    
C69   C81   1.424903 S    
C54   C58   1.398886 A    
O31   C102  1.272635 A    
C141  H77   1.111020 S    
C139  H73   1.111105 S    
C67   C71   1.398789 A    
C114  C117  1.393429 A    
O24   C98   1.268350 A    
C19   C23   1.553807 S    
O35   Zn11  1.991462 S    
C18   H59   1.083737 S    
C42   C98   1.463934 S    
C137  H67   1.111107 S    
H16   C30   1.115215 S    
C81   C85   1.196750 T    
O44   C108  1.287909 A    
C15   C134  1.393240 A    
C126  C128  1.196986 T    
C23   C39   1.551813 S    
O4    C4    1.272373 A    
C88   C106  1.419980 S    
C43   H29   1.110154 S    
O40   C108  1.287831 A    
H49   C118  1.083645 S    
C66   H48   1.083662 S    
C112  H54   1.083625 S    
C21   C25   1.553802 S    
H36   C74   1.083759 S    
O34   C103  1.289234 A    
C42   C46   1.552777 S    
O16   Zn4   2.028644 S    
C87   C105  1.419983 S    
O22   Zn6   2.028402 S    
Zn9   O45   1.991576 S    
O7    Zn4   1.991645 S    
C20   C36   1.579039 S    
C118  C121  1.398827 A    
O32   C102  1.272626 A    
H19   C45   1.114064 S    
C25   C41   1.551878 S    
O18   C93   1.273138 A    
C77   C89   1.197151 T    
O9    C5    1.271360 A    
C7    C37   1.468228 S    
O34   Zn10  1.991467 S    
C48   N2    1.471271 S    
C65   H47   1.083683 S    
O26   Zn5   2.029265 S    
O27   Zn8   2.029261 S    
H51   C120  1.083642 S    
O8    Zn4   1.991651 S    
N4    O56   1.301048 A    
O47   C110  1.286361 A    
N8    O63   1.302139 A    
C66   C70   1.398792 A    
C52   C72   1.393421 A    
C141  H79   1.105006 S    
C20   C24   1.553807 S    
C1    C83   1.419088 S    
O45   C109  1.286361 A    
C45   H31   1.110154 S    
O3    Zn2   1.990451 S    
C40   C44   1.552777 S    
C4    C86   1.419088 S    
C144  H88   1.104998 S    
C59   H41   1.083660 S    
C39   C47   1.561512 S    
N6    O60   1.300335 A    
C140  H75   1.107899 S    
C133  C136  1.398797 A    
O25   C95   1.267509 A    
C114  C116  1.398854 A    
C63   H45   1.083685 S    
O3    C3    1.272385 A    
O36   Zn12  1.991467 S    
C24   H6    1.108784 S    
C65   C69   1.398774 A    
C21   H3    1.114359 S    
O17   C93   1.273141 A    
Zn6   O30   1.989847 S    
H34   C72   1.083722 S    
C25   H7    1.108773 S    
C62   H44   1.083708 S    
C19   N5    1.477475 S    
C29   C37   1.576272 S    
C89   C107  1.419983 S    
C6    C36   1.468212 S    
C13   C16   1.398652 A    
C31   H21   1.109482 S    
N7    O62   1.300323 A    
O5    C1    1.272121 A    
C103  C129  1.419873 S    
C113  C118  1.393429 A    
C112  C119  1.393426 A    
O48   C110  1.286361 A    
C22   H4    1.114369 S    
N1    O49   1.301156 A    
C111  H53   1.083621 S    
C144  H87   1.106931 S    
C48   H26   1.115858 S    
C25   H11   1.114176 S    
C58   C62   1.398881 A    
C46   H32   1.110155 S    
C117  C121  1.398830 A    
H13   C27   1.115218 S    
C56   C76   1.425349 S    
C41   C49   1.561472 S    
C18   C131  1.393243 A    
N2    O51   1.301154 A    
C142  H81   1.106930 S    
C93   C127  1.419568 S    
C19   C35   1.579033 S    
O17   Zn5   1.990416 S    
C54   H40   1.083597 S    
O18   Zn6   1.990408 S    
C47   N1    1.471267 S    
C2    C84   1.419088 S    
C30   C140  1.545904 S    
C138  H68   1.108060 S    
O24   Zn8   2.028402 S    
C29   C45   1.539649 S    
O23   C97   1.268352 A    
C143  H84   1.104985 S    
C113  C116  1.398857 A    
O13   Zn3   2.028641 S    
H50   C117  1.083637 S    
C112  C115  1.398853 A    
C114  H56   1.083626 S    
C56   C60   1.398917 A    
C76   C88   1.197158 T    
C79   C83   1.196744 T    
C61   H43   1.083616 S    
C75   C87   1.197154 T    
O8    C4    1.272125 A    
O35   C104  1.289230 A    
N5    O57   1.302140 A    
O15   Zn4   2.028641 S    
C68   C80   1.424903 S    
O33   Zn9   1.991462 S    
C21   N7    1.477506 S    
C41   C97   1.463958 S    
C22   C26   1.553808 S    
C55   C59   1.398916 A    
C12   C110  1.419433 S    
C119  C122  1.398829 A    
C27   C35   1.576286 S    
O42   Zn9   1.990483 S    
C49   H27   1.115823 S    
C91   C135  1.424832 S    
O21   C95   1.268342 A    
O22   C96   1.268344 A    
C33   C37   1.579380 S    
O14   C6    1.268456 A    
C51   H37   1.083613 S    
C80   C84   1.196744 T    
N3    O53   1.301139 A    
C78   C90   1.197148 T    
C28   C36   1.576284 S    
C5    C35   1.468212 S    
C67   C79   1.424906 S    
C121  C125  1.425140 S    
C90   C108  1.419957 S    
O10   C6    1.271360 A    
C32   H22   1.109486 S    
C13   C15   1.398651 A    
C10   C102  1.418600 S    
C51   C71   1.393421 A    
O43   Zn12  1.990480 S    
O33   C103  1.289228 A    
C111  C120  1.393429 A    
C3    C85   1.419104 S    
C47   H25   1.115856 S    
C133  H63   1.083640 S    
C20   H2    1.114373 S    
C138  H70   1.111110 S    
C16   H57   1.083739 S    
O41   C105  1.287919 A    
C53   C73   1.393421 A    
C40   C48   1.561515 S    
O26   C96   1.267508 A    
C59   C63   1.393444 A    
O21   Zn5   2.028400 S    
C14   C17   1.398671 A    
C94   C128  1.419565 S    
C34   C50   1.547902 S    
O37   C105  1.287837 A    
C53   C57   1.398868 A    
H20   C46   1.114063 S    
C15   H58   1.083732 S    
C26   H8    1.108782 S    
C63   C67   1.398784 A    
C64   C68   1.398784 A    
C32   C48   1.547905 S    
O19   Zn7   1.990416 S    
C50   H28   1.115857 S    
C17   H60   1.083729 S    
C50   N4    1.471269 S    
O29   C101  1.272632 A    
C57   C77   1.425346 S    
Zn8   O32   1.989847 S    
C33   H23   1.109498 S    
C131  C135  1.398815 A    
C33   C143  1.548781 S    
O28   C98   1.267503 A    
H17   C43   1.114061 S    
C124  C130  1.197098 T    
N8    O64   1.300333 A    
C34   H24   1.109481 S    
C111  C115  1.398854 A    
C141  H78   1.106932 S    
O12   Zn2   2.028696 S    
H52   C119  1.083638 S    
C26   H12   1.114178 S    
O19   C94   1.273141 A    
O1    C1    1.272376 A    
C70   C74   1.398762 A    
N7    O61   1.302134 A    
C41   C45   1.552705 S    
C23   H5    1.108779 S    
C28   C138  1.545908 S    
C22   N8    1.477476 S    
C113  H55   1.083621 S    
C9    C99   1.196380 T    
C10   C100  1.196386 T    
C140  H74   1.108066 S    
C131  H61   1.083638 S    
C134  C136  1.398797 A    
O23   Zn7   2.028400 S    
C44   H30   1.110156 S    
C32   C142  1.548692 S    
C8    C38   1.468210 S    
C139  H72   1.107888 S    
C69   C73   1.398800 A    
C31   C141  1.548696 S    
C61   C65   1.393444 A    
O6    C2    1.272122 A    
O4    Zn2   1.990442 S    
C60   C64   1.393443 A    
C49   N3    1.471289 S    
C17   C132  1.393243 A    
C123  C129  1.197098 T    
C52   C56   1.398877 A    
H35   C73   1.083682 S    
N3    O54   1.301023 A    
C144  H86   1.111008 S    
O44   Zn11  1.990483 S    
C120  C122  1.398824 A    
C20   N6    1.477473 S    
O2    Zn1   1.990442 S    
O10   Zn1   2.028696 S    
O13   C5    1.268456 A    
O20   Zn8   1.990408 S    
C52   H38   1.083612 S    
C31   C47   1.547906 S    
H14   C28   1.115215 S    
N2    O52   1.301048 A    
C142  H80   1.111010 S    
C34   C38   1.579417 S    
N4    O55   1.301151 A    
C40   C96   1.463937 S    
H18   C44   1.114060 S    
C132  C135  1.398814 A    
C11   C109  1.419443 S    
Zn11  O47   1.991576 S    
C39   C95   1.463941 S    
C30   C38   1.576284 S    
O15   C7    1.268451 A    
C32   C36   1.579422 S    
C34   C144  1.548680 S    
C143  H83   1.106909 S    
C70   C82   1.424932 S    
O7    C3    1.272124 A    
O40   Zn12  1.991582 S    
N6    O59   1.302140 A    
C140  H76   1.111108 S    
C21   C37   1.578916 S    
C134  H64   1.083649 S    
C92   C136  1.424829 S    
C115  C123  1.425256 S    
C54   C74   1.393418 A    
C57   C61   1.398926 A    
C42   C50   1.561516 S    
C137  H66   1.107900 S    
C29   C139  1.545905 S    
O16   C8    1.268458 A    
O39   Zn11  1.991578 S    
C53   H39   1.083614 S    
C132  H62   1.083647 S    
O11   C7    1.271350 A    
O12   C8    1.271356 A    
O5    Zn3   1.991645 S    
O1    Zn1   1.990451 S    
O9    Zn1   2.028710 S    
C30   C46   1.539688 S    
O38   Zn10  1.991582 S    
C64   H46   1.083688 S    
O28   Zn7   2.029265 S    
Zn5   O29   1.989837 S    
C55   C75   1.425349 S    
Zn12  O48   1.991570 S    
C58   C78   1.425340 S    
N1    O50   1.301053 A    
Zn7   O31   1.989837 S    
O11   Zn2   2.028710 S    
C19   H1    1.114372 S    
C139  H71   1.108066 S    
Zn10  O46   1.991570 S    
O43   C107  1.287921 A    
C24   C40   1.551810 S    
C125  C127  1.196986 T    
C27   C137  1.545902 S    
H33   C71   1.083724 S    
O6    Zn3   1.991651 S    
O27   C97   1.267513 A    
C142  H82   1.105000 S    
O39   C107  1.287843 A    
C137  H65   1.108064 S    
C13   C99   1.424281 S    
C14   C100  1.424281 S    
C51   C55   1.398875 A    
C22   C38   1.579049 S    
C138  H69   1.107898 S    
O42   C106  1.287919 A    
C28   C44   1.539682 S    
O25   Zn6   2.029261 S    
O2    C2    1.272376 A    
O41   Zn10  1.990480 S    
C23   H9    1.114179 S    
C143  H85   1.110876 S    
H15   C29   1.115209 S    
C24   H10   1.114181 S    
C104  C130  1.419869 S    
C14   C18   1.398671 A    
O14   Zn3   2.028644 S    
O46   C109  1.286361 A    
C122  C126  1.425134 S    
C27   C43   1.539685 S    
C16   C133  1.393240 A    
O20   C94   1.273138 A    
C31   C35   1.579420 S    
N5    O58   1.300338 A    
C9    C101  1.418590 S    
O37   Zn9   1.991578 S    
C26   C42   1.551804 S    
C82   C86   1.196756 T    
C116  C124  1.425256 S    
O30   C101  1.272629 A    
C62   C66   1.393437 A    
C11   C91   1.196841 T    
C60   H42   1.083658 S    
C12   C92   1.196838 T    
