data_mof_unit_68391.cif
_audit_creation_date              2012-10-26T18:26:36-0400
_audit_creation_method            fapswitch 2.2
_symmetry_space_group_name_H-M    P1
_symmetry_Int_Tables_number       1
_space_group_crystal_system       triclinic
_cell_length_a                    15.874608
_cell_length_b                    8.707862
_cell_length_c                    7.458568
_cell_angle_alpha                 102.896175
_cell_angle_beta                  94.287855
_cell_angle_gamma                 93.463562
_cell_volume                      999.04976393

loop_
_atom_site_label
_atom_site_type_symbol
_atom_type_description
_atom_site_fract_x
_atom_site_fract_y
_atom_site_fract_z
_atom_type_partial_charge
C1    C     C_R   0.492577 0.200118 0.454586 0.540018
C2    C     C_3   0.978259 0.580192 0.661657 0.248122
C3    C     C_1   0.250452 0.497841 0.507285 -0.034929
C4    C     C_1   0.749537 0.502190 0.492677 -0.035018
C5    C     C_3   0.027817 0.430064 0.636217 -0.127129
C6    C     C_3   0.972153 0.570011 0.363580 -0.126943
C7    C     C_3   0.083276 0.499094 0.506869 0.001230
C8    C     C_3   0.916698 0.500981 0.492936 0.001333
C9    C     C_1   0.175015 0.497850 0.509218 -0.037627
C10   C     C_1   0.824967 0.502204 0.490669 -0.037580
C11   C     C_R   0.922106 0.186994 0.423089 0.037225
C12   C     C_R   0.507465 0.799882 0.545414 0.540146
C13   C     C_R   0.921341 0.097399 0.558083 -0.102125
C14   C     C_R   0.876506 0.948661 0.519412 -0.119656
C15   C     C_R   0.832912 0.887953 0.345745 -0.113334
C16   C     C_R   0.833951 0.975833 0.210468 -0.089872
C17   C     C_R   0.878157 0.124853 0.249101 -0.063629
C18   C     C_R   0.077832 0.813100 0.576870 0.037482
C19   C     C_R   0.078225 0.903155 0.442299 -0.101946
C20   C     C_R   0.123085 0.051872 0.481105 -0.119682
C21   C     C_R   0.167059 0.112118 0.654499 -0.113005
C22   C     C_R   0.166370 0.023791 0.789373 -0.089702
C23   C     C_R   0.339926 0.498705 0.502066 0.541484
C24   C     C_R   0.122140 0.874787 0.750589 -0.063407
C25   C     C_R   0.403458 0.948710 0.315235 0.034844
C26   C     C_R   0.330643 0.899667 0.390175 -0.085002
C27   C     C_R   0.265990 0.801151 0.275484 -0.085801
C28   C     C_R   0.271975 0.755351 0.085593 -0.099253
C29   C     C_R   0.343082 0.807114 0.009794 -0.103652
C30   C     C_R   0.409452 0.899602 0.124898 -0.055524
C31   C     C_R   0.596523 0.051365 0.685122 0.034787
C32   C     C_R   0.590438 0.099698 0.875489 -0.055704
C33   C     C_R   0.656692 0.192105 0.991082 -0.103333
C34   C     C_R   0.660070 0.501301 0.497930 0.541328
C35   C     C_R   0.727789 0.244525 0.915786 -0.099319
C36   C     C_R   0.733871 0.199511 0.725872 -0.085816
C37   C     C_R   0.669325 0.101099 0.610661 -0.084690
C38   C     C_2   0.478065 0.033188 0.438994 -0.065377
C39   C     C_2   0.522027 0.966819 0.560997 -0.065390
C40   C     C_3   0.965431 0.351424 0.465835 -0.009985
C41   C     C_3   0.034538 0.648648 0.533963 -0.009771
C42   C     C_3   0.021716 0.419877 0.338137 0.247870
Cl1   Cl    Cl    0.053683 0.315874 0.123155 -0.684239
Cl2   Cl    Cl    0.946360 0.684274 0.876680 -0.684280
Cu1   Cu    Cu3+1 0.509330 0.517380 0.684380 0.948592
Cu2   Cu    Cu3+1 0.490670 0.482620 0.315620 0.948742
H1    H     H_    0.947423 0.624413 0.251448 0.183223
H2    H     H_    0.045408 0.857758 0.306505 0.165003
H3    H     H_    0.124084 0.120003 0.376414 0.177694
H4    H     H_    0.201849 0.226950 0.684370 0.125363
H5    H     H_    0.200475 0.070349 0.923696 0.147014
H6    H     H_    0.122354 0.807384 0.855884 0.148719
H7    H     H_    0.325821 0.931732 0.537764 0.093502
H8    H     H_    0.212255 0.756576 0.333954 0.135044
H9    H     H_    0.222506 0.676823 0.998043 0.126190
H10   H     H_    0.348024 0.771608 0.862881 0.139007
H11   H     H_    0.467429 0.924451 0.068166 0.105260
H12   H     H_    0.052546 0.375647 0.748336 0.183293
H13   H     H_    0.532478 0.074232 0.931918 0.105264
H14   H     H_    0.651669 0.227007 0.138017 0.138804
H15   H     H_    0.777184 0.322923 0.003775 0.125887
H16   H     H_    0.787612 0.244576 0.667821 0.135018
H17   H     H_    0.674226 0.069609 0.463087 0.093416
H18   H     H_    0.434105 0.376057 0.948765 0.237756
H19   H     H_    0.565894 0.623945 0.051235 0.237721
H20   H     H_    0.953858 0.143171 0.694087 0.164862
H21   H     H_    0.875236 0.880887 0.624419 0.177507
H22   H     H_    0.798143 0.773108 0.315979 0.125382
H23   H     H_    0.800148 0.928909 0.075928 0.147446
H24   H     H_    0.878199 0.191890 0.143466 0.149158
N1    N     N_2   0.476600 0.456420 0.038510 -0.253656
N2    N     N_2   0.523400 0.543580 0.961490 -0.253732
O1    O     O_R   0.506070 0.286130 0.619780 -0.494594
O2    O     O_R   0.493930 0.713870 0.380220 -0.494663
O3    O     O_R   0.490300 0.256770 0.308360 -0.516407
O4    O     O_R   0.509700 0.743230 0.691640 -0.516471
O5    O     O_R   0.386960 0.514660 0.655680 -0.520149
O6    O     O_R   0.613040 0.485340 0.344320 -0.519952
O7    O     O_R   0.371190 0.485310 0.344260 -0.474146
O8    O     O_R   0.628810 0.514690 0.655740 -0.474246

loop_
_geom_bond_atom_site_label_1
_geom_bond_atom_site_label_2
_ccdc_geom_bond_type
C24   H6    S    
C12   O2    A    
C3    C23   S    
C35   C36   A    
C27   H8    S    
Cu1   Cu2   S    
C26   C27   A    
C29   C30   A    
C5    H12   S    
Cu1   O4    S    
C18   C24   A    
C36   C37   A    
Cu2   O7    S    
C7    C42   S    
C2    C41   S    
C15   C16   A    
C30   H11   S    
Cu1   O1    S    
C18   C19   A    
H18   N1    S    
C21   H4    S    
C34   O8    A    
C11   C17   A    
C19   C20   A    
C2    Cl2   S    
C16   C17   A    
C6    C41   S    
C14   H21   S    
C40   C42   S    
C17   H24   S    
C21   C22   A    
Cu1   N2    S    
C36   H16   S    
Cu2   O3    S    
C37   H17   S    
C28   H9    S    
C13   H20   S    
C4    C34   S    
C6    H1    S    
C1    O3    A    
C18   C41   S    
Cu2   O6    S    
C19   H2    S    
C6    C8    S    
C25   C26   A    
C31   C37   A    
C20   H3    S    
C3    C9    T    
C25   C38   S    
C31   C32   A    
C35   H15   S    
C23   O5    A    
Cu2   N1    S    
C1    C38   S    
C33   H14   S    
C12   O4    A    
C22   C24   A    
C2    C5    S    
C42   Cl1   S    
C4    C10   T    
C26   H7    S    
Cu2   O2    S    
C5    C7    S    
C25   C30   A    
C7    C9    S    
C28   C29   A    
C2    C8    S    
C16   H23   S    
C29   H10   S    
H19   N2    S    
C1    O1    A    
C32   C33   A    
C12   C39   S    
N1    N2    D    
C34   O6    A    
C11   C13   A    
C38   C39   D    
C15   H22   S    
C33   C35   A    
C31   C39   S    
Cu1   O8    S    
C7    C41   S    
C11   C40   S    
C20   C21   A    
C8    C10   S    
C6    C42   S    
C5    C40   S    
C27   C28   A    
C14   C15   A    
Cu1   O5    S    
C8    C40   S    
C32   H13   S    
C23   O7    A    
C13   C14   A    
C22   H5    S    
