data_mof_unit_22211.cif
_audit_creation_date              2012-12-11T14:15:40-0500
_audit_creation_method            fapswitch 2.2
_symmetry_space_group_name_H-M    P1
_symmetry_Int_Tables_number       1
_space_group_crystal_system       triclinic
_cell_length_a                    11.131475
_cell_length_b                    12.738871
_cell_length_c                    23.527543
_cell_angle_alpha                 90.826402
_cell_angle_beta                  96.600748
_cell_angle_gamma                 68.602697
_cell_volume                      3084.34744406

loop_
_atom_site_label
_atom_site_type_symbol
_atom_type_description
_atom_site_fract_x
_atom_site_fract_y
_atom_site_fract_z
_atom_type_partial_charge
C1    C     C_R   0.150406 0.616288 0.429172 0.547922
C2    C     C_R   0.732018 0.533479 0.307532 -0.119825
C3    C     C_R   0.677101 0.736288 0.318657 0.282186
C4    C     C_R   0.678702 0.748108 0.259238 0.140808
C5    C     C_R   0.707980 0.650378 0.225398 -0.022536
C6    C     C_R   0.703909 0.658980 0.166656 -0.109242
C7    C     C_R   0.642048 0.861068 0.172376 -0.126444
C8    C     C_R   0.649812 0.854375 0.232174 0.299482
C9    C     C_1   0.233079 0.164708 0.122235 0.027537
C10   C     C_2   0.165905 0.236041 0.224323 0.099710
C11   C     C_2   0.176545 0.159584 0.265688 0.115338
C12   C     C_R   0.751600 0.602429 0.403589 0.525482
C13   C     C_1   0.142668 0.194842 0.322152 0.039217
C14   C     C_1   0.203277 0.200441 0.168378 0.030733
C15   C     C_1   0.119583 0.229623 0.369175 0.035342
C16   C     C_1   0.169138 0.757339 0.125168 0.038026
C17   C     C_2   0.143007 0.726590 0.233400 0.118553
C18   C     C_2   0.237014 0.650421 0.268908 0.122982
C19   C     C_1   0.219273 0.639362 0.328042 0.043087
C20   C     C_1   0.156791 0.739634 0.173963 0.039400
C21   C     C_1   0.194626 0.629940 0.375862 0.042851
C22   C     C_1   0.629049 0.756225 0.865039 0.021969
C23   C     C_R   0.101726 0.281613 0.423599 0.546750
C24   C     C_2   0.700074 0.711987 0.761110 -0.106508
C25   C     C_2   0.613727 0.700697 0.719144 -0.099856
C26   C     C_1   0.651492 0.668603 0.662956 -0.029222
C27   C     C_1   0.664758 0.737146 0.818195 -0.019395
C28   C     C_1   0.690165 0.639620 0.617302 0.020023
C29   C     C_R   0.207413 0.173421 0.851003 0.040275
C30   C     C_R   0.114970 0.207551 0.636605 -0.027561
C31   C     C_R   0.006720 0.164683 0.713116 0.100903
C32   C     C_R   0.010311 0.182608 0.654185 0.075717
C33   C     C_R   0.223617 0.195116 0.676406 0.207493
C34   C     C_R   0.148917 0.616077 0.591343 0.576652
C35   C     C_R   0.209519 0.198189 0.734099 0.021500
C36   C     C_R   0.104810 0.177003 0.753558 -0.028655
C37   C     C_R   0.106769 0.162051 0.812786 -0.154891
C38   C     C_R   0.297023 0.215044 0.830905 0.240655
C39   C     C_R   0.299748 0.223142 0.772420 -0.075519
C40   C     C_R   0.122937 0.741430 0.854446 -0.005938
C41   C     C_R   0.186219 0.633844 0.651202 0.018807
C42   C     C_R   0.309760 0.559552 0.743675 0.233502
C43   C     C_R   0.299258 0.559476 0.682880 0.222788
C44   C     C_R   0.093316 0.716797 0.678628 -0.179736
C45   C     C_R   0.749615 0.602340 0.565998 0.543655
C46   C     C_R   0.102292 0.719192 0.737294 -0.044037
C47   C     C_R   0.208770 0.638932 0.771194 0.054727
C48   C     C_R   0.210200 0.644325 0.831312 0.134869
C49   C     C_R   0.013219 0.812985 0.820226 -0.142270
C50   C     C_R   0.001777 0.800289 0.761998 -0.135853
C51   C     C_R   0.265257 0.110623 0.069233 0.552398
C52   C     C_R   0.599174 0.776305 0.081219 0.546976
C53   C     C_R   0.189056 0.788396 0.069657 0.549984
C54   C     C_R   0.241983 0.114541 0.907047 0.575752
C55   C     C_R   0.573986 0.776338 0.918196 0.543626
C56   C     C_R   0.101278 0.274051 0.583712 0.548382
C57   C     C_R   0.162672 0.784863 0.908145 0.550512
C58   C     C_R   0.660868 0.764351 0.139833 -0.019216
C59   C     C_R   0.709763 0.627114 0.342755 -0.010367
C60   C     C_R   0.732375 0.544915 0.249662 -0.105198
Cr1   Cr    Cr6+3 0.189770 0.415650 0.511620 1.115032
Cr2   Cr    Cr6+3 0.930400 0.667320 0.496770 1.079459
Cr3   Cr    Cr6+3 0.879870 0.417010 0.491650 1.086323
Cr4   Cr    Cr6+3 0.149500 0.973980 0.985330 1.054413
Cr5   Cr    Cr6+3 0.457000 0.976510 0.994660 1.077929
Cr6   Cr    Cr6+3 0.411170 0.724270 0.995270 1.093668
H1    H     H_    0.720052 0.584350 0.141172 0.153605
H2    H     H_    0.515564 0.712274 0.727230 0.151430
H3    H     H_    0.798642 0.698986 0.753163 0.139140
H4    H     H_    0.037621 0.132765 0.829358 0.173358
H5    H     H_    0.374123 0.247547 0.756960 0.174463
H6    H     H_    0.609813 0.943306 0.151213 0.137769
H7    H     H_    0.941161 0.884390 0.837765 0.168499
H8    H     H_    0.918056 0.858788 0.735912 0.159936
H9    H     H_    0.007755 0.777030 0.654290 0.168583
H10   H     H_    0.752707 0.470542 0.223837 0.159261
H11   H     H_    0.757878 0.448821 0.325011 0.173043
O1    O     O_R   0.196340 0.303200 0.448500 -0.495498
O2    O     O_R   0.811960 0.658090 0.547150 -0.501408
O3    O     O_R   0.757930 0.506140 0.547110 -0.478934
O4    O     O_R   0.988670 0.321620 0.556040 -0.474947
O5    O     O_3   0.000020 0.499990 0.500010 -0.282211
O6    O     O_R   0.113660 0.883270 0.047820 -0.502051
O7    O     O_R   0.186930 0.068530 0.043990 -0.490716
O8    O     O_R   0.377770 0.089040 0.054220 -0.500516
O9    O     O_R   0.562800 0.872960 0.056970 -0.507002
O10   O     O_R   0.555390 0.700940 0.062700 -0.502033
O11   O     O_R   0.295020 0.731920 0.049950 -0.481414
O12   O     O_R   0.199310 0.519670 0.454880 -0.492781
O13   O     O_R   0.094290 0.884230 0.921550 -0.518830
O14   O     O_R   0.168980 0.069410 0.926940 -0.516084
O15   O     O_R   0.358400 0.089990 0.927950 -0.437001
O16   O     O_R   0.544850 0.873850 0.939920 -0.497081
O17   O     O_R   0.536020 0.701900 0.936430 -0.480594
O18   O     O_R   0.277070 0.732810 0.932890 -0.470010
O19   O     O_3   0.339220 0.891590 0.991750 -0.272353
O20   O     O_R   0.045660 0.691380 0.441680 -0.477073
O21   O     O_R   0.811930 0.659460 0.430950 -0.477853
O22   O     O_R   0.757900 0.507620 0.421760 -0.511175
O23   O     O_R   0.988630 0.322990 0.439840 -0.493427
O24   O     O_R   0.196380 0.301720 0.573850 -0.471490
O25   O     O_R   0.199350 0.518300 0.571080 -0.431262
O26   O     O_R   0.045700 0.689900 0.567030 -0.531323
I1    I     I_    0.973135 0.843648 0.263028 -0.273124
O27   O     O_3   0.388678 0.237176 0.868938 -0.635499
H12   H     H_    0.449677 0.256810 0.847506 0.345657
I2    I     I_    0.847165 0.130591 0.740722 -0.360928
I3    I     I_    0.865016 0.161655 0.591822 -0.239550
O28   O     O_3   0.342452 0.185740 0.660066 -0.658620
H13   H     H_    0.354433 0.141685 0.624649 0.346721
I4    I     I_    0.322291 0.504381 0.888717 -0.210720
O29   O     O_3   0.418510 0.486294 0.775997 -0.677422
H14   H     H_    0.450893 0.414445 0.755743 0.341444
O30   O     O_3   0.397157 0.489318 0.653511 -0.660947
H15   H     H_    0.481804 0.475585 0.676699 0.343774
O31   O     O_3   0.624493 0.950657 0.263931 -0.582047
H16   H     H_    0.605992 0.016848 0.238047 0.331055
O32   O     O_3   0.644568 0.830668 0.351976 -0.587599
H17   H     H_    0.613244 0.813889 0.387235 0.325238
I5    I     I_    0.257645 0.982882 0.253685 -0.312298
I6    I     I_    0.091620 0.412659 0.237046 -0.382723
I7    I     I_    0.407996 0.534354 0.239834 -0.337562

loop_
_geom_bond_atom_site_label_1
_geom_bond_atom_site_label_2
_ccdc_geom_bond_type
Cr5   O15   S    
C1    C21   S    
C6    C58   A    
Cr1   O24   S    
C35   C36   A    
C9    C51   S    
C24   C27   S    
Cr4   O13   S    
C4    C8    A    
C10   I6    S    
C51   O8    A    
O30   H15   S    
Cr5   O9    S    
C34   C41   S    
C34   O25   A    
Cr3   O4    S    
C36   C37   A    
C19   C21   T    
C17   I1    S    
C56   O24   A    
Cr1   O5    S    
C50   H8    S    
C43   O30   S    
Cr6   O11   S    
C5    C6    A    
C2    C60   A    
C29   C54   S    
C40   C49   A    
C17   C20   S    
O31   H16   S    
C18   C19   S    
C42   O29   S    
O32   H17   S    
Cr4   O7    S    
C12   O22   A    
Cr3   O22   S    
C16   C53   S    
C12   C59   S    
Cr5   O19   S    
C31   C32   A    
C44   C46   A    
C29   C38   A    
C53   O11   A    
C7    C58   A    
C12   O21   A    
C30   C33   A    
C55   O16   A    
Cr6   O17   S    
Cr5   O16   S    
C23   O23   A    
Cr2   O5    S    
Cr2   O21   S    
C37   H4    S    
C41   C43   A    
C25   H2    S    
C55   O17   A    
C11   I5    S    
O29   H14   S    
Cr1   O12   S    
C24   H3    S    
Cr3   O3    S    
C28   C45   S    
C57   O13   A    
Cr3   O5    S    
Cr2   O2    S    
C7    C8    A    
C24   C25   D    
Cr4   O19   S    
C10   C14   S    
C1    O20   A    
Cr6   O10   S    
C2    C59   A    
C25   C26   S    
C30   C56   S    
C60   H10   S    
C44   H9    S    
C35   C39   A    
C9    C14   T    
Cr4   O6    S    
C54   O15   A    
Cr3   O23   S    
C3    O32   S    
Cr2   O20   S    
C47   C48   A    
Cr1   O1    S    
C16   C20   T    
C17   C18   D    
C45   O2    A    
C52   C58   S    
C18   I7    S    
C6    H1    S    
C22   C27   T    
C13   C15   T    
C57   O18   A    
C41   C44   A    
C49   H7    S    
C33   O28   S    
C42   C43   A    
C3    C4    A    
C7    H6    S    
Cr6   O19   S    
Cr2   O26   S    
C40   C48   A    
C46   C47   A    
C1    O12   A    
C40   C57   S    
C5    C60   A    
C31   I2    S    
C52   O10   A    
C4    C5    A    
Cr5   O8    S    
C22   C55   S    
O27   H12   S    
C46   C50   A    
C26   C28   T    
C34   O26   A    
C53   O6    A    
C38   O27   S    
C52   O9    A    
Cr1   O25   S    
C54   O14   A    
C2    H11   S    
O28   H13   S    
C30   C32   A    
C11   C13   S    
C38   C39   A    
C15   C23   S    
C33   C35   A    
C56   O4    A    
C45   O3    A    
C42   C47   A    
C23   O1    A    
C10   C11   D    
C8    O31   S    
C48   I4    S    
C49   C50   A    
C32   I3    S    
C29   C37   A    
C39   H5    S    
C31   C36   A    
Cr4   O14   S    
C51   O7    A    
Cr6   O18   S    
C3    C59   A    
