data_mof_unit_42942.cif
_audit_creation_date              2013-03-05T15:41:02-0500
_audit_creation_method            fapswitch 2.2
_symmetry_space_group_name_H-M    P1
_symmetry_Int_Tables_number       1
_space_group_crystal_system       triclinic
_cell_length_a                    27.972496
_cell_length_b                    18.422975
_cell_length_c                    16.937799
_cell_angle_alpha                 90.332514
_cell_angle_beta                  61.770438
_cell_angle_gamma                 90.057577
_cell_volume                      7690.33122802

loop_
_atom_site_label
_atom_site_type_symbol
_atom_site_description
_atom_site_fract_x
_atom_site_fract_y
_atom_site_fract_z
_atom_type_partial_charge
O1    O     O_R   0.746490 0.236330 0.638080 -0.613019
O2    O     O_R   0.253510 0.763670 0.361920 -0.612358
O3    O     O_R   0.253510 0.236330 0.361920 -0.606865
O4    O     O_R   0.746490 0.763670 0.638080 -0.636685
O5    O     O_R   0.246490 0.736330 0.638080 -0.617420
O6    O     O_R   0.753510 0.263670 0.361920 -0.616467
O7    O     O_R   0.753510 0.736330 0.361920 -0.605132
O8    O     O_R   0.246490 0.263670 0.638080 -0.619452
O9    O     O_R   0.674170 0.186160 0.516270 -0.640497
O10   O     O_R   0.325830 0.813840 0.483730 -0.665155
O11   O     O_R   0.325830 0.186160 0.483730 -0.651619
O12   O     O_R   0.674170 0.813840 0.516270 -0.660255
O13   O     O_R   0.174170 0.686160 0.516270 -0.609653
O14   O     O_R   0.825830 0.313840 0.483730 -0.659294
O15   O     O_R   0.825830 0.686160 0.483730 -0.613524
O16   O     O_R   0.174170 0.313840 0.516270 -0.653794
O17   O     O_R   0.739960 0.127620 0.525000 -0.579239
O18   O     O_R   0.260040 0.872380 0.475000 -0.598850
O19   O     O_R   0.260040 0.127620 0.475000 -0.595840
O20   O     O_R   0.739960 0.872380 0.525000 -0.580219
O21   O     O_R   0.239960 0.627620 0.525000 -0.578600
O22   O     O_R   0.760040 0.372380 0.475000 -0.584789
O23   O     O_R   0.760040 0.627620 0.475000 -0.588437
O24   O     O_R   0.239960 0.372380 0.525000 -0.577687
O25   O     O_R   0.680700 0.294870 0.629350 -0.590300
O26   O     O_R   0.319300 0.705130 0.370650 -0.582317
O27   O     O_R   0.319300 0.294870 0.370650 -0.582430
O28   O     O_R   0.680700 0.705130 0.629350 -0.594757
O29   O     O_R   0.180700 0.794870 0.629350 -0.583654
O30   O     O_R   0.819300 0.205130 0.370650 -0.579526
O31   O     O_R   0.819300 0.794870 0.370650 -0.574552
O32   O     O_R   0.180700 0.205130 0.629350 -0.582079
C1    C     C_R   0.704164 0.274445 0.675016 0.892592
C2    C     C_R   0.300184 0.736397 0.322844 0.872969
C3    C     C_R   0.295697 0.274884 0.324954 0.879409
C4    C     C_R   0.702023 0.732010 0.676443 0.858309
C5    C     C_R   0.204353 0.774737 0.675061 0.871059
C6    C     C_R   0.800032 0.236004 0.322703 0.865570
C7    C     C_R   0.795568 0.774703 0.325067 0.902316
C8    C     C_R   0.211486 0.214147 0.666731 0.885563
C9    C     C_R   0.690946 0.129462 0.535266 0.904303
C10   C     C_R   0.308526 0.870267 0.465788 0.842543
C11   C     C_R   0.308514 0.129360 0.466051 0.850755
C12   C     C_R   0.690643 0.870631 0.537161 0.849103
C13   C     C_R   0.190328 0.629968 0.539352 0.880234
C14   C     C_R   0.809434 0.370164 0.463055 0.843302
C15   C     C_R   0.804808 0.627625 0.478388 0.907794
C16   C     C_R   0.190643 0.370076 0.539001 0.882237
Zn1   Zn    Zn3+2 0.792340 0.208750 0.507670 1.084963
Zn2   Zn    Zn3+2 0.207660 0.791250 0.492330 1.095489
Zn3   Zn    Zn3+2 0.207660 0.208750 0.492330 1.053034
Zn4   Zn    Zn3+2 0.792340 0.791250 0.507670 1.077189
Zn5   Zn    Zn3+2 0.292340 0.708750 0.507670 1.079632
Zn6   Zn    Zn3+2 0.707660 0.291250 0.492330 1.075856
Zn7   Zn    Zn3+2 0.707660 0.708750 0.492330 1.067613
Zn8   Zn    Zn3+2 0.292340 0.291250 0.507670 1.098739
C17   C     C_R   0.544926 0.131933 0.507868 0.003521
C18   C     C_R   0.465834 0.866335 0.451197 0.038496
C19   C     C_R   0.469405 0.131176 0.441732 -0.000508
C20   C     C_R   0.540932 0.867333 0.518651 -0.009363
C21   C     C_R   0.021083 0.627822 0.585092 0.009616
C22   C     C_R   0.961097 0.367451 0.477804 -0.011869
C23   C     C_R   0.924795 0.621657 0.569443 0.010759
C24   C     C_R   0.038118 0.365743 0.540487 0.020425
C25   C     C_R   0.527268 0.198487 0.488469 -0.071067
C26   C     C_R   0.481714 0.799853 0.473959 -0.095439
C27   C     C_R   0.491356 0.197928 0.451365 -0.080001
C28   C     C_R   0.518175 0.800507 0.510403 -0.115408
C29   C     C_R   0.988024 0.690634 0.603562 -0.095854
C30   C     C_R   0.986742 0.301232 0.478520 -0.102052
C31   C     C_R   0.938976 0.686698 0.598287 -0.089370
C32   C     C_R   0.023662 0.299856 0.513732 -0.097142
C33   C     C_R   0.488029 0.065303 0.459980 0.026923
C34   C     C_R   0.525394 0.932838 0.494626 0.032578
C35   C     C_R   0.527243 0.065599 0.489563 0.025063
C36   C     C_R   0.486412 0.932531 0.464471 0.038454
C37   C     C_R   0.958250 0.560298 0.549303 0.029996
C38   C     C_R   0.014913 0.431561 0.534705 0.039095
C39   C     C_R   0.004374 0.562276 0.562059 0.029696
C40   C     C_R   0.973643 0.431573 0.510057 0.032149
C41   C     C_R   0.944872 0.496054 0.518035 -0.010668
C42   C     C_R   0.032747 0.497657 0.554713 -0.011583
C43   C     C_R   0.466515 0.998881 0.450079 -0.009168
C44   C     C_R   0.546356 0.999406 0.506284 -0.011267
C45   C     C_R   0.889716 0.433255 0.462171 0.054927
C46   C     C_R   0.102270 0.565256 0.572782 0.048940
C47   C     C_R   0.104477 0.433195 0.567160 0.036591
C48   C     C_R   0.870035 0.558471 0.512106 0.031246
C49   C     C_R   0.396145 0.933450 0.433526 0.031851
C50   C     C_R   0.608379 0.065901 0.544066 0.035604
C51   C     C_R   0.607939 0.934337 0.546503 0.049374
C52   C     C_R   0.396520 0.064877 0.432349 0.043272
C53   C     C_R   0.843959 0.434269 0.446217 -0.189815
C54   C     C_R   0.154556 0.565391 0.568379 -0.197778
C55   C     C_R   0.155283 0.434410 0.567113 -0.189198
C56   C     C_R   0.832897 0.561239 0.476533 -0.162443
C57   C     C_R   0.340886 0.934970 0.451370 -0.173547
C58   C     C_R   0.655358 0.065585 0.556930 -0.167705
C59   C     C_R   0.655467 0.935244 0.558493 -0.203708
C60   C     C_R   0.340934 0.064223 0.451427 -0.177785
C61   C     C_R   0.823776 0.500053 0.436724 -0.082238
C62   C     C_R   0.176009 0.500096 0.579779 -0.104418
C63   C     C_R   0.312429 0.999747 0.475156 -0.118221
C64   C     C_R   0.673830 0.001145 0.575445 -0.095594
C65   C     C_R   0.902084 0.496192 0.496245 0.070020
C66   C     C_R   0.079757 0.498819 0.565394 0.078095
C67   C     C_R   0.420469 0.999061 0.436754 0.079781
C68   C     C_R   0.587522 0.999850 0.532495 0.073958
C69   C     C_R   0.076991 0.368144 0.569923 -0.175789
C70   C     C_R   0.877665 0.616456 0.560078 -0.160652
C71   C     C_R   0.922213 0.370976 0.447634 -0.179605
C72   C     C_R   0.070255 0.628444 0.589676 -0.162431
C73   C     C_R   0.579109 0.870259 0.550384 -0.186149
C74   C     C_R   0.427079 0.128735 0.419020 -0.182495
C75   C     C_R   0.425565 0.868913 0.423971 -0.178902
C76   C     C_R   0.580897 0.130129 0.543722 -0.171619
H1    H     H_    0.085387 0.319038 0.595058 0.218797
H2    H     H_    0.847207 0.657981 0.590866 0.178498
H3    H     H_    0.917575 0.325133 0.412047 0.204064
H4    H     H_    0.081924 0.677084 0.611848 0.190103
H5    H     H_    0.585021 0.822616 0.580857 0.212757
H6    H     H_    0.416359 0.177339 0.396002 0.197527
H7    H     H_    0.415251 0.819846 0.401024 0.211480
H8    H     H_    0.585654 0.178946 0.574294 0.208784
C77   C     C_R   0.725883 0.287280 0.950039 0.030621
C78   C     C_R   0.286606 0.757014 0.041705 0.031875
C79   C     C_R   0.282529 0.277120 0.041360 0.025733
C80   C     C_R   0.709222 0.761065 0.963906 0.024630
C81   C     C_R   0.225588 0.788344 0.951698 0.029908
C82   C     C_R   0.786332 0.254922 0.040582 0.030222
C83   C     C_R   0.769792 0.794364 0.053772 0.025802
C84   C     C_R   0.227713 0.233728 0.944117 0.030335
C85   C     C_R   0.780746 0.266925 0.900561 -0.067779
C86   C     C_R   0.236254 0.793500 0.088041 -0.073892
C87   C     C_R   0.225626 0.269340 0.087099 -0.060638
C88   C     C_R   0.757178 0.802002 0.919812 -0.062434
C89   C     C_R   0.280940 0.771571 0.902345 -0.065084
C90   C     C_R   0.736669 0.292879 0.085975 -0.071121
C91   C     C_R   0.715251 0.772906 0.103694 -0.067858
C92   C     C_R   0.282871 0.255310 0.896997 -0.048118
C93   C     C_R   0.807224 0.238870 0.948336 0.091973
C94   C     C_R   0.202142 0.797495 0.045894 0.092485
C95   C     C_R   0.199042 0.240038 0.039076 0.090816
C96   C     C_R   0.791603 0.807368 0.960730 0.086329
C97   C     C_R   0.308269 0.743818 0.948869 0.097775
C98   C     C_R   0.702657 0.297237 0.044028 0.089215
C99   C     C_R   0.688206 0.745472 0.056040 0.090896
C100  C     C_R   0.311454 0.270445 0.946486 0.086131
C101  C     C_R   0.639525 0.318560 0.954253 0.084167
C102  C     C_R   0.363008 0.691647 0.044320 0.078080
C103  C     C_R   0.366566 0.309130 0.044468 0.080949
C104  C     C_R   0.637436 0.688905 0.955968 0.076925
C105  C     C_R   0.139336 0.818334 0.955012 0.081368
C106  C     C_R   0.861985 0.189047 0.044631 0.077960
C107  C     C_R   0.857091 0.823600 0.047468 0.079576
C108  C     C_R   0.146782 0.180902 0.941851 0.066545
C109  C     C_R   0.610544 0.336690 0.906950 -0.200493
C110  C     C_R   0.389268 0.665588 0.094280 -0.215834
C111  C     C_R   0.392430 0.333925 0.093361 -0.209512
C112  C     C_R   0.618673 0.652494 0.900428 -0.197305
C113  C     C_R   0.110560 0.836516 0.907331 -0.202622
C114  C     C_R   0.888690 0.164502 0.094372 -0.211525
C115  C     C_R   0.887308 0.839228 0.093689 -0.196072
C116  C     C_R   0.123801 0.144909 0.891928 -0.186222
C117  C     C_R   0.628819 0.311255 0.820492 -0.093374
C118  C     C_R   0.375037 0.695439 0.178584 -0.103863
C119  C     C_R   0.372421 0.312301 0.181326 -0.092285
C120  C     C_R   0.646945 0.660239 0.808088 -0.132624
C121  C     C_R   0.129065 0.810994 0.820876 -0.077484
C122  C     C_R   0.874677 0.194990 0.178160 -0.096339
C123  C     C_R   0.869836 0.812621 0.179195 -0.106928
C124  C     C_R   0.151864 0.144199 0.798248 -0.109069
C125  C     C_R   0.684170 0.295341 0.769130 -0.170117
C126  C     C_R   0.326775 0.734554 0.223566 -0.195214
C127  C     C_R   0.316887 0.295267 0.230244 -0.186813
C128  C     C_R   0.680456 0.720211 0.772772 -0.175110
C129  C     C_R   0.184528 0.795573 0.769484 -0.156902
C130  C     C_R   0.826269 0.233617 0.223276 -0.195044
C131  C     C_R   0.814601 0.796743 0.231559 -0.185736
C132  C     C_R   0.198102 0.185495 0.755425 -0.197738
C133  C     C_R   0.719002 0.297288 0.810569 0.040150
C134  C     C_R   0.300036 0.762063 0.174995 0.043666
C135  C     C_R   0.283844 0.296528 0.185127 0.038423
C136  C     C_R   0.699246 0.759364 0.827192 0.040380
C137  C     C_R   0.219368 0.798300 0.811314 0.046489
C138  C     C_R   0.799448 0.260614 0.174426 0.048305
C139  C     C_R   0.778900 0.800243 0.191739 0.039317
C140  C     C_R   0.228270 0.204102 0.801348 0.059547
C141  C     C_R   0.694601 0.299380 0.905099 0.037685
C142  C     C_R   0.316258 0.736224 0.087435 0.040516
C143  C     C_R   0.310938 0.292830 0.090435 0.035548
C144  C     C_R   0.682483 0.735616 0.915311 0.041866
C145  C     C_R   0.194529 0.799764 0.906144 0.037467
C146  C     C_R   0.815630 0.234235 0.086986 0.039690
C147  C     C_R   0.802144 0.804491 0.097459 0.036889
C148  C     C_R   0.200790 0.206942 0.895869 0.049217
C149  C     C_R   0.615352 0.319845 0.048550 -0.130012
C150  C     C_R   0.383525 0.678971 0.951280 -0.145314
C151  C     C_R   0.395286 0.298825 0.951799 -0.133933
C152  C     C_R   0.615017 0.678489 0.049477 -0.146960
C153  C     C_R   0.114955 0.819470 0.049399 -0.130906
C154  C     C_R   0.881289 0.173262 0.952575 -0.138314
C155  C     C_R   0.879747 0.827904 0.953444 -0.134651
C156  C     C_R   0.119234 0.187769 0.035899 -0.146356
C157  C     C_R   0.646283 0.309265 0.092530 -0.151674
C158  C     C_R   0.356726 0.704078 0.905103 -0.155627
C159  C     C_R   0.368693 0.275506 0.904745 -0.156519
C160  C     C_R   0.641448 0.702351 0.096535 -0.160567
C161  C     C_R   0.145683 0.808954 0.093903 -0.150657
C162  C     C_R   0.853608 0.195156 0.907067 -0.156585
C163  C     C_R   0.847478 0.821402 0.911286 -0.129439
C164  C     C_R   0.145201 0.214189 0.083137 -0.136555
C165  C     C_R   0.776686 0.301109 0.763334 0.115335
C166  C     C_R   0.261441 0.820030 0.206236 0.131633
C167  C     C_R   0.226597 0.307928 0.227239 0.115199
C168  C     C_R   0.732724 0.822315 0.800008 0.117116
C169  C     C_R   0.277074 0.806266 0.765032 0.106524
C170  C     C_R   0.761206 0.318927 0.204822 0.117534
C171  C     C_R   0.721291 0.803702 0.240500 0.113880
C172  C     C_R   0.284560 0.219908 0.756314 0.089888
C173  C     C_R   0.807360 0.280820 0.806855 -0.039220
C174  C     C_R   0.225552 0.829939 0.169218 -0.053643
C175  C     C_R   0.197760 0.295764 0.177330 -0.047202
C176  C     C_R   0.765677 0.839657 0.841087 -0.014818
C177  C     C_R   0.307816 0.791839 0.810859 -0.055682
C178  C     C_R   0.726150 0.329990 0.166490 -0.052731
C179  C     C_R   0.689882 0.784482 0.197852 -0.024688
C180  C     C_R   0.308180 0.257338 0.801782 -0.077660
H9    H     H_    0.572041 0.327491 0.089201 0.169296
H10   H     H_    0.422323 0.653972 0.910096 0.185812
H11   H     H_    0.439008 0.304862 0.916200 0.162469
H12   H     H_    0.577096 0.651780 0.090009 0.188027
H13   H     H_    0.071603 0.826962 0.089700 0.165320
H14   H     H_    0.919701 0.147858 0.910596 0.188802
H15   H     H_    0.922918 0.834837 0.911138 0.181261
H16   H     H_    0.077088 0.173114 0.075083 0.174460
H17   H     H_    0.625366 0.308926 0.165005 0.179511
H18   H     H_    0.374034 0.691012 0.834488 0.171599
H19   H     H_    0.394151 0.260393 0.835686 0.163488
H20   H     H_    0.625638 0.683056 0.164191 0.175987
H21   H     H_    0.124525 0.808318 0.166338 0.157875
H22   H     H_    0.868883 0.176033 0.838961 0.169925
H23   H     H_    0.867131 0.825109 0.839211 0.221186
H24   H     H_    0.122636 0.211534 0.155296 0.172844
O33   O     O_R   0.062020 0.072840 0.007170 -0.620944
O34   O     O_R   0.937980 0.927160 0.992830 -0.625218
O35   O     O_R   0.937980 0.072840 0.992830 -0.630652
O36   O     O_R   0.062020 0.927160 0.007170 -0.617545
O37   O     O_R   0.562020 0.572840 0.007170 -0.633533
O38   O     O_R   0.437980 0.427160 0.992830 -0.605710
O39   O     O_R   0.437980 0.572840 0.992830 -0.626452
O40   O     O_R   0.562020 0.427160 0.007170 -0.618548
O41   O     O_R   0.947860 0.073950 0.109290 -0.575157
O42   O     O_R   0.052140 0.926050 0.890710 -0.567805
O43   O     O_R   0.052140 0.073950 0.890710 -0.590233
O44   O     O_R   0.947860 0.926050 0.109290 -0.580532
O45   O     O_R   0.447860 0.573950 0.109290 -0.571997
O46   O     O_R   0.552140 0.426050 0.890710 -0.581854
O47   O     O_R   0.552140 0.573950 0.890710 -0.585587
O48   O     O_R   0.447860 0.426050 0.109290 -0.581008
C181  C     C_R   0.074708 0.100221 0.933913 0.903665
C182  C     C_R   0.929236 0.895659 0.061908 0.876289
C183  C     C_R   0.927896 0.103423 0.063620 0.899244
C184  C     C_R   0.069753 0.894692 0.938677 0.902039
C185  C     C_R   0.574553 0.599850 0.934646 0.905494
C186  C     C_R   0.431553 0.393792 0.060523 0.872998
C187  C     C_R   0.428172 0.603849 0.063402 0.896775
C188  C     C_R   0.569758 0.394752 0.938614 0.876557
Zn9   Zn    Zn3+2 0.505960 0.500000 0.080520 1.057098
Zn10  Zn    Zn3+2 0.494040 0.500000 0.919480 1.047994
Zn11  Zn    Zn3+2 0.005960 0.000000 0.080520 1.066798
Zn12  Zn    Zn3+2 0.994040 0.000000 0.919480 1.033051
C189  C     C_2   0.050448 0.230435 0.514831 0.922271
O49   O     O_2   0.078406 0.197978 0.444655 -0.577999
O50   O     O_R   0.042886 0.201844 0.596188 -0.796599
H25   H     H_    0.062962 0.154329 0.588096 0.358027
C190  C     C_2   0.905148 0.752462 0.614476 0.933739
O51   O     O_2   0.878382 0.775594 0.690661 -0.610496
O52   O     O_R   0.902384 0.785877 0.542875 -0.765556
H26   H     H_    0.876798 0.829034 0.562628 0.362866
C191  C     C_2   0.974222 0.232809 0.445282 0.964561
O53   O     O_2   0.953379 0.182054 0.496397 -0.576601
O54   O     O_R   0.988025 0.225853 0.354866 -0.814125
H27   H     H_    0.979239 0.175959 0.339774 0.367701
C192  C     C_2   0.005080 0.761056 0.625387 0.909994
O55   O     O_2   0.047366 0.789484 0.570998 -0.586084
O56   O     O_R   0.972614 0.794802 0.707814 -0.800613
H28   H     H_    0.988213 0.842689 0.714611 0.358492
C193  C     C_2   0.530207 0.731517 0.543361 0.959075
O57   O     O_2   0.548597 0.679261 0.493071 -0.574103
O58   O     O_R   0.518588 0.725816 0.632991 -0.799214
H29   H     H_    0.528093 0.676329 0.647559 0.361960
C194  C     C_2   0.474898 0.267567 0.427499 0.907366
O59   O     O_2   0.428578 0.290291 0.471927 -0.607792
O60   O     O_R   0.512588 0.306682 0.353744 -0.770939
H30   H     H_    0.496710 0.352991 0.343722 0.363597
C195  C     C_2   0.455681 0.730417 0.469686 0.921354
O61   O     O_2   0.428891 0.695858 0.538081 -0.562691
O62   O     O_R   0.462406 0.704326 0.387435 -0.826365
H31   H     H_    0.443281 0.656331 0.393393 0.376988
C196  C     C_2   0.546178 0.268808 0.506806 0.900632
O63   O     O_2   0.576457 0.307317 0.444655 -0.545913
O64   O     O_R   0.529435 0.290473 0.595289 -0.805890
H32   H     H_    0.545112 0.339149 0.599291 0.365005
C197  C     C_2   0.799181 0.505977 0.376294 0.928032
O65   O     O_2   0.750409 0.497368 0.405157 -0.588420
O66   O     O_R   0.831908 0.527053 0.287576 -0.785547
H33   H     H_    0.810423 0.535767 0.254302 0.345710
C198  C     C_2   0.214466 0.500577 0.617417 0.976428
O67   O     O_2   0.263516 0.499896 0.567957 -0.563215
O68   O     O_R   0.193829 0.502125 0.710330 -0.782506
H34   H     H_    0.223500 0.502406 0.728615 0.355509
C199  C     C_2   0.255430 0.999761 0.548774 0.963461
O69   O     O_2   0.247325 0.997476 0.626108 -0.637617
O70   O     O_R   0.212132 0.999831 0.529083 -0.742972
H35   H     H_    0.175629 0.994238 0.584133 0.356440
C200  C     C_2   0.707499 0.005618 0.621817 0.929691
O71   O     O_2   0.756145 0.992638 0.581696 -0.578871
O72   O     O_R   0.684365 0.035751 0.707945 -0.798421
H36   H     H_    0.712198 0.046079 0.728855 0.345670
C201  C     C_2   0.588478 0.298473 0.788076 0.943773
O73   O     O_2   0.582453 0.342975 0.740159 -0.585502
O74   O     O_R   0.556501 0.235989 0.814888 -0.799252
H37   H     H_    0.530334 0.233119 0.789221 0.347972
C202  C     C_2   0.414266 0.694524 0.214649 0.954746
O75   O     O_2   0.414228 0.644592 0.261964 -0.575890
O76   O     O_R   0.451291 0.751422 0.193667 -0.803554
H38   H     H_    0.476446 0.744965 0.220809 0.368029
C203  C     C_2   0.411563 0.303753 0.216976 0.949964
O77   O     O_2   0.415181 0.350549 0.265425 -0.574893
O78   O     O_R   0.445362 0.242824 0.192301 -0.811942
H39   H     H_    0.470588 0.243013 0.219894 0.340704
C204  C     C_2   0.649043 0.598588 0.748684 0.987630
O79   O     O_2   0.682863 0.550634 0.730809 -0.635880
O80   O     O_R   0.612575 0.595755 0.713901 -0.755286
H40   H     H_    0.618253 0.551324 0.674821 0.352116
C205  C     C_2   0.088777 0.797473 0.788573 0.929831
O81   O     O_2   0.082218 0.841844 0.741082 -0.577681
O82   O     O_R   0.057545 0.734320 0.814887 -0.800661
H41   H     H_    0.031311 0.730885 0.789424 0.348925
C206  C     C_2   0.915049 0.197000 0.211695 0.942610
O83   O     O_2   0.915692 0.149633 0.261485 -0.585724
O84   O     O_R   0.953191 0.252976 0.183664 -0.798679
H42   H     H_    0.979968 0.248063 0.207757 0.363387
C207  C     C_2   0.911008 0.798508 0.209334 0.951068
O85   O     O_2   0.917055 0.841345 0.259348 -0.567709
O86   O     O_R   0.944269 0.737280 0.176916 -0.786574
H43   H     H_    0.971385 0.733766 0.200573 0.346700
C208  C     C_2   0.138048 0.091538 0.744903 0.991291
O87   O     O_2   0.148783 0.027411 0.745802 -0.582045
O88   O     O_R   0.105177 0.112755 0.707408 -0.761207
H44   H     H_    0.095443 0.070747 0.678826 0.324786
C209  C     C_3   0.805523 0.341803 0.675761 -0.742520
H45   H     H_    0.833085 0.304306 0.622235 0.283362
H46   H     H_    0.777167 0.368647 0.656534 0.223709
H47   H     H_    0.830243 0.386373 0.682261 0.219324
C210  C     C_3   0.267687 0.882215 0.260193 -0.718604
H48   H     H_    0.231324 0.887054 0.326902 0.281534
H49   H     H_    0.304316 0.876246 0.269111 0.210631
H50   H     H_    0.272928 0.934063 0.223865 0.223361
C211  C     C_3   0.198123 0.347674 0.316451 -0.733255
H51   H     H_    0.168748 0.310838 0.368266 0.290989
H52   H     H_    0.226497 0.370263 0.338628 0.205497
H53   H     H_    0.176076 0.395861 0.311058 0.221734
C212  C     C_3   0.722290 0.880790 0.747969 -0.724050
H54   H     H_    0.758629 0.888800 0.682168 0.294359
H55   H     H_    0.686624 0.868713 0.738006 0.207991
H56   H     H_    0.712605 0.932142 0.786941 0.226686
C213  C     C_3   0.304642 0.845630 0.676404 -0.698940
H57   H     H_    0.333333 0.808306 0.623859 0.283780
H58   H     H_    0.275589 0.868517 0.656263 0.233469
H59   H     H_    0.327418 0.893283 0.681414 0.224661
C214  C     C_3   0.767442 0.380703 0.258715 -0.687078
H60   H     H_    0.730964 0.385129 0.325280 0.294476
H61   H     H_    0.804153 0.374811 0.267391 0.212076
H62   H     H_    0.772520 0.432432 0.222391 0.215479
C215  C     C_3   0.692869 0.842799 0.329613 -0.763835
H63   H     H_    0.665465 0.804396 0.381285 0.283623
H64   H     H_    0.721453 0.868594 0.349283 0.217593
H65   H     H_    0.667907 0.887972 0.325385 0.220339
C216  C     C_3   0.321976 0.185217 0.666899 -0.694247
H66   H     H_    0.301068 0.142979 0.647676 0.209484
H67   H     H_    0.339342 0.227017 0.614048 0.300385
H68   H     H_    0.355798 0.157105 0.671151 0.240035
C217  C     C_2   0.867262 0.286552 0.756826 0.880525
O89   O     O_2   0.891226 0.326925 0.783811 -0.594075
O90   O     O_R   0.896090 0.243853 0.680516 -0.780609
H69   H     H_    0.936546 0.246938 0.658052 0.369937
C218  C     C_2   0.184385 0.888874 0.206396 0.894594
O91   O     O_2   0.182613 0.935793 0.157027 -0.600087
O92   O     O_R   0.148344 0.891192 0.298238 -0.783512
H70   H     H_    0.122509 0.933992 0.315660 0.363183
C219  C     C_2   0.142199 0.326414 0.211649 0.897717
O93   O     O_2   0.131704 0.364653 0.163000 -0.592566
O94   O     O_R   0.102130 0.312094 0.298851 -0.778785
H71   H     H_    0.066882 0.337766 0.313471 0.360745
C220  C     C_2   0.800162 0.906092 0.812505 0.918434
O95   O     O_2   0.799453 0.948665 0.868756 -0.621180
O96   O     O_R   0.832622 0.920567 0.721447 -0.777014
H72   H     H_    0.853826 0.967384 0.710756 0.360885
C221  C     C_2   0.364981 0.816990 0.772374 0.910462
O97   O     O_2   0.379203 0.853119 0.818497 -0.595915
O98   O     O_R   0.402171 0.801098 0.683948 -0.780055
H73   H     H_    0.438200 0.825128 0.667037 0.361007
C222  C     C_2   0.686551 0.391075 0.200720 0.899904
O99   O     O_2   0.686188 0.436903 0.149022 -0.606796
O100  O     O_R   0.650493 0.396734 0.292280 -0.737431
H74   H     H_    0.625780 0.440601 0.307414 0.369739
C223  C     C_2   0.630221 0.786994 0.250738 0.870347
O101  O     O_2   0.604060 0.830723 0.232582 -0.600312
O102  O     O_R   0.604178 0.735932 0.317899 -0.778307
H75   H     H_    0.564087 0.733765 0.337452 0.370420
C224  C     C_2   0.352328 0.310013 0.749934 0.918522
O103  O     O_2   0.349063 0.372036 0.778256 -0.591645
O104  O     O_R   0.397621 0.289186 0.670187 -0.788808
H76   H     H_    0.424227 0.330439 0.641774 0.379059

loop_
_geom_bond_atom_site_label_1
_geom_bond_atom_site_label_2
_geom_bond_distance
_ccdc_geom_bond_type
O4    C4    1.244160 A    
C210  H48   1.109509 S    
O44   C182  1.272281 A    
C150  C158  1.395413 A    
C203  O78   1.396929 S    
O58   H29   1.013866 S    
O7    Zn7   2.028263 S    
O31   Zn4   2.074930 S    
C123  C131  1.401846 A    
O8    Zn8   2.028263 S    
C205  O81   1.223308 D    
C204  O79   1.222603 D    
O18   Zn2   2.015141 S    
C122  C130  1.393097 A    
C173  C217  1.481325 S    
O33   Zn11  1.993847 S    
O34   Zn12  1.993848 S    
C77   C98   1.417209 A    
C220  O96   1.397778 S    
C12   C59   1.475391 S    
C218  O92   1.397779 S    
C165  C209  1.514166 S    
O30   C6    1.301376 A    
C121  C129  1.402079 A    
O48   Zn9   1.997218 S    
C90   C178  1.422605 A    
C82   C93   1.414712 A    
C151  H11   1.083790 S    
C215  H65   1.111048 S    
C166  C174  1.425275 A    
C8    C132  1.467105 S    
C50   C76   1.413259 A    
C102  C110  1.442082 A    
C19   C33   1.413390 A    
C55   C62   1.399917 A    
C213  H59   1.110405 S    
O2    C2    1.255016 A    
C198  O68   1.396718 S    
C224  O104  1.397477 S    
C28   C193  1.492378 S    
C33   C35   1.405068 A    
C70   H2    1.076767 S    
C123  C207  1.487573 S    
O6    Zn6   2.022478 S    
C36   C43   1.412991 A    
C209  H46   1.107590 S    
C17   C76   1.400244 A    
C105  C153  1.410532 A    
C37   C39   1.405760 A    
C135  C167  1.426729 A    
C211  H53   1.110003 S    
C118  C126  1.394589 A    
C75   H7    1.073748 S    
O74   H37   1.014029 S    
C134  C142  1.409828 A    
C162  H22   1.080128 S    
C214  H62   1.109417 S    
C53   C61   1.379455 A    
C72   H4    1.077977 S    
C81   C94   1.418213 A    
O27   C3    1.284585 A    
C196  O63   1.221822 D    
C105  C113  1.425154 A    
C117  C201  1.488084 S    
C168  C176  1.428084 A    
C2    C126  1.482634 S    
C154  H14   1.074017 S    
C38   C42   1.414339 A    
O64   H32   1.013758 S    
C156  C164  1.396162 A    
C158  H18   1.082581 S    
C57   C63   1.383137 A    
O47   Zn10  1.997217 S    
O30   Zn1   2.074113 S    
C23   C31   1.416840 A    
C210  H50   1.110717 S    
C216  H66   1.108993 S    
C161  H21   1.081163 S    
O90   H69   1.010661 S    
C82   C90   1.412547 A    
C170  C214  1.515629 S    
O39   C187  1.229885 A    
O32   C8    1.297853 A    
C127  C135  1.451664 A    
C128  C136  1.447761 A    
O9    C9    1.250011 A    
C83   C147  1.425766 A    
C80   C99   1.414356 A    
O23   Zn7   2.014798 S    
O24   Zn8   2.014798 S    
C87   C175  1.430207 A    
C219  O93   1.223689 D    
C101  C141  1.405634 A    
C167  C211  1.517778 S    
C3    C127  1.474020 S    
C119  C203  1.488319 S    
C192  O56   1.397158 S    
C222  O99   1.223402 D    
C104  C144  1.409387 A    
O13   C13   1.265565 A    
O35   Zn12  1.986248 S    
O36   Zn11  1.986250 S    
C111  C119  1.381820 A    
C112  C120  1.387169 A    
O80   H40   1.013854 S    
C130  C138  1.444859 A    
C81   C89   1.401850 A    
C54   C62   1.399378 A    
C156  H16   1.079103 S    
C201  O73   1.223388 D    
O7    C7    1.257863 A    
O9    Zn6   2.106300 S    
C152  H12   1.073599 S    
C223  O101  1.223124 D    
C212  H54   1.107724 S    
C33   C43   1.406867 A    
C96   C163  1.405175 A    
O35   C183  1.227686 A    
O11   Zn8   2.103703 S    
C217  O90   1.393976 S    
C49   C75   1.410974 A    
C208  O87   1.221223 D    
O88   H44   1.013591 S    
O45   C187  1.273306 A    
O16   Zn3   2.103703 S    
O46   C188  1.271987 A    
C126  C134  1.442501 A    
C221  O97   1.224357 D    
C18   C36   1.409604 A    
O22   Zn6   2.015141 S    
C138  C170  1.427714 A    
C104  C152  1.415021 A    
C34   C36   1.405958 A    
C64   C200  1.486485 S    
C22   C40   1.410740 A    
O46   Zn10  1.995587 S    
O18   C10   1.290419 A    
C38   C40   1.401038 A    
O40   Zn9   1.986250 S    
C199  O70   1.400097 S    
C61   C197  1.483403 S    
O96   H72   1.013755 S    
C71   H3    1.077639 S    
O37   C185  1.216072 A    
C202  O76   1.397026 S    
C120  C204  1.495639 S    
C89   C177  1.417698 A    
O2    Zn2   2.022478 S    
C100  C159  1.414819 A    
C19   C27   1.416657 A    
C45   C53   1.427910 A    
C22   C71   1.405256 A    
O43   C181  1.265115 A    
C86   C174  1.425167 A    
C47   C55   1.420940 A    
C216  H68   1.111014 S    
O6    C6    1.254662 A    
C113  C121  1.381591 A    
C172  C216  1.512667 S    
O41   C183  1.272485 A    
C87   C95   1.439545 A    
O42   C184  1.273295 A    
C190  O51   1.219667 D    
C195  O62   1.397062 S    
C155  C163  1.395555 A    
C46   C66   1.407694 A    
C165  C173  1.421775 A    
C98   C157  1.408460 A    
C107  C155  1.410927 A    
C153  C161  1.399823 A    
O20   C12   1.295269 A    
C78   C97   1.411851 A    
C204  O80   1.399460 S    
O21   C13   1.291950 A    
O43   Zn12  1.997217 S    
C206  O84   1.396954 S    
O44   Zn11  1.997218 S    
C41   C65   1.409479 A    
C92   C180  1.422692 A    
O23   C15   1.280424 A    
O24   C16   1.285170 A    
C212  H56   1.108257 S    
O17   Zn1   2.015141 S    
C107  C115  1.425876 A    
C177  C221  1.487452 S    
C30   C32   1.416275 A    
C79   C143  1.424045 A    
C80   C144  1.426190 A    
C103  C111  1.407001 A    
C194  O59   1.222860 D    
C88   C176  1.423492 A    
O3    C3    1.262387 A    
C15   C56   1.446460 S    
C193  O57   1.222265 D    
C203  O77   1.223557 D    
O28   C4    1.296977 A    
C179  C223  1.474845 S    
O33   C181  1.228967 A    
C116  C124  1.398415 A    
O45   Zn9   1.995586 S    
C119  C127  1.408021 A    
C109  C117  1.381936 A    
C120  C128  1.390091 A    
C109  C188  1.466430 S    
C110  C187  1.486156 S    
C24   C38   1.401553 A    
C138  C146  1.411538 A    
C34   C44   1.411408 A    
C178  C222  1.488930 S    
C39   C42   1.403335 A    
C7    C131  1.471779 S    
C95   C164  1.411154 A    
C149  H9    1.082480 S    
C191  O54   1.396163 S    
O8    C8    1.257152 A    
C63   C199  1.488693 S    
C17   C35   1.404889 A    
C50   C68   1.401249 A    
C220  O95   1.223428 D    
C48   C65   1.401065 A    
C24   C69   1.394799 A    
C21   C39   1.412352 A    
C93   C162  1.399368 A    
C189  O50   1.397686 S    
C170  C178  1.424385 A    
C42   C66   1.409737 A    
C99   C160  1.402786 A    
C215  H64   1.107045 S    
O12   Zn7   2.103703 S    
C83   C91   1.407548 A    
O13   Zn2   2.106300 S    
C73   H5    1.072600 S    
C152  C160  1.388501 A    
O54   H27   1.013363 S    
O12   C12   1.257443 A    
C133  C165  1.424021 A    
C94   C161  1.408465 A    
O36   C184  1.226893 A    
C21   C72   1.413883 A    
O25   C1    1.286389 A    
C213  H58   1.104213 S    
C29   C192  1.485781 S    
C48   C56   1.427386 A    
C224  O103  1.223326 D    
O10   C10   1.245451 A    
C149  C157  1.397581 A    
O50   H25   1.013513 S    
O68   H34   1.013873 S    
C209  H45   1.107306 S    
C69   H1    1.074394 S    
O14   C14   1.251734 A    
C111  C186  1.467081 S    
C211  H52   1.106244 S    
C31   C190  1.480344 S    
C89   C97   1.429037 A    
C108  C148  1.417341 A    
C79   C87   1.410166 A    
C80   C88   1.408106 A    
C136  C168  1.424822 A    
C131  C139  1.447116 A    
O5    C5    1.257137 A    
C21   C29   1.419986 A    
C129  C137  1.451559 A    
C172  C180  1.406908 A    
C91   C179  1.420650 A    
C171  C215  1.510757 S    
C200  O72   1.397629 S    
O10   Zn5   2.106300 S    
C132  C140  1.432451 A    
C205  O82   1.396825 S    
C133  C141  1.412966 A    
O40   C188  1.227248 A    
C25   C27   1.414680 A    
C85   C173  1.423177 A    
O52   H26   1.013843 S    
C136  C144  1.408563 A    
C207  O86   1.396833 S    
C115  C123  1.383764 A    
O34   C182  1.225743 A    
C159  H19   1.077717 S    
C79   C100  1.421259 A    
C48   C70   1.414361 A    
C124  C132  1.376486 A    
C84   C95   1.421755 A    
C140  C172  1.418232 A    
C59   C64   1.398042 A    
C125  C133  1.445617 A    
O70   H35   1.011358 S    
C210  H49   1.109777 S    
C56   C61   1.394182 A    
C160  H20   1.077092 S    
O39   Zn10  1.986248 S    
C106  C154  1.416296 A    
O19   C11   1.291563 A    
C196  O64   1.397916 S    
O66   H33   1.013061 S    
O37   Zn9   1.993847 S    
C11   C60   1.452598 S    
O38   C186  1.240084 A    
O86   H43   1.013900 S    
O3    Zn3   2.028263 S    
O27   Zn8   2.074930 S    
C124  C208  1.492127 S    
C198  O67   1.223530 D    
C60   C63   1.381574 A    
C32   C189  1.487567 S    
C135  C143  1.414339 A    
O78   H39   1.014075 S    
O32   Zn3   2.074930 S    
C155  H15   1.081752 S    
C192  O55   1.222937 D    
C163  H23   1.078525 S    
C86   C94   1.439002 A    
C153  H13   1.082470 S    
O82   H41   1.013671 S    
C114  C122  1.395768 A    
C37   C41   1.414445 A    
C116  C181  1.466281 S    
C49   C67   1.399925 A    
C47   C66   1.400842 A    
O15   Zn4   2.103703 S    
O25   Zn6   2.074113 S    
C157  H17   1.081623 S    
O22   C14   1.298918 A    
C4    C128  1.464916 S    
C10   C57   1.446387 S    
O60   H30   1.013786 S    
C209  H47   1.111008 S    
C5    C129  1.472054 S    
C110  C118  1.397673 A    
C217  O89   1.223271 D    
C76   H8    1.074347 S    
C51   C68   1.404302 A    
C17   C25   1.419432 A    
C82   C146  1.431138 A    
C106  C114  1.439701 A    
O94   H71   1.012793 S    
C47   C69   1.412214 A    
C84   C92   1.418865 A    
C30   C191  1.485262 S    
C85   C93   1.429371 A    
C121  C205  1.487477 S    
C222  O100  1.397082 S    
O76   H38   1.013636 S    
C88   C96   1.430993 A    
C122  C206  1.485207 S    
C199  O69   1.220097 D    
O41   Zn11  1.995586 S    
C19   C74   1.407957 A    
C115  C182  1.467275 S    
O42   Zn12  1.995587 S    
C44   C68   1.416593 A    
C202  O75   1.223196 D    
C35   C44   1.414841 A    
C107  C147  1.405176 A    
O72   H36   1.013679 S    
C45   C71   1.410837 A    
C20   C28   1.421625 A    
C194  O60   1.397982 S    
C197  O65   1.222674 D    
O29   C5    1.289663 A    
O102  H75   1.008782 S    
C216  H67   1.107341 S    
C171  C179  1.419826 A    
C176  C220  1.491847 S    
C101  C109  1.424344 A    
C180  C224  1.489808 S    
C102  C150  1.416948 A    
C83   C96   1.416937 A    
C26   C28   1.420141 A    
O84   H42   1.012655 S    
C104  C112  1.438545 A    
C6    C130  1.485472 S    
C16   C55   1.469722 S    
C195  O61   1.222828 D    
O98   H73   1.010567 S    
O15   C15   1.250932 A    
O62   H31   1.013517 S    
C92   C100  1.431952 A    
O16   C16   1.263385 A    
O1    C1    1.257808 A    
O92   H70   1.013789 S    
C139  C171  1.422521 A    
C206  O83   1.223084 D    
C219  O94   1.394723 S    
C91   C99   1.432259 A    
C137  C169  1.430186 A    
O4    Zn4   2.028263 S    
C25   C196  1.484600 S    
O5    Zn5   2.022478 S    
C90   C98   1.434126 A    
C212  H55   1.109822 S    
C175  C219  1.488465 S    
O14   Zn1   2.106300 S    
C102  C142  1.417613 A    
C117  C125  1.401343 A    
C78   C142  1.430537 A    
C29   C31   1.418205 A    
C46   C54   1.428791 A    
C166  C210  1.522074 S    
C18   C26   1.419403 A    
O56   H28   1.013666 S    
O31   C7    1.286807 A    
C201  O74   1.396826 S    
O1    Zn1   2.022478 S    
O100  H74   1.013790 S    
O11   C11   1.245720 A    
C223  O102  1.391675 S    
C1    C125  1.466975 S    
C103  C143  1.404747 A    
C112  C185  1.458468 S    
C208  O88   1.399133 S    
C22   C30   1.418865 A    
C20   C73   1.405270 A    
C154  C162  1.387535 A    
C45   C65   1.406236 A    
C13   C54   1.482347 S    
C78   C86   1.414778 A    
C97   C158  1.402833 A    
C221  O98   1.390230 S    
O28   Zn7   2.074930 S    
O26   C2    1.299631 A    
O29   Zn2   2.074113 S    
C103  C151  1.396083 A    
C197  O66   1.396986 S    
C191  O53   1.222548 D    
C62   C198  1.487394 S    
C51   C73   1.413185 A    
C49   C57   1.428079 A    
C74   H6    1.076518 S    
C46   C72   1.412393 A    
O47   C185  1.269322 A    
C52   C67   1.405175 A    
O104  H76   1.013601 S    
C27   C194  1.484778 S    
C151  C159  1.388994 A    
C189  O49   1.222830 D    
C118  C202  1.487234 S    
C105  C145  1.405200 A    
C108  C116  1.440422 A    
C215  H63   1.107058 S    
C190  O52   1.397584 S    
C18   C75   1.405523 A    
C169  C213  1.513430 S    
O38   Zn10  1.993848 S    
C108  C156  1.408539 A    
O26   Zn5   2.074113 S    
C52   C60   1.430692 A    
C84   C148  1.433642 A    
C213  H57   1.107846 S    
C23   C37   1.402008 A    
C77   C85   1.406744 A    
C139  C147  1.413533 A    
C137  C145  1.416750 A    
C40   C41   1.405109 A    
C167  C175  1.434588 A    
C81   C145  1.425067 A    
C150  H10   1.075937 S    
C211  H51   1.108846 S    
C26   C195  1.489580 S    
O20   Zn4   2.014798 S    
C51   C59   1.436781 A    
C23   C70   1.403476 A    
C164  H24   1.079557 S    
C214  H60   1.108949 S    
O21   Zn5   2.015141 S    
C113  C184  1.468341 S    
C218  O91   1.223320 D    
C14   C53   1.466229 S    
C52   C74   1.408618 A    
C114  C183  1.481725 S    
C58   C64   1.390520 A    
C168  C212  1.509196 S    
C20   C34   1.408879 A    
C193  O58   1.398713 S    
C214  H61   1.109512 S    
C43   C67   1.408909 A    
C24   C32   1.417125 A    
C200  O71   1.222542 D    
O17   C9    1.298323 A    
C106  C146  1.415724 A    
O19   Zn3   2.014798 S    
C174  C218  1.486637 S    
C140  C148  1.411253 A    
C169  C177  1.430695 A    
C134  C166  1.428746 A    
C9    C58   1.472276 S    
C77   C141  1.423823 A    
C207  O85   1.223350 D    
O48   C186  1.262420 A    
C50   C58   1.430155 A    
C101  C149  1.409506 A    
