data_mof_unit_47462.cif
_audit_creation_date              2012-10-26T19:15:56-0400
_audit_creation_method            fapswitch 2.2
_symmetry_space_group_name_H-M    P1
_symmetry_Int_Tables_number       1
_space_group_crystal_system       triclinic
_cell_length_a                    7.777883
_cell_length_b                    9.089315
_cell_length_c                    17.068989
_cell_angle_alpha                 89.624062
_cell_angle_beta                  93.260001
_cell_angle_gamma                 90.00909
_cell_volume                      1204.72421108

loop_
_atom_site_label
_atom_site_type_symbol
_atom_type_description
_atom_site_fract_x
_atom_site_fract_y
_atom_site_fract_z
_atom_type_partial_charge
Br1   Br    Br    0.763610 0.304572 0.270956 -0.387837
Br2   Br    Br    0.442561 0.809195 0.714318 -0.405904
Br3   Br    Br    0.811422 0.401378 0.085999 -0.258776
Br4   Br    Br    0.370054 0.803197 0.902084 -0.219752
Br5   Br    Br    0.569218 0.186128 0.918122 -0.247984
Br6   Br    Br    0.183334 0.737631 0.082931 -0.261304
C1    C     C_R   0.499984 0.219999 0.500027 0.549915
C2    C     C_R   0.619665 0.476056 0.140725 0.195520
C3    C     C_R   0.487225 0.495043 0.898661 0.178888
C4    C     C_R   0.496213 0.565052 0.100355 0.188177
C5    C     C_R   0.536565 0.367222 0.859921 0.200613
C6    C     C_R   0.359384 0.624747 0.139588 0.208857
C7    C     C_R   0.557360 0.368931 0.779000 0.067297
C8    C     C_R   0.347895 0.600561 0.220257 0.082202
C9    C     C_1   0.500017 0.065375 0.500063 -0.019104
C10   C     C_1   0.500064 0.934633 0.500066 -0.013425
C11   C     C_3   0.782812 0.208954 0.738238 -0.215080
C12   C     C_R   0.500058 0.779997 0.500071 0.564863
C13   C     C_3   0.252200 0.811559 0.291812 -0.230646
C14   C     C_R   0.519944 0.498481 0.650905 0.576547
C15   C     C_R   0.479843 0.501518 0.348355 0.572347
C16   C     C_R   0.526122 0.500126 0.736278 -0.036335
C17   C     C_R   0.473274 0.511751 0.261846 -0.041597
C18   C     C_R   0.479281 0.629484 0.774340 0.122770
C19   C     C_R   0.605410 0.444951 0.220583 0.124266
C20   C     C_R   0.457123 0.627507 0.855360 0.196244
Cu1   Cu    Cu3+1 0.669080 0.500010 0.500000 1.078082
Cu2   Cu    Cu3+1 0.330920 0.499990 0.500000 1.065102
H1    H     H_    0.534753 0.219566 0.687162 0.260376
H2    H     H_    0.803914 0.099273 0.712165 0.182436
H3    H     H_    0.845478 0.209777 0.798358 0.210994
H4    H     H_    0.843437 0.293979 0.701763 0.149592
H5    H     H_    0.139375 0.601873 0.292349 0.300276
H6    H     H_    0.354981 0.800811 0.339275 0.129881
H7    H     H_    0.135746 0.859031 0.316657 0.171263
H8    H     H_    0.296091 0.888011 0.245997 0.201645
N1    N     N_1   0.076820 0.499970 0.500010 -0.070790
N2    N     N_1   0.923180 0.500030 0.499990 -0.066885
N3    N     N_2   0.464504 0.481917 0.980321 -0.133015
N4    N     N_2   0.508893 0.591983 0.019440 -0.116547
N5    N     N_2   0.599959 0.235989 0.740687 -0.455728
N6    N     N_2   0.210945 0.669393 0.258132 -0.462098
O1    O     O_R   0.642760 0.288400 0.500000 -0.491580
O2    O     O_R   0.357240 0.711600 0.500000 -0.493529
O3    O     O_R   0.357190 0.288380 0.500000 -0.496990
O4    O     O_R   0.642810 0.711620 0.500000 -0.492902
O5    O     O_R   0.658410 0.498660 0.613920 -0.499754
O6    O     O_R   0.341590 0.501340 0.386080 -0.511534
O7    O     O_R   0.372840 0.498650 0.613930 -0.482451
O8    O     O_R   0.627160 0.501350 0.386070 -0.466608

loop_
_geom_bond_atom_site_label_1
_geom_bond_atom_site_label_2
_ccdc_geom_bond_type
C8    C17   A    
C7    C16   A    
Br4   C20   S    
Cu1   O8    S    
N1    N2    T    
C11   H2    S    
C1    O1    A    
C3    C5    A    
Cu2   O7    S    
C13   N6    S    
C8    N6    S    
C15   O6    A    
C1    C9    S    
C6    C8    A    
C13   H7    S    
Br1   C19   S    
C2    C19   A    
C5    C7    A    
C14   O7    A    
C4    C6    A    
Cu2   N1    S    
H5    N6    S    
C1    O3    A    
Cu1   O4    S    
C7    N5    S    
C15   O8    A    
C18   C20   A    
C3    C20   A    
Br5   C5    S    
C12   O2    A    
C13   H8    S    
C15   C17   S    
Br2   C18   S    
C11   H3    S    
C16   C18   A    
Cu2   O3    S    
C11   N5    S    
Cu1   N2    S    
C9    C10   T    
C14   O5    A    
Br6   C6    S    
C12   O4    A    
C3    N3    S    
C17   C19   A    
C10   C12   S    
Br3   C2    S    
Cu1   O5    S    
N3    N4    D    
C11   H4    S    
Cu1   O1    S    
Cu2   O6    S    
C4    N4    S    
H1    N5    S    
Cu2   O2    S    
C2    C4    A    
C14   C16   S    
Cu1   Cu2   S    
C13   H6    S    
