data_mof_unit_26882.cif
_audit_creation_date              2012-12-10T21:25:17-0500
_audit_creation_method            fapswitch 2.2
_symmetry_space_group_name_H-M    P1
_symmetry_Int_Tables_number       1
_space_group_crystal_system       triclinic
_cell_length_a                    10.721147
_cell_length_b                    17.513745
_cell_length_c                    16.87913
_cell_angle_alpha                 93.17932
_cell_angle_beta                  91.419515
_cell_angle_gamma                 91.187778
_cell_volume                      3162.72596591

loop_
_atom_site_label
_atom_site_type_symbol
_atom_type_description
_atom_site_fract_x
_atom_site_fract_y
_atom_site_fract_z
_atom_type_partial_charge
C1    C     C_R   0.502763 0.353599 0.498134 0.941492
C2    C     C_R   0.587829 0.228445 0.447518 -0.039619
C3    C     C_R   0.503548 0.728628 0.506656 -0.050428
C4    C     C_R   0.503992 0.271108 0.494826 -0.061227
C5    C     C_R   0.600156 0.763690 0.466678 -0.388485
C6    C     C_R   0.420726 0.234506 0.543742 -0.361855
C7    C     C_R   0.613898 0.842892 0.469383 0.044019
C8    C     C_R   0.419759 0.155541 0.548108 0.042169
C9    C     C_R   0.527799 0.886441 0.513346 0.111605
C10   C     C_R   0.503841 0.113419 0.501091 0.102288
C11   C     C_1   0.523661 0.966628 0.510082 0.070873
C12   C     C_R   0.498154 0.646323 0.501955 0.952926
C13   C     C_1   0.514974 0.033724 0.506119 0.060402
C14   C     C_R   0.409952 0.455017 0.827647 0.001773
C15   C     C_R   0.557555 0.566974 0.175785 0.032365
C16   C     C_R   0.259932 0.501275 0.499152 0.925159
C17   C     C_R   0.740068 0.498803 0.500946 0.913773
C18   C     C_R   0.419720 0.452664 0.743681 -0.054834
C19   C     C_R   0.554718 0.561080 0.259353 -0.055962
C20   C     C_R   0.574983 0.551530 0.753379 0.155182
C21   C     C_R   0.445705 0.441758 0.242980 0.195668
C22   C     C_R   0.574049 0.552429 0.837966 -0.077804
C23   C     C_R   0.872459 0.498445 0.502468 -0.056938
C24   C     C_R   0.431780 0.450617 0.159463 -0.112225
C25   C     C_R   0.488752 0.505520 0.876038 0.084264
C26   C     C_R   0.492698 0.511742 0.124721 0.026472
C27   C     C_1   0.487591 0.509074 0.964058 0.075035
C28   C     C_1   0.491194 0.513253 0.036902 0.003599
C29   C     C_R   0.175310 0.691730 0.310379 0.058699
C30   C     C_R   0.759965 0.330014 0.688635 0.068900
C31   C     C_R   0.138740 0.652269 0.376774 -0.167533
C32   C     C_R   0.817085 0.362344 0.623730 -0.141103
C33   C     C_R   0.115283 0.573245 0.370596 0.113446
C34   C     C_R   0.127585 0.501553 0.498101 -0.057679
C35   C     C_R   0.883031 0.432212 0.633226 0.117798
C36   C     C_R   0.129849 0.532756 0.297977 -0.178403
C37   C     C_R   0.894696 0.469567 0.708465 -0.232744
C38   C     C_R   0.169502 0.570296 0.232156 -0.129953
C39   C     C_R   0.837284 0.439026 0.773168 -0.169324
C40   C     C_R   0.190903 0.650009 0.236649 0.045326
C41   C     C_R   0.767803 0.369889 0.764359 0.070001
C42   C     C_R   0.931404 0.532116 0.439950 -0.240916
C43   C     C_R   0.068660 0.468548 0.561234 -0.243721
C44   C     C_2   0.223763 0.688279 0.163294 0.319109
C45   C     C_R   0.940746 0.466816 0.564484 0.015403
C46   C     C_2   0.703397 0.341338 0.834245 0.330756
C47   C     C_2   0.717444 0.876481 0.424617 0.360195
C48   C     C_2   0.331090 0.121022 0.603189 0.365110
C49   C     C_3   0.314046 0.403318 0.862888 -0.413612
C50   C     C_3   0.362204 0.321792 0.866319 -0.370587
C51   C     C_3   0.263292 0.268051 0.897434 -0.835879
C52   C     C_3   0.631691 0.632156 0.143633 -0.412340
C53   C     C_3   0.546839 0.698158 0.124170 -0.265375
C54   C     C_3   0.622479 0.768902 0.103931 -0.826669
C55   C     C_3   0.655059 0.611905 0.716176 -0.397852
C56   C     C_R   0.059180 0.534440 0.437094 0.014368
C57   C     C_3   0.599747 0.692020 0.727342 -0.350150
C58   C     C_3   0.682689 0.752235 0.691358 -0.854289
C59   C     C_3   0.427055 0.361100 0.270565 -0.330853
C60   C     C_3   0.300326 0.346549 0.308303 -0.293759
C61   C     C_3   0.277757 0.261588 0.319893 -0.874227
C62   C     C_2   0.663589 0.602808 0.886505 0.376390
C63   C     C_2   0.358900 0.393820 0.106619 0.348969
C64   C     C_3   0.190130 0.778014 0.319605 -0.462479
C65   C     C_3   0.327983 0.803037 0.325080 -0.336372
C66   C     C_3   0.342669 0.889869 0.335404 -0.835619
C67   C     C_R   0.433043 0.851669 0.554673 -0.285058
C68   C     C_3   0.693206 0.253218 0.674861 -0.450453
C69   C     C_3   0.768794 0.188975 0.709605 -0.367219
C70   C     C_3   0.703659 0.111324 0.692360 -0.814296
C71   C     C_2   0.308785 0.740005 0.591233 0.335086
C72   C     C_2   0.685179 0.262527 0.398301 0.331060
C73   C     C_R   0.584434 0.149238 0.450420 -0.286868
C74   C     C_R   0.418114 0.772557 0.551181 -0.013479
H1    H     H_    0.359755 0.413853 0.707109 0.132552
H2    H     H_    0.122314 0.443048 0.607930 0.154775
H3    H     H_    0.366730 0.886803 0.586815 0.180976
H4    H     H_    0.649038 0.115210 0.415586 0.174395
H5    H     H_    0.665394 0.728732 0.433418 0.137286
H6    H     H_    0.356998 0.268211 0.579562 0.139170
H7    H     H_    0.238849 0.749602 0.163775 0.079728
H8    H     H_    0.643830 0.290576 0.828821 0.064895
H9    H     H_    0.774406 0.839302 0.387522 0.061793
H10   H     H_    0.273600 0.157963 0.640186 0.063214
H11   H     H_    0.236252 0.288075 0.958069 0.285255
H12   H     H_    0.600620 0.604989 0.297902 0.138243
H13   H     H_    0.179285 0.265271 0.857412 0.260053
H14   H     H_    0.301233 0.209700 0.899954 0.249525
H15   H     H_    0.388532 0.299796 0.806082 0.210698
H16   H     H_    0.446271 0.322113 0.906215 0.241203
H17   H     H_    0.289430 0.425225 0.923373 0.215169
H18   H     H_    0.226524 0.402915 0.826029 0.206079
H19   H     H_    0.681212 0.790259 0.155967 0.242146
H20   H     H_    0.683457 0.755471 0.053050 0.299287
H21   H     H_    0.558094 0.814739 0.087810 0.248294
H22   H     H_    0.483376 0.680322 0.073172 0.284573
H23   H     H_    0.124031 0.683432 0.432920 0.161824
H24   H     H_    0.489494 0.713427 0.176252 0.193933
H25   H     H_    0.704259 0.653231 0.188311 0.184514
H26   H     H_    0.682243 0.611715 0.090140 0.246528
H27   H     H_    0.774256 0.757145 0.723685 0.262238
H28   H     H_    0.698453 0.736738 0.627811 0.264736
H29   H     H_    0.637070 0.808598 0.696028 0.260529
H30   H     H_    0.505433 0.692118 0.698771 0.249416
H31   H     H_    0.589333 0.708621 0.791147 0.243786
H32   H     H_    0.751578 0.612158 0.741364 0.158592
H33   H     H_    0.667154 0.599707 0.653225 0.263377
H34   H     H_    0.811001 0.333003 0.565523 0.156152
H35   H     H_    0.271923 0.228953 0.261537 0.277285
H36   H     H_    0.354283 0.238747 0.356403 0.267588
H37   H     H_    0.188431 0.253366 0.350572 0.254036
H38   H     H_    0.294584 0.377759 0.366413 0.239194
H39   H     H_    0.223790 0.366289 0.269907 0.253096
H40   H     H_    0.435344 0.318663 0.219699 0.186382
H41   H     H_    0.507585 0.345322 0.307241 0.219895
H42   H     H_    0.761890 0.604048 0.873001 0.065228
H43   H     H_    0.392679 0.376414 0.048515 0.084089
H44   H     H_    0.297780 0.917159 0.284476 0.259769
H45   H     H_    0.106751 0.472335 0.291900 0.146107
H46   H     H_    0.299670 0.911218 0.391366 0.269767
H47   H     H_    0.443353 0.906227 0.338006 0.252093
H48   H     H_    0.373270 0.777080 0.376444 0.250023
H49   H     H_    0.376773 0.783154 0.270943 0.202669
H50   H     H_    0.141153 0.804731 0.269793 0.195068
H51   H     H_    0.144432 0.799972 0.374536 0.214570
H52   H     H_    0.608230 0.111520 0.716565 0.261755
H53   H     H_    0.697579 0.097479 0.627391 0.269741
H54   H     H_    0.757900 0.066289 0.720495 0.251058
H55   H     H_    0.862606 0.187627 0.682952 0.233313
H56   H     H_    0.946422 0.523331 0.716724 0.151393
H57   H     H_    0.781864 0.198974 0.774804 0.219429
H58   H     H_    0.598236 0.255498 0.699634 0.191280
H59   H     H_    0.680080 0.239248 0.610258 0.231255
H60   H     H_    0.259565 0.775500 0.634416 0.081346
H61   H     H_    0.726947 0.227480 0.351419 0.083999
H62   H     H_    0.179370 0.536989 0.176755 0.205026
H63   H     H_    0.846192 0.470278 0.830257 0.174799
H64   H     H_    0.877746 0.558104 0.393553 0.157206
N1    N     N_R   0.500030 0.500030 0.707230 -0.105049
N2    N     N_R   0.499970 0.499970 0.292770 -0.110895
O1    O     O_R   0.500000 0.389130 0.566570 -0.636406
O2    O     O_2   0.715551 0.374745 0.899531 -0.587279
O3    O     O_2   0.741978 0.944972 0.428938 -0.588170
O4    O     O_2   0.319792 0.051975 0.608025 -0.592851
O5    O     O_2   0.627226 0.645140 0.940507 -0.598630
O6    O     O_2   0.258739 0.367804 0.126467 -0.586194
O7    O     O_2   0.269410 0.675005 0.575159 -0.586282
O8    O     O_2   0.724088 0.328099 0.411076 -0.584458
O9    O     O_R   0.500000 0.610870 0.433430 -0.639324
O10   O     O_R   0.499990 0.389100 0.433480 -0.604832
O11   O     O_R   0.500010 0.610900 0.566520 -0.605489
O12   O     O_R   0.316760 0.500020 0.566540 -0.601047
O13   O     O_R   0.683240 0.499980 0.433460 -0.595303
O14   O     O_R   0.316760 0.499990 0.433460 -0.639582
O15   O     O_R   0.683240 0.500010 0.566540 -0.651860
O16   O     O_2   0.234011 0.651367 0.100328 -0.579249
Zn1   Zn    Zn3+2 0.500010 0.500020 0.588860 0.956051
Zn2   Zn    Zn3+2 0.499990 0.499980 0.411140 0.961957

loop_
_geom_bond_atom_site_label_1
_geom_bond_atom_site_label_2
_ccdc_geom_bond_type
C70   H53   S    
C71   O7    D    
C39   H63   S    
C34   C56   A    
C18   H1    S    
C23   C45   A    
C42   H64   S    
C14   C18   A    
C57   H31   S    
C67   H3    S    
C19   H12   S    
C17   O13   A    
C51   H11   S    
C71   H60   S    
C9    C67   A    
C39   C41   A    
C53   C54   S    
C15   C19   A    
C17   C23   S    
C23   C42   A    
O11   Zn1   S    
C20   N1    A    
C68   H59   S    
C35   C37   A    
C24   C26   A    
O14   Zn2   S    
C63   H43   S    
C10   C73   A    
C14   C49   S    
O15   Zn1   S    
C47   O3    D    
C33   C36   A    
C37   H56   S    
C48   O4    D    
C66   H44   S    
O13   Zn2   S    
C68   H58   S    
C3    C74   A    
C54   H19   S    
C3    C12   S    
C42   C56   A    
C46   H8    S    
C50   H16   S    
C68   C69   S    
C62   O5    D    
C41   C46   S    
C31   C33   A    
C30   C41   A    
C58   H28   S    
C38   H62   S    
C5    H5    S    
O9    Zn2   S    
C63   O6    D    
N2    Zn2   S    
C70   H52   S    
C33   C56   S    
C31   H23   S    
C29   C64   S    
C61   H35   S    
C59   C60   S    
C38   C40   A    
C66   H46   S    
C53   H22   S    
C12   O11   A    
C60   H39   S    
C18   N1    A    
C49   H17   S    
C20   C55   S    
C2    C72   S    
C61   H36   S    
C37   C39   A    
C36   H45   S    
C55   H32   S    
C44   O16   D    
C32   C35   A    
C4    C6    A    
C44   H7    S    
C51   H13   S    
C5    C7    A    
C19   N2    A    
C72   H61   S    
C6    C8    A    
C3    C5    A    
C72   O8    D    
C73   H4    S    
C22   C25   A    
C48   H10   S    
C55   H33   S    
C60   C61   S    
C7    C47   S    
C2    C4    A    
C8    C48   S    
C35   C45   S    
C62   H42   S    
C60   H38   S    
C22   C62   S    
C9    C11   S    
C50   H15   S    
C6    H6    S    
C59   H41   S    
C69   H57   S    
C16   C34   S    
C50   C51   S    
C66   H47   S    
C1    O10   A    
C16   O12   A    
C58   H27   S    
C65   H48   S    
C43   C45   A    
C54   H21   S    
C2    C73   A    
O1    Zn1   S    
C20   C22   A    
C65   C66   S    
C24   C63   S    
C47   H9    S    
C55   C57   S    
C16   O14   A    
C49   C50   S    
C49   H18   S    
C17   O15   A    
C52   C53   S    
C70   H54   S    
C43   H2    S    
C7    C9    A    
C57   H30   S    
O12   Zn1   S    
O10   Zn2   S    
C12   O9    A    
C8    C10   A    
C34   C43   A    
C15   C26   A    
C10   C13   S    
C51   H14   S    
C71   C74   S    
C21   C59   S    
C53   H24   S    
C25   C27   S    
C52   H25   S    
C26   C28   S    
C1    C4    S    
C64   C65   S    
C15   C52   S    
C29   C31   A    
C64   H50   S    
C30   C32   A    
C11   C13   T    
C57   C58   S    
C59   H40   S    
C29   C40   A    
C36   C38   A    
C46   O2    D    
C52   H26   S    
C67   C74   A    
C65   H49   S    
C14   C25   A    
C69   C70   S    
C54   H20   S    
C1    O1    A    
C40   C44   S    
N1    Zn1   S    
C69   H55   S    
C64   H51   S    
C32   H34   S    
C21   C24   A    
C27   C28   T    
C58   H29   S    
C21   N2    A    
C30   C68   S    
C61   H37   S    
