data_mof_unit_40642.cif
_audit_creation_date              2012-12-11T14:33:55-0500
_audit_creation_method            fapswitch 2.2
_symmetry_space_group_name_H-M    P1
_symmetry_Int_Tables_number       1
_space_group_crystal_system       triclinic
_cell_length_a                    13.851738
_cell_length_b                    13.976074
_cell_length_c                    27.319578
_cell_angle_alpha                 89.973232
_cell_angle_beta                  90.088887
_cell_angle_gamma                 119.628218
_cell_volume                      4597.35855571

loop_
_atom_site_label
_atom_site_type_symbol
_atom_type_description
_atom_site_fract_x
_atom_site_fract_y
_atom_site_fract_z
_atom_type_partial_charge
C1    C     C_R   0.234031 0.787148 0.568799 0.541268
C2    C     C_R   0.212651 0.446640 0.568820 0.544630
C3    C     C_R   0.552513 0.765138 0.569095 0.542223
C4    C     C_3   0.658215 0.733886 0.790586 -0.221996
C5    C     C_3   0.244388 0.953731 0.783358 -0.223194
C6    C     C_3   0.055093 0.311400 0.785779 -0.222709
C7    C     C_3   0.637517 0.720869 0.734628 -0.202871
C8    C     C_3   0.261444 0.938052 0.728624 -0.202993
C9    C     C_3   0.072784 0.346308 0.731212 -0.203202
C10   C     C_1   0.705871 0.862081 0.860404 -0.076258
C11   C     C_1   0.113634 0.881018 0.852584 -0.078189
C12   C     C_1   0.114518 0.231007 0.852240 -0.078314
C13   C     C_1   0.626822 0.813594 0.659338 -0.012977
C14   C     C_1   0.177823 0.818963 0.656492 -0.021340
C15   C     C_1   0.179044 0.359025 0.656467 -0.020285
C16   C     C_1   0.599861 0.795548 0.616976 0.014056
C17   C     C_1   0.199622 0.806060 0.615304 0.009178
C18   C     C_1   0.193286 0.393686 0.615301 0.010666
C19   C     C_R   0.064846 0.150330 0.095968 0.579241
C20   C     C_R   0.777517 0.884065 0.088384 0.547552
C21   C     C_R   0.116472 0.893646 0.088147 0.560630
C22   C     C_R   0.069350 0.160413 0.943233 0.539305
C23   C     C_R   0.779496 0.887047 0.950846 0.541707
C24   C     C_R   0.090683 0.929706 0.943372 0.536160
C25   C     C_R   0.618464 0.895681 0.361524 -0.131472
C26   C     C_R   0.097169 0.732515 0.362866 -0.132724
C27   C     C_R   0.264289 0.357576 0.363801 -0.133438
C28   C     C_R   0.644848 0.911316 0.311901 0.014039
C29   C     C_R   0.080582 0.743999 0.313201 0.014199
C30   C     C_R   0.241316 0.306681 0.317712 0.014286
C31   C     C_R   0.681244 0.929211 0.210407 0.017136
C32   C     C_R   0.060619 0.759966 0.211550 0.017026
C33   C     C_R   0.200701 0.225822 0.220997 0.017041
C34   C     C_R   0.232497 0.788336 0.431820 0.550896
C35   C     C_R   0.211691 0.444503 0.431377 0.552460
C36   C     C_R   0.555586 0.767214 0.431906 0.552349
C37   C     C_R   0.653592 0.000865 0.234520 -0.138123
C38   C     C_R   0.977468 0.670858 0.237606 -0.127870
C39   C     C_R   0.303034 0.256653 0.243601 -0.123964
C40   C     C_R   0.635207 0.991826 0.285010 -0.130805
C41   C     C_R   0.988013 0.662219 0.288096 -0.128569
C42   C     C_R   0.323333 0.297105 0.291575 -0.128191
C43   C     C_R   0.704184 0.939592 0.160144 -0.150337
C44   C     C_R   0.050708 0.771107 0.161176 -0.135428
C45   C     C_R   0.182897 0.195068 0.171525 -0.128733
C46   C     C_R   0.729012 0.864858 0.137129 -0.003105
C47   C     C_R   0.135363 0.861322 0.136253 -0.005030
C48   C     C_R   0.082806 0.172522 0.148631 -0.008877
C49   C     C_R   0.658967 0.745015 0.364159 -0.128789
C50   C     C_R   0.265993 0.910854 0.361954 -0.126358
C51   C     C_R   0.076193 0.328015 0.368013 -0.127116
C52   C     C_R   0.683173 0.757872 0.314621 0.013187
C53   C     C_R   0.254247 0.920504 0.312243 0.013578
C54   C     C_R   0.052706 0.279020 0.321952 0.012013
C55   C     C_R   0.673630 0.839627 0.288062 0.063800
C56   C     C_R   0.162316 0.835944 0.287445 0.063206
C57   C     C_R   0.136161 0.270355 0.296145 0.062682
C58   C     C_R   0.708440 0.684642 0.290625 -0.126403
C59   C     C_R   0.337521 0.009683 0.286501 -0.126933
C60   C     C_R   0.949257 0.245181 0.300042 -0.128296
C61   C     C_R   0.720403 0.689743 0.240149 -0.127142
C62   C     C_R   0.331692 0.013427 0.235904 -0.129557
C63   C     C_R   0.930306 0.207958 0.251854 -0.122470
C64   C     C_R   0.710420 0.770125 0.213591 0.010961
C65   C     C_R   0.240621 0.930077 0.210958 0.014296
C66   C     C_R   0.013418 0.201653 0.225385 0.016647
C67   C     C_3   0.562608 0.851948 0.737794 -0.282686
C68   C     C_3   0.141966 0.733291 0.738894 -0.283380
C69   C     C_3   0.272088 0.391525 0.737208 -0.284409
C70   C     C_R   0.688909 0.846763 0.237372 0.065423
C71   C     C_R   0.154289 0.841972 0.236650 0.063996
C72   C     C_R   0.116161 0.230782 0.247763 0.062247
C73   C     C_R   0.724960 0.776691 0.163596 -0.122994
C74   C     C_R   0.232708 0.936090 0.160788 -0.132621
C75   C     C_R   0.997244 0.171835 0.176184 -0.129318
C76   C     C_R   0.618700 0.807978 0.386747 -0.000760
C77   C     C_R   0.193444 0.813124 0.386423 -0.001217
C78   C     C_R   0.183238 0.372508 0.388135 -0.002618
C79   C     C_3   0.766524 0.924616 0.723297 0.305121
C80   C     C_3   0.054896 0.847153 0.714103 0.314646
C81   C     C_3   0.125047 0.200847 0.712759 0.317940
C82   C     C_3   0.786835 0.936846 0.779413 -0.165621
C83   C     C_3   0.037343 0.863102 0.768934 -0.149228
C84   C     C_3   0.106823 0.166582 0.767398 -0.152747
C85   C     C_1   0.733675 0.872829 0.902707 -0.026809
C86   C     C_1   0.102703 0.901553 0.894301 -0.021471
C87   C     C_1   0.096020 0.199827 0.894024 -0.025429
C88   C     C_3   0.648621 0.827898 0.712271 0.064782
C89   C     C_3   0.158955 0.834010 0.708073 0.061065
C90   C     C_3   0.162463 0.324757 0.707956 0.058997
C91   C     C_3   0.583170 0.864998 0.793922 -0.239767
C92   C     C_3   0.124031 0.749636 0.793736 -0.237722
C93   C     C_3   0.254530 0.356671 0.791877 -0.237595
C94   C     C_3   0.683256 0.849763 0.807534 0.027687
C95   C     C_3   0.129201 0.861958 0.801051 0.017890
C96   C     C_3   0.132668 0.265921 0.800742 0.017742
Cr1   Cr    Cr6+3 0.164410 0.584450 0.499910 1.027054
Cr2   Cr    Cr6+3 0.415550 0.579960 0.499910 1.026247
Cr3   Cr    Cr6+3 0.420040 0.835590 0.499910 1.024602
Cr4   Cr    Cr6+3 0.155170 0.075460 0.019960 1.015581
Cr5   Cr    Cr6+3 0.924540 0.079710 0.019960 1.005730
Cr6   Cr    Cr6+3 0.920290 0.844830 0.019960 1.007703
H1    H     H_    0.599388 0.947958 0.805564 0.118243
H2    H     H_    0.042051 0.681666 0.806005 0.119844
H3    H     H_    0.312031 0.325850 0.802261 0.118389
H4    H     H_    0.476833 0.783725 0.730511 0.119318
H5    H     H_    0.215722 0.721914 0.735297 0.120124
H6    H     H_    0.301113 0.481187 0.734401 0.120725
H7    H     H_    0.507434 0.803040 0.813468 0.126526
H8    H     H_    0.188947 0.745825 0.816352 0.130827
H9    H     H_    0.275186 0.429566 0.815233 0.131662
H10   H     H_    0.729226 0.720961 0.799896 0.118679
H11   H     H_    0.252551 0.036073 0.788943 0.110902
H12   H     H_    0.966812 0.247516 0.791688 0.117035
H13   H     H_    0.706288 0.006857 0.139499 0.104543
H14   H     H_    0.975636 0.713357 0.142011 0.114005
H15   H     H_    0.248129 0.192942 0.150502 0.121958
H16   H     H_    0.588674 0.945611 0.379186 0.128448
H17   H     H_    0.039768 0.657845 0.382016 0.124611
H18   H     H_    0.346759 0.390768 0.379342 0.125496
H19   H     H_    0.646178 0.063725 0.214367 0.098273
H20   H     H_    0.905327 0.607156 0.218840 0.098371
H21   H     H_    0.368645 0.253008 0.223633 0.100581
H22   H     H_    0.612226 0.046835 0.302909 0.100251
H23   H     H_    0.924453 0.591281 0.307398 0.101464
H24   H     H_    0.404243 0.323898 0.307701 0.102630
H25   H     H_    0.742291 0.717262 0.145957 0.129393
H26   H     H_    0.298741 0.005321 0.141451 0.123336
H27   H     H_    0.919083 0.151708 0.158717 0.117911
H28   H     H_    0.737585 0.631025 0.221863 0.098435
H29   H     H_    0.397768 0.081910 0.216328 0.094459
H30   H     H_    0.852278 0.188174 0.234665 0.110553
H31   H     H_    0.715410 0.621355 0.310658 0.102133
H32   H     H_    0.408812 0.074562 0.305312 0.097854
H33   H     H_    0.884649 0.251843 0.319452 0.104282
H34   H     H_    0.568360 0.928501 0.722592 0.104743
H35   H     H_    0.068857 0.656987 0.724973 0.103760
H36   H     H_    0.338357 0.377849 0.721464 0.104537
H37   H     H_    0.661233 0.678776 0.383894 0.130182
H38   H     H_    0.338927 0.974970 0.380224 0.132711
H39   H     H_    0.012517 0.337435 0.386829 0.132263
H40   H     H_    0.774756 0.002401 0.708347 0.145946
H41   H     H_    0.980386 0.772268 0.700060 0.135155
H42   H     H_    0.189986 0.184768 0.697290 0.145940
H43   H     H_    0.807180 0.021179 0.790939 0.067457
H44   H     H_    0.954203 0.796423 0.780789 0.073923
H45   H     H_    0.161716 0.132936 0.777556 0.066185
H46   H     H_    0.859357 0.926795 0.788868 0.138449
H47   H     H_    0.037780 0.941813 0.774019 0.158427
H48   H     H_    0.019616 0.100887 0.773146 0.159791
H49   H     H_    0.552926 0.650483 0.727349 0.097473
H50   H     H_    0.337278 0.930350 0.724449 0.099597
H51   H     H_    0.098668 0.435277 0.728380 0.098250
H52   H     H_    0.697987 0.700890 0.717201 0.166188
H53   H     H_    0.275600 0.012210 0.707676 0.164541
H54   H     H_    0.992827 0.299815 0.711067 0.167515
H55   H     H_    0.583845 0.669453 0.810059 0.118386
H56   H     H_    0.311145 0.951857 0.805371 0.121750
H57   H     H_    0.072078 0.383449 0.809038 0.123054
O1    O     O_R   0.137150 0.468200 0.553200 -0.505701
O2    O     O_R   0.531800 0.668950 0.553200 -0.507495
O3    O     O_R   0.331050 0.862850 0.553200 -0.506267
O4    O     O_R   0.179100 0.982980 0.967000 -0.504307
O5    O     O_R   0.017020 0.196120 0.967000 -0.483333
O6    O     O_R   0.803880 0.820900 0.967000 -0.511661
O7    O     O_R   0.173970 0.688730 0.549930 -0.501638
O8    O     O_R   0.311270 0.485240 0.549930 -0.502379
O9    O     O_R   0.514760 0.826030 0.549930 -0.499556
O10   O     O_R   0.140110 0.470540 0.446010 -0.519794
O11   O     O_R   0.529460 0.669570 0.446010 -0.519793
O12   O     O_R   0.330430 0.859890 0.446010 -0.522272
O13   O     O_R   0.176710 0.690910 0.450560 -0.501254
O14   O     O_R   0.309090 0.485800 0.450560 -0.500280
O15   O     O_R   0.514200 0.823290 0.450560 -0.502777
O16   O     O_3   0.333333 0.666667 0.499990 -0.270253
O17   O     O_R   0.176750 0.985260 0.074180 -0.529867
O18   O     O_R   0.014740 0.191490 0.074180 -0.494526
O19   O     O_R   0.808510 0.823250 0.074180 -0.517300
O20   O     O_R   0.146100 0.172630 0.068980 -0.479171
O21   O     O_R   0.827370 0.973470 0.068980 -0.517617
O22   O     O_R   0.026530 0.853900 0.068980 -0.488814
O23   O     O_3   1.000000 0.000000 0.020040 -0.286251
O24   O     O_R   0.148270 0.170520 0.969620 -0.490306
O25   O     O_R   0.829480 0.977750 0.969620 -0.520039
O26   O     O_R   0.022250 0.851730 0.969620 -0.481915
F1    F     F_    0.846100 0.906933 0.700917 -0.567251
F2    F     F_    0.066630 0.936415 0.687165 -0.567078
F3    F     F_    0.027790 0.137943 0.686641 -0.569008

loop_
_geom_bond_atom_site_label_1
_geom_bond_atom_site_label_2
_ccdc_geom_bond_type
C15   C18   T    
C43   C46   A    
C10   C85   T    
C36   O15   A    
Cr1   O16   S    
C79   F1    S    
C2    C18   S    
C33   C45   A    
C14   C17   T    
C27   C78   A    
C25   H16   S    
C82   H43   S    
C6    C9    S    
C6    H57   S    
C53   C59   A    
Cr1   O10   S    
C20   O21   A    
C54   C60   A    
C27   H18   S    
C25   C28   A    
C21   O22   A    
C7    H52   S    
C67   C88   S    
C33   C39   A    
Cr1   O13   S    
C31   C43   A    
C60   C63   A    
C82   C94   S    
C8    H50   S    
C37   C40   A    
C69   C93   S    
C80   C83   S    
C34   C77   S    
C64   C70   A    
C50   H38   S    
C84   H45   S    
C79   H40   S    
Cr3   O12   S    
C28   C40   A    
C11   C86   T    
C45   H15   S    
Cr1   O7    S    
C83   H44   S    
C30   C57   A    
C39   H21   S    
C84   C96   S    
C80   C89   S    
Cr4   O24   S    
C8    H53   S    
C6    H12   S    
C36   C76   S    
C33   C72   A    
C43   H13   S    
C23   O6    A    
C28   C55   A    
C31   C70   A    
C66   C72   A    
C7    C88   S    
C9    H54   S    
Cr4   O17   S    
Cr6   O23   S    
C64   C73   A    
C26   C29   A    
C68   H5    S    
C32   C38   A    
C39   C42   A    
Cr4   O23   S    
C19   O18   A    
C81   F3    S    
Cr2   O8    S    
C12   C87   T    
C44   C47   A    
C93   H3    S    
C49   C52   A    
C58   C61   A    
C4    H10   S    
C63   C66   A    
C9    H51   S    
C27   C30   A    
C48   C75   A    
C68   H35   S    
C4    C7    S    
C79   C88   S    
C5    C95   S    
C69   H6    S    
C3    O9    A    
C32   C71   A    
C51   H39   S    
C58   H31   S    
C40   H22   S    
C74   H26   S    
C26   C77   A    
C50   C53   A    
Cr1   O1    S    
C41   H23   S    
C83   H47   S    
C26   H17   S    
C38   C41   A    
Cr2   O14   S    
C92   H2    S    
C19   C48   S    
C20   O19   A    
C73   H25   S    
C92   C95   S    
C65   C74   A    
C31   C37   A    
C24   O26   A    
C35   O14   A    
C61   C64   A    
C3    C16   S    
C14   C89   S    
C22   O24   A    
C80   H41   S    
C79   C82   S    
Cr3   O3    S    
C22   O5    A    
C5    H11   S    
C4    H55   S    
C56   C71   A    
C83   C95   S    
C67   C91   S    
C68   C89   S    
C32   C44   A    
C49   C76   A    
C22   C87   S    
C60   H33   S    
C38   H20   S    
Cr5   O25   S    
C52   C58   A    
C61   H28   S    
C93   H9    S    
C7    H49   S    
C81   C90   S    
Cr2   O2    S    
C1    O3    A    
C93   C96   S    
C6    C96   S    
C49   H37   S    
C35   O10   A    
C37   H19   S    
C24   O4    A    
C42   H24   S    
C69   C90   S    
C50   C77   A    
C19   O20   A    
C81   C84   S    
C34   O13   A    
Cr3   O9    S    
C45   C48   A    
C11   C95   S    
C69   H36   S    
C34   O12   A    
C59   C62   A    
C59   H32   S    
C62   C65   A    
C29   C41   A    
Cr6   O22   S    
C1    C17   S    
C62   H29   S    
Cr5   O5    S    
C30   C42   A    
C47   C74   A    
C91   H1    S    
C9    C90   S    
C5    C8    S    
C82   H46   S    
C52   C55   A    
C67   H4    S    
C29   C56   A    
Cr6   O6    S    
Cr6   O26   S    
C35   C78   S    
C36   O11   A    
C51   C54   A    
C91   H7    S    
C67   H34   S    
C51   C78   A    
C23   O25   A    
Cr5   O21   S    
C65   C71   A    
C15   C90   S    
Cr2   O16   S    
C92   H8    S    
C4    C94   S    
Cr3   O15   S    
C1    O7    A    
Cr6   O19   S    
C66   C75   A    
C13   C88   S    
C68   C92   S    
C80   F2    S    
C63   H30   S    
Cr4   O4    S    
C57   C72   A    
C81   H42   S    
C21   O17   A    
C53   C56   A    
C55   C70   A    
Cr5   O18   S    
C3    O2    A    
Cr2   O11   S    
Cr3   O16   S    
C44   H14   S    
C25   C76   A    
C2    O1    A    
C5    H56   S    
C23   C85   S    
C13   C16   T    
C10   C94   S    
C12   C96   S    
C8    C89   S    
C21   C47   S    
Cr4   O20   S    
C24   C86   S    
C2    O8    A    
C46   C73   A    
C20   C46   S    
Cr5   O23   S    
C75   H27   S    
C91   C94   S    
C54   C57   A    
C84   H48   S    
