data_mof_unit_58486.cif
_audit_creation_date              2012-12-10T17:40:50-0500
_audit_creation_method            fapswitch 2.2
_symmetry_space_group_name_H-M    P1
_symmetry_Int_Tables_number       1
_space_group_crystal_system       triclinic
_cell_length_a                    14.881028
_cell_length_b                    15.442752
_cell_length_c                    9.876711
_cell_angle_alpha                 89.995381
_cell_angle_beta                  89.330996
_cell_angle_gamma                 89.999646
_cell_volume                      2269.55321299

loop_
_atom_site_label
_atom_site_type_symbol
_atom_type_description
_atom_site_fract_x
_atom_site_fract_y
_atom_site_fract_z
_atom_type_partial_charge
C1    C     C_R   0.383908 0.876013 0.501662 0.853877
C2    C     C_R   0.716136 0.220756 0.380832 -0.211735
C3    C     C_R   0.216059 0.279180 0.380827 -0.211740
C4    C     C_R   0.216136 0.720756 0.380832 -0.211734
C5    C     C_R   0.671542 0.800284 0.501465 -0.134251
C6    C     C_R   0.671548 0.199708 0.501436 -0.134219
C7    C     C_R   0.171542 0.300284 0.501465 -0.134251
C8    C     C_R   0.171547 0.699708 0.501435 -0.134219
C9    C     C_R   0.335526 0.000020 0.142861 -0.162114
C10   C     C_R   0.835526 0.500019 0.142861 -0.162114
C11   C     C_R   0.254681 0.000039 0.073580 -0.225505
C12   C     C_R   0.383916 0.123992 0.501651 0.853855
C13   C     C_R   0.754681 0.500038 0.073580 -0.225505
C14   C     C_R   0.254836 0.000039 0.933469 -0.170957
C15   C     C_R   0.754836 0.500038 0.933469 -0.170957
C16   C     C_R   0.335842 0.000018 0.861874 -0.139614
C17   C     C_R   0.835842 0.500017 0.861874 -0.139613
C18   C     C_R   0.418990 0.000008 0.928738 0.087091
C19   C     C_R   0.918990 0.500008 0.928738 0.087091
C20   C     C_R   0.418964 0.000009 0.073574 0.154658
C21   C     C_R   0.918964 0.500009 0.073574 0.154658
C22   C     C_R   0.577269 0.999996 0.071415 -0.172424
C23   C     C_R   0.883909 0.376013 0.501662 0.853877
C24   C     C_R   0.077269 0.499996 0.071415 -0.172424
C25   C     C_R   0.613139 0.125720 0.500051 0.904203
C26   C     C_R   0.613135 0.874276 0.500062 0.904225
C27   C     C_R   0.113139 0.625720 0.500051 0.904203
C28   C     C_R   0.113135 0.374276 0.500062 0.904224
C29   C     C_R   0.577778 0.999997 0.928610 0.204946
C30   C     C_R   0.077778 0.499998 0.928610 0.204946
C31   C     C_R   0.317680 0.208703 0.761198 -0.158405
C32   C     C_R   0.317514 0.791416 0.761263 -0.158465
C33   C     C_R   0.817679 0.708702 0.761199 -0.158405
C34   C     C_R   0.883916 0.623992 0.501651 0.853855
C35   C     C_R   0.817517 0.291414 0.761263 -0.158463
C36   C     C_R   0.266195 0.219733 0.878869 -0.125884
C37   C     C_R   0.265962 0.780421 0.878877 -0.126002
C38   C     C_R   0.766193 0.719731 0.878869 -0.125885
C39   C     C_R   0.765965 0.280418 0.878877 -0.126001
C40   C     C_R   0.676351 0.743098 0.869611 -0.133885
C41   C     C_R   0.676138 0.257030 0.869521 -0.133898
C42   C     C_R   0.176353 0.243099 0.869612 -0.133885
C43   C     C_R   0.176135 0.757032 0.869520 -0.133898
C44   C     C_R   0.640947 0.764084 0.743850 -0.134870
C45   C     C_R   0.287560 0.223631 0.383167 -0.217092
C46   C     C_R   0.640811 0.235992 0.743735 -0.134872
C47   C     C_R   0.140949 0.264085 0.743851 -0.134869
C48   C     C_R   0.140809 0.735993 0.743734 -0.134872
C49   C     C_R   0.695602 0.761217 0.625362 0.109755
C50   C     C_R   0.695531 0.238828 0.625316 0.109755
C51   C     C_R   0.195602 0.261218 0.625362 0.109755
C52   C     C_R   0.195530 0.738828 0.625316 0.109755
C53   C     C_R   0.279240 0.220517 0.631477 0.099400
C54   C     C_R   0.279156 0.779544 0.631496 0.099433
C55   C     C_R   0.779239 0.720517 0.631478 0.099401
C56   C     C_R   0.287629 0.776313 0.383196 -0.217092
C57   C     C_R   0.779158 0.279542 0.631496 0.099433
C58   C     C_R   0.319647 0.193609 0.507004 -0.122512
C59   C     C_R   0.319636 0.806399 0.507036 -0.122516
C60   C     C_R   0.819647 0.693609 0.507004 -0.122511
C61   C     C_R   0.819636 0.306398 0.507036 -0.122516
C62   C     C_R   0.787561 0.723631 0.383167 -0.217091
C63   C     C_R   0.787629 0.276313 0.383196 -0.217092
C64   C     C_R   0.716059 0.779180 0.380826 -0.211740
H1    H     H_    0.191842 0.000049 0.879711 0.158436
H2    H     H_    0.634721 0.252166 0.960038 0.134983
H3    H     H_    0.134986 0.247989 0.960180 0.134965
H4    H     H_    0.134717 0.752168 0.960036 0.134983
H5    H     H_    0.570818 0.782311 0.740368 0.143576
H6    H     H_    0.570690 0.217747 0.740178 0.143496
H7    H     H_    0.070819 0.282312 0.740369 0.143576
H8    H     H_    0.070688 0.717748 0.740176 0.143496
H9    H     H_    0.640025 0.999993 0.125638 0.170766
H10   H     H_    0.140025 0.499993 0.125638 0.170765
H11   H     H_    0.329667 0.000013 0.250288 0.212753
H12   H     H_    0.691841 0.500047 0.879711 0.158436
H13   H     H_    0.829667 0.500012 0.250288 0.212753
H14   H     H_    0.318314 0.205121 0.287440 0.171327
H15   H     H_    0.318443 0.794776 0.287487 0.171328
H16   H     H_    0.818315 0.705122 0.287440 0.171326
H17   H     H_    0.818442 0.294777 0.287487 0.171328
H18   H     H_    0.387869 0.193828 0.774681 0.159034
H19   H     H_    0.387691 0.806301 0.774841 0.159118
H20   H     H_    0.887868 0.693827 0.774682 0.159035
H21   H     H_    0.887695 0.306298 0.774840 0.159115
H22   H     H_    0.696794 0.806636 0.284430 0.172553
H23   H     H_    0.330502 0.000003 0.754559 0.214048
H24   H     H_    0.696935 0.193249 0.284447 0.172574
H25   H     H_    0.196794 0.306635 0.284430 0.172552
H26   H     H_    0.196935 0.693248 0.284447 0.172574
H27   H     H_    0.191525 0.000050 0.129128 0.156759
H28   H     H_    0.691525 0.500049 0.129128 0.156759
H29   H     H_    0.830502 0.500002 0.754559 0.214048
H30   H     H_    0.295616 0.208329 0.977035 0.140867
H31   H     H_    0.295321 0.791866 0.977074 0.140927
H32   H     H_    0.795614 0.708327 0.977036 0.140868
H33   H     H_    0.795326 0.291863 0.977074 0.140925
H34   H     H_    0.634983 0.747988 0.960179 0.134965
I1    I     I_    0.706495 0.000007 0.835169 -0.353237
I2    I     I_    0.206495 0.500008 0.835169 -0.353237
N1    N     N_R   0.498810 0.000000 0.142780 -0.134892
N2    N     N_R   0.998810 0.500000 0.142780 -0.134892
N3    N     N_R   0.498740 0.000000 0.857170 -0.151295
N4    N     N_R   0.998740 0.500000 0.857170 -0.151295
O1    O     O_R   0.408390 0.908380 0.614690 -0.660019
O2    O     O_R   0.591620 0.908390 0.614640 -0.593854
O3    O     O_R   0.091620 0.591610 0.614640 -0.593822
O4    O     O_R   0.091620 0.408390 0.614640 -0.593855
O5    O     O_R   0.591610 0.091610 0.385310 -0.619159
O6    O     O_R   0.591610 0.908390 0.385310 -0.619155
O7    O     O_R   0.091610 0.591610 0.385310 -0.619160
O8    O     O_R   0.091610 0.408390 0.385310 -0.619155
O9    O     O_R   0.408390 0.091620 0.614690 -0.659993
O10   O     O_R   0.908390 0.408380 0.614690 -0.660018
O11   O     O_R   0.908390 0.591620 0.614690 -0.659993
O12   O     O_R   0.408370 0.908380 0.385360 -0.638147
O13   O     O_R   0.408370 0.091620 0.385360 -0.638152
O14   O     O_R   0.908370 0.408380 0.385360 -0.638148
O15   O     O_R   0.908370 0.591620 0.385360 -0.638152
O16   O     O_R   0.591620 0.091610 0.614640 -0.593822
Zn1   Zn    Zn3+2 0.500010 0.000000 0.653130 0.939009
Zn2   Zn    Zn3+2 0.000010 0.500000 0.653130 0.939009
Zn3   Zn    Zn3+2 0.499980 0.000000 0.346870 0.932062
Zn4   Zn    Zn3+2 0.999980 0.500000 0.346870 0.932062

loop_
_geom_bond_atom_site_label_1
_geom_bond_atom_site_label_2
_ccdc_geom_bond_type
C44   C49   A    
C33   C55   A    
O12   Zn3   S    
C36   C42   A    
C4    C8    A    
C26   O2    A    
C23   O14   A    
C39   C41   A    
O15   Zn4   S    
C28   O8    A    
C29   N3    A    
N1    Zn3   S    
C31   H18   S    
C63   H17   S    
C62   H16   S    
C19   C21   A    
O8    Zn4   S    
C3    C7    A    
C1    C59   S    
C40   H34   S    
C11   C14   A    
C39   H33   S    
C6    C25   S    
N4    Zn2   S    
C30   I2    S    
C37   H31   S    
C60   C62   A    
C64   H22   S    
C61   C63   A    
C62   C64   A    
C43   H4    S    
C16   H23   S    
C41   C46   A    
C2    H24   S    
C45   H14   S    
C1    O12   A    
C43   C48   A    
C26   O6    A    
C40   C44   A    
C24   N2    A    
C25   O5    A    
C18   N3    A    
C12   C58   S    
C15   H12   S    
C27   O7    A    
O11   Zn2   S    
C55   C60   A    
C4    C56   A    
C34   C60   S    
C5    C49   A    
C2    C6    A    
C48   H8    S    
N2    Zn4   S    
C32   C54   A    
C10   H13   S    
C52   C54   A    
C4    H26   S    
C54   C59   A    
C10   C21   A    
C45   C58   A    
C29   I1    S    
O5    Zn3   S    
C47   C51   A    
C20   N1    A    
C34   O11   A    
C49   C55   A    
C3    C45   A    
C31   C53   A    
C7    C28   S    
C12   O13   A    
C5    C64   A    
C51   C53   A    
C37   C43   A    
C35   C39   A    
C11   H27   S    
O6    Zn3   S    
C9    C11   A    
C19   N4    A    
C9    C20   A    
C27   O3    A    
O1    Zn1   S    
C44   H5    S    
O14   Zn4   S    
C32   C37   A    
C6    C50   A    
C22   N1    A    
C47   H7    S    
C21   N2    A    
C13   C15   A    
C13   H28   S    
C42   H3    S    
C14   C16   A    
C17   H29   S    
C30   N4    A    
N3    Zn1   S    
C25   O16   A    
O16   Zn1   S    
C12   O9    A    
C23   C61   S    
C34   O15   A    
C15   C17   A    
C32   H19   S    
C8    C52   A    
C2    C63   A    
O7    Zn4   S    
C50   C57   A    
O4    Zn2   S    
C10   C13   A    
C53   C58   A    
C57   C61   A    
C41   H2    S    
C46   C50   A    
C33   C38   A    
O3    Zn2   S    
C56   C59   A    
C3    H25   S    
C35   C57   A    
O13   Zn3   S    
C56   H15   S    
C23   O10   A    
C38   C40   A    
C35   H21   S    
C24   H10   S    
C28   O4    A    
O2    Zn1   S    
C17   C19   A    
C14   H1    S    
C18   C20   A    
C42   C47   A    
C33   H20   S    
C24   C30   A    
C46   H6    S    
C38   H32   S    
C7    C51   A    
C5    C26   S    
O10   Zn2   S    
C36   H30   S    
C48   C52   A    
O9    Zn1   S    
C16   C18   A    
C22   C29   A    
C8    C27   S    
C31   C36   A    
C9    H11   S    
C22   H9    S    
C1    O1    A    
