data_mof_unit_43493.cif
_audit_creation_date              2012-12-11T16:17:32-0500
_audit_creation_method            fapswitch 2.2
_symmetry_space_group_name_H-M    P1
_symmetry_Int_Tables_number       1
_space_group_crystal_system       triclinic
_cell_length_a                    6.944939
_cell_length_b                    28.761468
_cell_length_c                    32.065481
_cell_angle_alpha                 101.137366
_cell_angle_beta                  89.634132
_cell_angle_gamma                 90.170888
_cell_volume                      6284.20852657

loop_
_atom_site_label
_atom_site_type_symbol
_atom_type_description
_atom_site_fract_x
_atom_site_fract_y
_atom_site_fract_z
_atom_type_partial_charge
O1    O     O_R   0.494350 0.453160 0.452490 -0.541637
O2    O     O_R   0.820990 0.455850 0.538220 -0.538181
O3    O     O_R   0.994300 0.546840 0.547510 -0.538878
C1    C     C_R   0.651667 0.445359 0.551435 0.753818
O4    O     O_R   0.823860 0.447580 0.452250 -0.544443
O5    O     O_R   0.997190 0.538510 0.460920 -0.538450
C2    C     C_R   0.655687 0.433630 0.437061 0.671138
O6    O     O_R   0.491450 0.461490 0.539080 -0.497321
O7    O     O_3   0.661790 0.529840 0.502950 -0.373460
V1    V     V_3+5 0.935470 0.494460 0.499450 1.435247
O8    O     O_R   0.327090 0.544150 0.461780 -0.542766
C3    C     C_R   0.158735 0.554403 0.448487 0.698154
O9    O     O_R   0.324210 0.552420 0.547750 -0.542239
C4    C     C_R   0.154961 0.565398 0.563520 0.705294
V2    V     V_3+5 0.435840 0.505540 0.500550 1.445108
O10   O     O_3   0.159650 0.470160 0.497050 -0.354990
C5    C     C_R   0.965102 0.618453 0.620933 -0.149162
H1    H     H_    0.832837 0.601762 0.607953 0.120009
C6    C     C_R   0.954121 0.654357 0.657242 -0.122522
H2    H     H_    0.813783 0.664212 0.670977 0.134931
C7    C     C_R   0.121557 0.677120 0.675536 0.020823
C8    C     C_R   0.300413 0.662980 0.656375 -0.119554
H3    H     H_    0.432506 0.679619 0.669498 0.140003
C9    C     C_R   0.311480 0.626964 0.620070 -0.152204
H4    H     H_    0.451754 0.616984 0.606350 0.118886
C10   C     C_R   0.143919 0.604148 0.601837 -0.054765
N1    N     N_R   0.269539 0.738641 0.731246 -0.270253
N2    N     N_R   0.258123 0.772623 0.765979 -0.270624
C11   C     C_R   0.085964 0.784678 0.785477 0.561132
N3    N     N_R   0.925818 0.761190 0.768591 -0.268101
N4    N     N_R   0.937196 0.727266 0.733847 -0.276088
C12   C     C_R   0.109277 0.715178 0.714356 0.518075
C13   C     C_R   0.896118 0.833194 0.845742 -0.191154
H5    H     H_    0.767261 0.813580 0.834431 0.167001
C14   C     C_R   0.882663 0.868963 0.882178 0.618373
C15   C     C_R   0.046564 0.895577 0.898146 -0.188671
C16   C     C_R   0.223202 0.884915 0.876639 -0.180916
H6    H     H_    0.352016 0.904681 0.887634 0.208811
C17   C     C_R   0.236291 0.848984 0.840368 -0.098113
H7    H     H_    0.374885 0.842047 0.824779 0.168425
C18   C     C_R   0.072782 0.822699 0.824310 -0.080269
C19   C     C_R   0.196156 0.661883 0.286036 0.541233
N5    N     N_R   0.154318 0.679799 0.327954 -0.540501
C20   C     C_R   0.123929 0.727492 0.341463 0.571068
C21   C     C_R   0.128043 0.758603 0.312315 -0.064630
C22   C     C_R   0.152507 0.740083 0.268898 -0.024545
C23   C     C_R   0.187057 0.691145 0.255498 -0.037216
C24   C     C_R   0.106839 0.807591 0.325921 -0.143917
C25   C     C_R   0.107076 0.839128 0.297103 0.067699
C26   C     C_R   0.116961 0.819889 0.252293 -0.070879
C27   C     C_R   0.140297 0.770220 0.238793 -0.026756
C28   C     C_R   0.151074 0.750224 0.195027 -0.026028
C29   C     C_R   0.186209 0.701401 0.182083 -0.137767
C30   C     C_R   0.207382 0.672404 0.211956 -0.153455
C31   C     C_R   0.103942 0.847867 0.220085 0.527914
N6    N     N_R   0.099084 0.827134 0.177732 -0.535372
C32   C     C_R   0.124417 0.779286 0.164991 0.573399
O11   O     O_2   0.246682 0.615983 0.273857 -0.541126
O12   O     O_2   0.087608 0.744814 0.382932 -0.527001
H8    H     H_    0.092102 0.820886 0.359616 0.166882
O13   O     O_2   0.095156 0.895381 0.230525 -0.561248
O14   O     O_2   0.122146 0.759677 0.123216 -0.519400
H9    H     H_    0.197727 0.685351 0.148708 0.174282
H10   H     H_    0.234045 0.634984 0.200718 0.170660
C33   C     C_R   0.222436 0.858576 0.116415 -0.110818
H11   H     H_    0.350126 0.837285 0.116720 0.148197
C34   C     C_R   0.208586 0.887670 0.086380 -0.245898
H12   H     H_    0.328297 0.888773 0.064769 0.191901
C35   C     C_R   0.041799 0.914321 0.083636 -0.185422
C36   C     C_R   0.887823 0.911041 0.111815 0.541911
C37   C     C_R   0.902989 0.882945 0.143373 -0.003646
C38   C     C_R   0.073792 0.856412 0.145840 0.290005
C39   C     C_R   0.282267 0.654554 0.391565 -0.147818
H13   H     H_    0.387917 0.682738 0.394389 0.140691
C40   C     C_R   0.287281 0.623718 0.420267 -0.200831
H14   H     H_    0.396748 0.628761 0.444648 0.140001
C41   C     C_R   0.151182 0.587247 0.418011 -0.067952
C42   C     C_R   0.008850 0.582382 0.386455 -0.220456
H15   H     H_    0.901953 0.554583 0.384897 0.122826
C43   C     C_R   0.005574 0.612365 0.356354 0.119303
C44   C     C_R   0.147113 0.648563 0.358517 0.360557
C45   C     C_R   0.642035 0.221057 0.835822 0.574576
N7    N     N_R   0.586641 0.174607 0.823818 -0.557719
C46   C     C_R   0.540329 0.156114 0.782354 0.707457
C47   C     C_R   0.546269 0.184746 0.751147 -0.278041
C48   C     C_R   0.602835 0.232552 0.763189 -0.094959
C49   C     C_R   0.652008 0.250835 0.805801 0.031030
C50   C     C_R   0.497306 0.167038 0.708383 0.603073
C51   C     C_R   0.504145 0.196334 0.678279 0.599455
C52   C     C_R   0.560337 0.244230 0.689996 -0.273918
C53   C     C_R   0.609980 0.262253 0.732644 -0.094738
C54   C     C_R   0.666526 0.310026 0.744901 0.029394
C55   C     C_R   0.715779 0.327713 0.787464 -0.139469
C56   C     C_R   0.708563 0.298505 0.817521 -0.139947
C57   C     C_R   0.568853 0.274759 0.660351 0.698165
N8    N     N_R   0.623324 0.321250 0.672874 -0.557835
C58   C     C_R   0.671623 0.339114 0.714289 0.577887
O15   O     O_2   0.685068 0.238623 0.876822 -0.521414
O16   O     O_2   0.490180 0.110049 0.771356 -0.442643
O17   O     O_2   0.524910 0.258094 0.619261 -0.453003
O18   O     O_2   0.722611 0.385074 0.725973 -0.518560
H16   H     H_    0.759847 0.364263 0.797755 0.170794
H17   H     H_    0.747231 0.313482 0.850018 0.170258
C59   C     C_R   0.804768 0.371692 0.632001 -0.068814
H18   H     H_    0.936522 0.363841 0.647127 0.149533
C60   C     C_R   0.810801 0.401797 0.602573 -0.265250
H19   H     H_    0.947762 0.416960 0.596040 0.226116
C61   C     C_R   0.642108 0.412741 0.582323 -0.190576
C62   C     C_R   0.466549 0.392369 0.592263 0.573717
C63   C     C_R   0.461100 0.362360 0.621862 -0.159499
H20   H     H_    0.324904 0.347328 0.629296 0.146321
C64   C     C_R   0.629819 0.351865 0.642025 0.275697
C65   C     C_R   0.397011 0.125192 0.864213 -0.155834
H21   H     H_    0.268726 0.132532 0.847591 0.152195
C66   C     C_R   0.383971 0.095820 0.894212 0.590255
C67   C     C_R   0.548984 0.085776 0.916418 -0.197725
C68   C     C_R   0.726096 0.105901 0.907535 -0.245548
H22   H     H_    0.855347 0.099251 0.924092 0.217872
C69   C     C_R   0.738609 0.135010 0.877290 -0.049194
H23   H     H_    0.876742 0.149740 0.870770 0.155844
C70   C     C_R   0.574145 0.144870 0.855345 0.262159
C71   C     C_R   0.480133 0.389235 0.373894 -0.192221
H24   H     H_    0.362580 0.414122 0.381641 0.124235
C72   C     C_R   0.462773 0.353564 0.337666 -0.146428
H25   H     H_    0.332393 0.351924 0.319093 0.144608
C73   C     C_R   0.611812 0.320916 0.325300 -0.003834
C74   C     C_R   0.777403 0.324345 0.350613 -0.154013
H26   H     H_    0.891862 0.298771 0.341743 0.136756
C75   C     C_R   0.797171 0.359613 0.387651 0.086579
C76   C     C_R   0.646399 0.393547 0.399372 -0.065951
N9    N     N_R   0.746032 0.254027 0.272583 -0.296513
N10   N     N_R   0.731144 0.219992 0.238020 -0.306178
C77   C     C_R   0.564314 0.213270 0.215747 0.507523
N11   N     N_R   0.414466 0.242786 0.229127 -0.282726
N12   N     N_R   0.429264 0.276874 0.263672 -0.284921
C78   C     C_R   0.595184 0.283136 0.286354 0.530626
C79   C     C_R   0.380414 0.146930 0.166724 0.090551
C80   C     C_R   0.378066 0.112139 0.129095 -0.164547
H27   H     H_    0.249705 0.090836 0.121121 0.115270
C81   C     C_R   0.540788 0.103082 0.102497 -0.061380
C82   C     C_R   0.708170 0.129782 0.113826 -0.165844
H28   H     H_    0.836163 0.123659 0.094067 0.125459
C83   C     C_R   0.711477 0.165387 0.150369 -0.166200
H29   H     H_    0.841647 0.186138 0.157464 0.135830
C84   C     C_R   0.549343 0.174861 0.177225 0.007772
O19   O     O_R   0.699050 0.038480 0.960880 -0.545732
O20   O     O_R   0.366680 0.052470 0.047720 -0.551618
O21   O     O_R   0.193410 0.961530 0.039110 -0.547868
C85   C     C_R   0.534782 0.065199 0.063618 0.694245
O22   O     O_R   0.369510 0.044100 0.961740 -0.504079
O23   O     O_R   0.196260 0.953110 0.952520 -0.541735
C86   C     C_R   0.538548 0.054073 0.948077 0.755896
O24   O     O_R   0.696210 0.046900 0.047470 -0.542501
O25   O     O_3   0.528780 0.970170 0.997070 -0.352596
V3    V     V_3+5 0.255080 0.005530 0.000540 1.517053
O26   O     O_R   0.866350 0.947520 0.952280 -0.502484
C87   C     C_R   0.035507 0.934434 0.936530 0.759918
O27   O     O_R   0.863520 0.955880 0.038260 -0.502763
C88   C     C_R   0.031897 0.945925 0.051900 0.752607
V4    V     V_3+5 0.754720 0.994440 0.999470 1.572581
O28   O     O_3   0.030880 0.029830 0.002930 -0.378772
C89   C     C_3   0.096185 0.892601 0.314074 -0.312569
C90   C     C_3   0.093559 0.909275 0.362652 -0.373935
C91   C     C_3   0.089117 0.963285 0.374700 -0.698937
H30   H     H_    0.219149 0.978683 0.362188 0.227930
H31   H     H_    0.958301 0.977299 0.361676 0.228687
H32   H     H_    0.086542 0.974336 0.409849 0.238207
H33   H     H_    0.963260 0.895258 0.376371 0.212077
H34   H     H_    0.224805 0.896540 0.376627 0.213738
H35   H     H_    0.224127 0.909247 0.301926 0.214164
H36   H     H_    0.963104 0.906265 0.301766 0.209635
F1    F     F_    0.723370 0.935751 0.109116 -0.709529
C92   C     C_3   0.733311 0.880757 0.172881 -0.272625
C93   C     C_3   0.696722 0.928757 0.202644 -0.234208
C94   C     C_3   0.587296 0.922452 0.242545 -0.773471
H37   H     H_    0.452057 0.902808 0.233610 0.261977
H38   H     H_    0.675275 0.902216 0.261617 0.228852
H39   H     H_    0.552576 0.957621 0.262237 0.222356
H40   H     H_    0.834090 0.947488 0.212302 0.229927
H41   H     H_    0.610511 0.951810 0.185803 0.231416
H42   H     H_    0.603317 0.870567 0.153538 0.171035
H43   H     H_    0.752602 0.852476 0.191585 0.175429
C95   C     C_3   0.848892 0.605386 0.322915 -0.338957
C96   C     C_3   0.704726 0.646798 0.329511 -0.314171
C97   C     C_3   0.677994 0.667823 0.289701 -0.678470
H44   H     H_    0.814396 0.682681 0.280218 0.218194
H45   H     H_    0.625489 0.640347 0.262969 0.250616
H46   H     H_    0.572062 0.697157 0.296364 0.208700
H47   H     H_    0.563427 0.633021 0.337605 0.210226
H48   H     H_    0.747178 0.675593 0.356278 0.211847
H49   H     H_    0.913067 0.599246 0.290654 0.223119
H50   H     H_    0.767391 0.572258 0.323949 0.154441
F2    F     F_    0.441636 0.121275 0.695242 -0.555672
F3    F     F_    0.454819 0.177338 0.637630 -0.561198
F4    F     F_    0.300140 0.400971 0.573235 -0.714408
F5    F     F_    0.210379 0.076556 0.900648 -0.696489
C98   C     C_3   0.978560 0.358195 0.413650 -0.371482
C99   C     C_3   0.935138 0.341869 0.455597 -0.319191
C100  C     C_3   0.118501 0.339899 0.481185 -0.625984
H51   H     H_    0.221106 0.313863 0.463138 0.210437
H52   H     H_    0.188456 0.375266 0.488323 0.259834
H53   H     H_    0.082362 0.328906 0.511656 0.243773
H54   H     H_    0.831585 0.366153 0.475298 0.193250
H55   H     H_    0.869149 0.305955 0.448639 0.202774
H56   H     H_    0.084343 0.332949 0.395572 0.170643
H57   H     H_    0.053561 0.392872 0.419051 0.190539
C101  C     C_3   0.204116 0.151122 0.195384 -0.367540
C102  C     C_3   0.243968 0.132246 0.236105 -0.306265
C103  C     C_3   0.067572 0.137587 0.265236 -0.694527
H58   H     H_    0.032375 0.175666 0.276015 0.262474
H59   H     H_    0.941747 0.118915 0.248404 0.227944
H60   H     H_    0.098126 0.122038 0.293607 0.211864
H61   H     H_    0.282997 0.094105 0.227572 0.197437
H62   H     H_    0.366011 0.151568 0.253838 0.205669
H63   H     H_    0.152097 0.188198 0.202768 0.219718
H64   H     H_    0.083092 0.130102 0.178677 0.170109
F6    F     F_    0.708977 0.876953 0.901822 -0.699440

loop_
_geom_bond_atom_site_label_1
_geom_bond_atom_site_label_2
_ccdc_geom_bond_type
C66   F5    S    
C40   H14   S    
C102  H61   S    
C100  H52   S    
C57   N8    A    
C45   O15   S    
C39   H13   S    
C98   H56   S    
C6    H2    S    
C1    O6    A    
C37   C92   S    
C95   H50   S    
C19   O11   S    
C59   C60   A    
C52   C53   A    
N12   C78   A    
C94   H38   S    
C92   C93   S    
C61   C62   A    
N8    C64   S    
N2    C11   A    
C55   C56   A    
C60   C61   A    
C5    C10   A    
O23   C87   A    
C8    C9    A    
C79   C84   A    
C91   H30   S    
C6    C7    A    
C9    C10   A    
C89   C90   S    
C48   C53   A    
C68   C69   A    
O5    C3    A    
N3    N4    A    
C42   C43   A    
C83   H29   S    
C97   H45   S    
O19   V4    S    
C60   H19   S    
C20   O12   S    
C66   C67   A    
C49   C56   A    
C103  H60   S    
C96   C97   S    
C103  H58   S    
C8    H3    S    
C43   C95   S    
C36   F1    S    
C63   H20   S    
C101  H64   S    
C2    C76   S    
C85   O24   A    
C13   C14   A    
C7    C8    A    
C93   C94   S    
O8    V2    S    
C89   H36   S    
N7    C46   A    
C102  C103  S    
N6    C38   S    
C100  H53   S    
C9    H4    S    
C75   C98   S    
C99   C100  S    
O1    V2    S    
O21   V3    S    
O23   V3    S    
C11   N3    A    
O20   V3    S    
O7    V1    S    
C53   C54   A    
C19   C23   A    
C11   C18   S    
C93   H40   S    
C92   H42   S    
C100  H51   S    
O1    C2    A    
O9    C4    A    
N8    C58   A    
O27   V4    S    
C39   C40   A    
C98   H57   S    
C35   C36   A    
C14   F6    S    
C39   C44   A    
C59   H18   S    
C54   C58   A    
C24   H8    S    
C94   H39   S    
O4    C2    A    
C101  C102  S    
C69   C70   A    
C7    C12   S    
C71   H24   S    
C34   H12   S    
O26   V4    S    
C46   C47   A    
C17   C18   A    
N9    C78   A    
C80   H27   S    
C17   H7    S    
C59   C64   A    
C42   H15   S    
N10   C77   A    
C97   H46   S    
C26   C27   A    
C41   C42   A    
C22   C27   A    
V3    O28   S    
C27   C28   A    
C34   C35   A    
O21   C88   A    
O26   C87   A    
O2    C1    A    
C95   C96   S    
C74   C75   A    
O5    V1    S    
O25   V4    S    
C16   H6    S    
N7    C70   S    
C1    C61   S    
N4    C12   A    
C89   H35   S    
O8    C3    A    
C3    C41   S    
C4    C10   S    
C31   N6    A    
C101  H63   S    
C5    H1    S    
C25   C89   S    
C81   C82   A    
C40   C41   A    
O25   V3    S    
C47   C48   A    
C36   C37   A    
O3    C4    A    
C80   C81   A    
C15   C87   S    
C23   C30   A    
O19   C86   A    
C24   C25   A    
C99   H54   S    
C56   H17   S    
C45   N7    A    
O6    V2    S    
O22   V3    S    
O9    V2    S    
N5    C20   A    
C99   H55   S    
C77   N11   A    
N5    C44   S    
O22   C86   A    
C77   C84   S    
N6    C32   A    
C32   O14   S    
C71   C72   A    
C74   H26   S    
O2    V1    S    
C93   H41   S    
C67   C86   S    
C28   C29   A    
C48   C49   A    
C72   C73   A    
C65   H21   S    
C79   C101  S    
C21   C24   A    
C83   C84   A    
C22   C23   A    
C15   C16   A    
C102  H62   S    
O20   C85   A    
N1    C12   A    
C57   O17   S    
C46   O16   S    
C50   F2    S    
C91   H32   S    
C20   C21   A    
C43   C44   A    
N9    N10   A    
C95   H49   S    
C55   H16   S    
C92   H43   S    
C69   H23   S    
C29   C30   A    
N11   N12   A    
C33   C38   A    
C79   C80   A    
C75   C76   A    
C26   C31   A    
C33   C34   A    
C13   C18   A    
V4    O28   S    
O24   V4    S    
C82   C83   A    
C90   H33   S    
O7    V2    S    
O4    V1    S    
C16   C17   A    
C94   H37   S    
V1    O10   S    
C82   H28   S    
C29   H9    S    
C97   H44   S    
O27   C88   A    
C30   H10   S    
C73   C74   A    
C51   F3    S    
C31   O13   S    
C91   H31   S    
C54   C55   A    
C35   C88   S    
C13   H5    S    
C67   C68   A    
C62   F4    S    
C96   H48   S    
C47   C50   A    
C33   H11   S    
C98   C99   S    
C90   H34   S    
C63   C64   A    
C90   C91   S    
C28   C32   A    
C73   C78   S    
C5    C6    A    
C21   C22   A    
C45   C49   A    
C37   C38   A    
C65   C70   A    
C50   C51   A    
C25   C26   A    
C19   N5    A    
C62   C63   A    
N1    N2    A    
O3    V1    S    
C103  H59   S    
C96   H47   S    
C14   C15   A    
C51   C52   A    
C68   H22   S    
C81   C85   S    
C71   C76   A    
C52   C57   A    
C58   O18   S    
V2    O10   S    
C72   H25   S    
C65   C66   A    
