data_mof_unit_37071.cif
_audit_creation_date              2012-12-11T15:29:41-0500
_audit_creation_method            fapswitch 2.2
_symmetry_space_group_name_H-M    P1
_symmetry_Int_Tables_number       1
_space_group_crystal_system       triclinic
_cell_length_a                    21.554578
_cell_length_b                    7.241996
_cell_length_c                    14.951268
_cell_angle_alpha                 89.577935
_cell_angle_beta                  73.415184
_cell_angle_gamma                 90.575223
_cell_volume                      2236.5324453

loop_
_atom_site_label
_atom_site_type_symbol
_atom_type_description
_atom_site_fract_x
_atom_site_fract_y
_atom_site_fract_z
_atom_type_partial_charge
O1    O     O_R   0.464160 0.506670 0.130070 -0.544756
O2    O     O_R   0.535840 0.006670 0.869930 -0.539745
O3    O     O_R   0.589710 0.179080 0.006710 -0.529822
O4    O     O_R   0.410290 0.679080 0.993290 -0.531756
C1    C     C_R   0.616421 0.346460 0.001681 0.733272
C2    C     C_R   0.383950 0.844106 0.996492 0.718975
O5    O     O_R   0.467940 0.177220 0.138010 -0.535350
O6    O     O_R   0.532060 0.677220 0.861990 -0.534246
O7    O     O_R   0.413200 0.002810 0.002170 -0.524455
O8    O     O_R   0.586800 0.502810 0.997830 -0.545195
C3    C     C_R   0.457987 0.345128 0.174455 0.685852
C4    C     C_R   0.543494 0.846773 0.825604 0.682393
O9    O     O_3   0.482180 0.337850 0.955280 -0.370378
O10   O     O_3   0.517820 0.837850 0.044720 -0.386436
V1    V     V_3+5 0.503310 0.064600 0.008300 1.447536
V2    V     V_3+5 0.496690 0.564600 0.991700 1.440681
C5    C     C_R   0.572084 0.858643 0.724005 -0.060741
C6    C     C_R   0.429940 0.351589 0.275971 -0.065424
C7    C     C_R   0.929164 0.850799 0.275541 -0.061638
C8    C     C_R   0.072849 0.368410 0.725679 -0.044693
C9    C     C_R   0.560414 0.929215 0.571685 -0.155233
C10   C     C_R   0.443523 0.350041 0.430709 -0.153625
C11   C     C_R   0.533268 0.907412 0.667462 -0.202469
C12   C     C_R   0.470218 0.360445 0.334224 -0.210405
C13   C     C_R   0.638936 0.829826 0.684216 0.131201
C14   C     C_R   0.362329 0.340866 0.314539 0.126454
C15   C     C_R   0.666256 0.835215 0.585375 0.082816
C16   C     C_R   0.334316 0.356361 0.412464 0.087082
C17   C     C_R   0.626440 0.896078 0.530550 0.062118
C18   C     C_R   0.376042 0.343355 0.469963 0.062636
C19   C     C_R   0.731986 0.788700 0.539253 0.018702
C20   C     C_R   0.266349 0.374188 0.455294 0.025420
C21   C     C_R   0.760521 0.840757 0.443640 0.035261
C22   C     C_R   0.239702 0.341765 0.553502 0.035857
C23   C     C_R   0.718147 0.895347 0.390721 0.188492
C24   C     C_R   0.283355 0.292523 0.605728 0.191030
C25   C     C_R   0.652382 0.921649 0.434676 -0.243022
C26   C     C_R   0.350225 0.310096 0.565262 -0.247660
C27   C     C_R   0.768371 0.677739 0.583234 -0.120661
C28   C     C_R   0.224819 0.431738 0.402931 -0.122684
C29   C     C_R   0.833274 0.644324 0.541865 -0.220481
C30   C     C_R   0.158391 0.428607 0.440010 -0.216814
C31   C     C_R   0.864535 0.718560 0.454445 0.126526
C32   C     C_R   0.130765 0.390369 0.534082 0.128354
C33   C     C_R   0.829261 0.821190 0.404263 0.097336
C34   C     C_R   0.170851 0.359220 0.593592 0.095953
C35   C     C_R   0.930574 0.683887 0.415201 -0.155351
C36   C     C_R   0.063135 0.396823 0.570125 -0.150895
C37   C     C_R   0.962041 0.744386 0.325168 -0.163051
C38   C     C_R   0.034226 0.383333 0.665642 -0.170937
C39   C     C_R   0.864692 0.898830 0.317075 -0.183365
C40   C     C_R   0.140159 0.359943 0.690629 -0.178167
H1    H     H_    0.621139 0.962010 0.392608 0.126920
H2    H     H_    0.382399 0.283131 0.607838 0.127390
H3    H     H_    0.859138 0.558374 0.578592 0.125126
H4    H     H_    0.128496 0.466107 0.395533 0.120979
H5    H     H_    0.957160 0.602408 0.452618 0.108363
H6    H     H_    0.032717 0.417425 0.524447 0.107909
C41   C     C_3   0.227324 0.763121 0.914122 -0.430615
C42   C     C_3   0.770135 0.286187 0.090583 -0.444246
H7    H     H_    0.208637 0.618729 0.916972 0.171596
H8    H     H_    0.789012 0.150944 0.106145 0.176176
H9    H     H_    0.220571 0.826740 0.849603 0.136067
H10   H     H_    0.773090 0.380187 0.147832 0.129805
C43   C     C_3   0.301130 0.766114 0.907677 -0.038618
C44   C     C_3   0.697846 0.267451 0.089778 -0.034420
H11   H     H_    0.326422 0.857005 0.847521 0.109470
H12   H     H_    0.667420 0.343037 0.151205 0.104219
H13   H     H_    0.171941 0.627854 0.095034 0.135693
H14   H     H_    0.813213 0.095792 0.930954 0.126526
H15   H     H_    0.278883 0.596874 0.077285 0.111831
H16   H     H_    0.711604 0.110495 0.916140 0.119540
C45   C     C_3   0.194856 0.767467 0.089287 -0.348416
C46   C     C_3   0.802710 0.241309 0.916950 -0.357838
C47   C     C_3   0.217980 0.069472 0.995386 0.050615
C48   C     C_3   0.789895 0.564963 0.982202 0.088563
C49   C     C_3   0.187024 0.869333 0.001330 0.008545
C50   C     C_3   0.813526 0.364795 0.996041 0.018853
C51   C     C_3   0.312361 0.852221 0.998157 0.062949
C52   C     C_3   0.688116 0.359782 0.999343 0.082369
C53   C     C_3   0.267614 0.745604 0.085048 0.078210
C54   C     C_3   0.731061 0.253507 0.913020 0.090914
C55   C     C_3   0.289565 0.057974 0.999342 0.086312
C56   C     C_3   0.714694 0.565580 0.998637 0.078088
H17   H     H_    0.320590 0.126937 0.934783 0.071852
H18   H     H_    0.693122 0.622024 0.069976 0.043742
O11   O     O_R   0.913210 0.208550 0.002110 -0.537427
O12   O     O_R   0.086790 0.708550 0.997890 -0.541888
O13   O     O_R   0.032060 0.539960 0.861980 -0.541427
O14   O     O_R   0.967940 0.039960 0.138020 -0.543037
C57   C     C_R   0.043838 0.373433 0.825967 0.685126
C58   C     C_R   0.956468 0.870897 0.174457 0.694813
O15   O     O_R   0.910290 0.538020 0.993280 -0.545961
O16   O     O_R   0.089710 0.038020 0.006720 -0.545598
O17   O     O_R   0.964160 0.712340 0.130090 -0.533135
O18   O     O_R   0.035840 0.212340 0.869910 -0.533264
C59   C     C_R   0.884349 0.369438 0.996806 0.666658
C60   C     C_R   0.115916 0.871498 0.002115 0.678635
O19   O     O_3   0.017820 0.379210 0.044690 -0.382250
O20   O     O_3   0.982180 0.879210 0.955310 -0.376693
V3    V     V_3+5 0.996690 0.652500 0.991710 1.398582
V4    V     V_3+5 0.003310 0.152500 0.008290 1.394557
N1    N     N_3   0.329140 0.581637 0.888021 -0.654466
H19   H     H_    0.299711 0.483247 0.932098 0.230177
H20   H     H_    0.329850 0.546787 0.819971 0.224454
N2    N     N_3   0.675854 0.073554 0.099673 -0.665408
H21   H     H_    0.712363 0.987358 0.061621 0.227016
H22   H     H_    0.665375 0.033956 0.169745 0.224547
N3    N     N_3   0.180967 0.199812 0.065662 -0.688136
H23   H     H_    0.147468 0.133048 0.121206 0.239766
H24   H     H_    0.156779 0.294581 0.034867 0.244054
N4    N     N_3   0.824942 0.643017 0.889521 -0.653955
H25   H     H_    0.868459 0.576616 0.858633 0.225307
H26   H     H_    0.837618 0.780266 0.897703 0.216715
H27   H     H_    0.219806 0.127210 0.925195 0.094172
H28   H     H_    0.799635 0.655370 0.037010 0.087589
H29   H     H_    0.843671 0.993949 0.278708 0.154856
H30   H     H_    0.166756 0.367467 0.741342 0.145181
N5    N     N_3   0.300341 0.157954 0.078625 -0.617279
H31   H     H_    0.300288 0.299049 0.064745 0.223073
H32   H     H_    0.263270 0.130379 0.139684 0.304185
N6    N     N_3   0.695623 0.689983 0.932851 -0.629483
H33   H     H_    0.653207 0.757602 0.968119 0.241453
H34   H     H_    0.727533 0.801884 0.914457 0.232971
H35   H     H_    0.168364 0.841886 0.153246 0.146875
H36   H     H_    0.837318 0.278164 0.848381 0.136979
N7    N     N_3   0.279007 0.804056 0.172862 -0.671283
H37   H     H_    0.324722 0.759609 0.174279 0.218815
H38   H     H_    0.245976 0.734519 0.228017 0.224407
N8    N     N_3   0.726753 0.334463 0.824706 -0.671156
H39   H     H_    0.745462 0.240094 0.771439 0.221680
H40   H     H_    0.755874 0.452844 0.807866 0.293787
H41   H     H_    0.011643 0.703951 0.293032 0.104760
H42   H     H_    0.982056 0.391781 0.692955 0.099426
H43   H     H_    0.529623 0.972290 0.529513 0.122626
H44   H     H_    0.475674 0.344313 0.474705 0.123123
H45   H     H_    0.482132 0.932724 0.697892 0.111585
H46   H     H_    0.522352 0.365911 0.304887 0.109910
N9    N     N_3   0.679390 0.813096 0.744830 -0.687857
H47   H     H_    0.664245 0.694512 0.785647 0.266806
H48   H     H_    0.672956 0.928336 0.788097 0.232500
N10   N     N_3   0.323448 0.287032 0.255795 -0.691134
H49   H     H_    0.339255 0.158012 0.228089 0.272018
H50   H     H_    0.330456 0.384308 0.201709 0.216192
N11   N     N_3   0.738996 0.904158 0.290940 -0.711405
H51   H     H_    0.711252 0.810631 0.265048 0.224875
H52   H     H_    0.730249 0.037491 0.270636 0.221958
N12   N     N_3   0.261652 0.210149 0.696935 -0.704640
H53   H     H_    0.281676 0.078646 0.694312 0.230792
H54   H     H_    0.279341 0.289771 0.742601 0.208513
H55   H     H_    0.746597 0.603697 0.647452 0.171755
H56   H     H_    0.242712 0.486014 0.333032 0.154652

loop_
_geom_bond_atom_site_label_1
_geom_bond_atom_site_label_2
_ccdc_geom_bond_type
C44   H12   S    
C3    C6    S    
C43   C51   S    
O18   V4    S    
C15   C17   A    
C21   C33   A    
O1    C3    A    
C52   C56   S    
O2    C4    A    
C41   C49   S    
C2    O7    A    
N4    H26   S    
O12   V3    S    
C35   C37   A    
O16   C60   A    
C48   H28   S    
O5    C3    A    
C42   C50   S    
C5    C11   A    
C6    C12   A    
C13   N9    S    
C48   C50   S    
N3    H24   S    
N2    H21   S    
C33   C39   A    
C56   N6    S    
C34   C40   A    
C28   H56   S    
C42   H8    S    
C23   N11   S    
C55   N5    S    
O14   V4    S    
C8    C38   A    
C7    C58   S    
C30   H4    S    
C57   O18   A    
C24   N12   S    
C29   H3    S    
C43   H11   S    
C6    C14   A    
C4    C5    S    
H14   C46   S    
C19   C21   A    
H13   C45   S    
C22   C34   A    
C54   N8    S    
C22   C24   A    
C48   N4    S    
C25   H1    S    
C36   C38   A    
C42   C44   S    
O6    V2    S    
C53   N7    S    
C29   C31   A    
C48   C56   S    
C30   C32   A    
C46   C54   S    
C45   C53   S    
N4    H25   S    
N11   H52   S    
C32   C34   A    
N11   H51   S    
N5    H32   S    
C44   N2    S    
C8    C57   S    
C47   N3    S    
C41   H7    S    
C15   C19   A    
C16   C20   A    
N12   H53   S    
C27   C29   A    
C38   H42   S    
O15   V3    S    
C51   C53   S    
C12   H46   S    
C9    C17   A    
C58   O17   A    
C10   H44   S    
C20   C22   A    
O4    V2    S    
N8    H40   S    
N7    H38   S    
C35   H5    S    
O11   V4    S    
C31   C33   A    
C7    C37   A    
O14   C58   A    
C26   H2    S    
O6    C4    A    
C50   C59   S    
C49   C60   S    
N1    H20   S    
O1    V2    S    
C1    C52   S    
O2    V1    S    
C47   C49   S    
C52   C54   S    
C55   H17   S    
C9    C11   A    
C39   H29   S    
C10   C12   A    
O4    C2    A    
O13   C57   A    
C43   N1    S    
N6    H34   S    
N7    H37   S    
O15   C59   A    
O3    V1    S    
C23   C25   A    
C37   H41   S    
C10   C18   A    
O13   V3    S    
N10   H49   S    
C41   H9    S    
C11   H45   S    
N12   H54   S    
C28   C30   A    
O3    C1    A    
N9    H47   S    
C36   H6    S    
C13   C15   A    
C44   C52   S    
C14   C16   A    
C42   H10   S    
C5    C13   A    
C16   C18   A    
N8    H39   S    
O7    V1    S    
C1    O8    A    
C8    C40   A    
C32   C36   A    
O8    V2    S    
N3    H23   S    
C41   C43   S    
C24   C26   A    
C51   C55   S    
N9    H48   S    
C47   C55   S    
C2    C51   S    
C46   H36   S    
N2    H22   S    
C45   H35   S    
O5    V1    S    
O20   V3    S    
C21   C23   A    
C19   C27   A    
N10   H50   S    
C20   C28   A    
C27   H55   S    
O12   C60   A    
C7    C39   A    
O19   V4    S    
C47   H27   S    
O16   V4    S    
N5    H31   S    
C46   C50   S    
O9    V2    S    
C17   C25   A    
N1    H19   S    
C45   C49   S    
O10   V1    S    
C56   H18   S    
C18   C26   A    
H15   C53   S    
N6    H33   S    
C14   N10   S    
C31   C35   A    
C9    H43   S    
H16   C54   S    
O17   V3    S    
O11   C59   A    
C40   H30   S    
