data_mof_unit_26503.cif
_audit_creation_date              2012-12-11T16:32:29-0500
_audit_creation_method            fapswitch 2.2
_symmetry_space_group_name_H-M    P1
_symmetry_Int_Tables_number       1
_space_group_crystal_system       triclinic
_cell_length_a                    6.950109
_cell_length_b                    14.389038
_cell_length_c                    15.969324
_cell_angle_alpha                 90.097722
_cell_angle_beta                  90.249927
_cell_angle_gamma                 89.811225
_cell_volume                      1596.99220949

loop_
_atom_site_label
_atom_site_type_symbol
_atom_type_description
_atom_site_fract_x
_atom_site_fract_y
_atom_site_fract_z
_atom_type_partial_charge
O1    O     O_R   0.361630 0.167340 0.164570 -0.537794
O2    O     O_R   0.638370 0.832660 0.835430 -0.537536
O3    O     O_R   0.690860 0.157560 0.338690 -0.535400
O4    O     O_R   0.309140 0.842440 0.661310 -0.540954
O5    O     O_R   0.861260 0.336420 0.339380 -0.529534
O6    O     O_R   0.138740 0.663580 0.660620 -0.527242
C1    C     C_R   0.522636 0.135662 0.368816 0.677580
C2    C     C_R   0.477624 0.865792 0.632227 0.675481
O7    O     O_R   0.691330 0.156310 0.165190 -0.539623
O8    O     O_R   0.308670 0.843690 0.834810 -0.539403
O9    O     O_R   0.861730 0.335160 0.164640 -0.540481
O10   O     O_R   0.138270 0.664840 0.835360 -0.538368
C3    C     C_R   0.522695 0.133921 0.136583 0.696249
C4    C     C_R   0.477493 0.866378 0.863049 0.697895
O11   O     O_R   0.361150 0.168600 0.339320 -0.537115
O12   O     O_R   0.638850 0.831400 0.660680 -0.538153
O13   O     O_3   0.527950 0.310560 0.252000 -0.367910
O14   O     O_3   0.472050 0.689440 0.748000 -0.363343
V1    V     V_3+5 0.802770 0.240990 0.251980 1.436732
V2    V     V_3+5 0.197230 0.759010 0.748020 1.423588
O15   O     O_R   0.191450 0.346190 0.165260 -0.539296
O16   O     O_R   0.808550 0.653810 0.834740 -0.537995
C5    C     C_R   0.022032 0.368533 0.137191 0.693804
C6    C     C_R   0.977817 0.631687 0.863086 0.698339
O17   O     O_R   0.190980 0.347440 0.338770 -0.546474
O18   O     O_R   0.809020 0.652560 0.661230 -0.542763
C7    C     C_R   0.022332 0.369627 0.367360 0.731125
C8    C     C_R   0.977574 0.630192 0.632719 0.700610
V3    V     V_3+5 0.302780 0.262760 0.251980 1.423406
V4    V     V_3+5 0.697220 0.737240 0.748020 1.417477
O19   O     O_3   0.027730 0.193200 0.251960 -0.369384
O20   O     O_3   0.972270 0.806800 0.748040 -0.371347
C9    C     C_3   0.910390 0.422840 0.520645 0.513743
C10   C     C_3   0.087096 0.577250 0.479295 0.508314
C11   C     C_3   0.083875 0.463602 0.568730 -0.271890
C12   C     C_3   0.915510 0.536167 0.430118 -0.287868
H1    H     H_    0.148348 0.432269 0.625664 0.118955
H2    H     H_    0.849480 0.565959 0.372704 0.122546
C13   C     C_3   0.986825 0.560380 0.562823 -0.137600
C14   C     C_3   0.012266 0.439505 0.437018 -0.111154
C15   C     C_3   0.811469 0.519214 0.515072 -0.267716
C16   C     C_3   0.186408 0.481482 0.484087 -0.197541
H3    H     H_    0.659296 0.537666 0.527965 0.142490
H4    H     H_    0.339705 0.468470 0.468986 0.123632
H5    H     H_    0.121315 0.319277 0.755722 0.111551
H6    H     H_    0.820892 0.674419 0.241903 0.118006
C17   C     C_R   0.906077 0.688280 0.033520 -0.146628
C18   C     C_R   0.092126 0.311607 0.967132 -0.145735
C19   C     C_R   0.862970 0.716798 0.114705 -0.100909
C20   C     C_R   0.119635 0.281310 0.885235 -0.103290
C21   C     C_R   0.861258 0.652595 0.179578 -0.145359
C22   C     C_R   0.103612 0.343664 0.819307 -0.154860
C23   C     C_R   0.911690 0.560285 0.164605 -0.143946
C24   C     C_R   0.064016 0.437156 0.834655 -0.133509
C25   C     C_R   0.958066 0.529475 0.082964 0.069623
C26   C     C_R   0.034120 0.469834 0.917103 0.070169
C27   C     C_R   0.950906 0.594253 0.015836 0.056871
C28   C     C_R   0.047033 0.405694 0.984573 0.055453
C29   C     C_R   0.010528 0.435812 0.067440 -0.182594
C30   C     C_R   0.988537 0.564304 0.932935 -0.185446
H7    H     H_    0.902894 0.740603 0.984928 0.110750
H8    H     H_    0.103721 0.260175 0.016270 0.111514
H9    H     H_    0.828419 0.788906 0.127132 0.138753
H10   H     H_    0.151643 0.208906 0.872818 0.132957
H11   H     H_    0.912435 0.513384 0.217487 0.094760
H12   H     H_    0.054711 0.483133 0.781260 0.088171
C31   C     C_3   0.419198 0.081845 0.526414 -0.130773
C32   C     C_3   0.581420 0.921840 0.475991 -0.140463
C33   C     C_3   0.314512 0.987051 0.519482 -0.104438
C34   C     C_3   0.686155 0.016597 0.482971 -0.100791
H13   H     H_    0.160753 0.974734 0.534153 0.100634
H14   H     H_    0.839724 0.029466 0.468457 0.105907
H15   H     H_    0.351901 0.147900 0.547437 0.100532
H16   H     H_    0.646530 0.855160 0.455506 0.106680
C35   C     C_3   0.487651 0.938570 0.562243 -0.017667
C36   C     C_3   0.513120 0.064907 0.440256 -0.011727
C37   C     C_3   0.592189 0.032824 0.569784 -0.141154
C38   C     C_3   0.408726 0.971006 0.432755 -0.150311
H17   H     H_    0.668687 0.058810 0.626249 0.099925
H18   H     H_    0.334950 0.949225 0.374463 0.112203
H19   H     H_    0.425437 0.819297 0.246039 0.109577
H20   H     H_    0.642522 0.174385 0.754111 0.113541
C39   C     C_R   0.594636 0.187433 0.965125 -0.146845
C40   C     C_R   0.415831 0.811757 0.034544 -0.147940
C41   C     C_R   0.630365 0.215442 0.883281 -0.107711
C42   C     C_R   0.399953 0.781678 0.117004 -0.104526
C43   C     C_R   0.615658 0.152192 0.817669 -0.143050
C44   C     C_R   0.426910 0.843970 0.182504 -0.145785
C45   C     C_R   0.566893 0.060083 0.833548 -0.141391
C46   C     C_R   0.460168 0.937626 0.166446 -0.142363
C47   C     C_R   0.533368 0.029113 0.916195 0.070407
C48   C     C_R   0.475604 0.970385 0.083407 0.071248
C49   C     C_R   0.546603 0.094224 0.983331 0.056685
C50   C     C_R   0.458066 0.905677 0.016153 0.056227
C51   C     C_R   0.487158 0.935032 0.932559 -0.184088
C52   C     C_R   0.514089 0.065245 0.066862 -0.184359
H21   H     H_    0.607080 0.239445 0.013861 0.110797
H22   H     H_    0.398541 0.760225 0.985677 0.111917
H23   H     H_    0.670496 0.286588 0.871025 0.140778
H24   H     H_    0.371862 0.709193 0.130158 0.132095
H25   H     H_    0.556752 0.013459 0.780486 0.090075
H26   H     H_    0.478509 0.983432 0.219695 0.092154
O21   O     O_3   0.830705 0.335322 0.540861 -0.581281
C53   C     C_3   0.663324 0.345293 0.590044 0.073914
H27   H     H_    0.593728 0.276047 0.593640 0.131161
H28   H     H_    0.555934 0.391531 0.559643 0.111088
C54   C     C_3   0.710209 0.376955 0.679728 -0.347851
H29   H     H_    0.796175 0.322048 0.711032 0.193963
H30   H     H_    0.793941 0.442205 0.679833 0.195056
C55   C     C_3   0.528269 0.394603 0.729650 -0.812154
H31   H     H_    0.439972 0.449551 0.699367 0.232023
H32   H     H_    0.566250 0.418586 0.793706 0.236950
H33   H     H_    0.445507 0.329188 0.733864 0.226048
O22   O     O_3   0.191171 0.658394 0.460819 -0.578982
C56   C     C_3   0.065645 0.733945 0.444940 0.063289
H34   H     H_    0.093228 0.788547 0.492785 0.133336
H35   H     H_    0.909156 0.717271 0.448025 0.100037
C57   C     C_3   0.113106 0.772364 0.358842 -0.303522
H36   H     H_    0.262816 0.797758 0.361291 0.188631
H37   H     H_    0.106645 0.715734 0.311701 0.200587
C58   C     C_3   0.977901 0.850988 0.332785 -0.857608
H38   H     H_    0.828303 0.824960 0.326573 0.225513
H39   H     H_    0.023560 0.879008 0.271279 0.241273
H40   H     H_    0.982164 0.907937 0.379648 0.228145

loop_
_geom_bond_atom_site_label_1
_geom_bond_atom_site_label_2
_ccdc_geom_bond_type
C19   H9    S    
C25   C29   A    
C20   H10   S    
C31   C37   S    
O4    C2    A    
V1    O19   S    
C53   H28   S    
O22   C56   S    
C33   C38   S    
C13   C15   S    
C32   C35   S    
C5    C29   S    
O9    V1    S    
C24   H12   S    
C11   H1    S    
C36   C38   S    
O3    C1    A    
C42   C44   A    
C17   C27   A    
C32   H16   S    
H20   C43   S    
C39   C49   A    
C48   C52   A    
O13   V3    S    
C33   H13   S    
C11   C16   S    
O7    C3    A    
C57   H36   S    
C46   H26   S    
C58   H40   S    
C9    C11   S    
C55   H31   S    
C18   H8    S    
O7    V1    S    
O6    C8    A    
O8    V2    S    
C19   C21   A    
C10   C16   S    
C20   C22   A    
C54   H29   S    
O3    V1    S    
C31   H15   S    
C45   C47   A    
C42   H24   S    
O14   V2    S    
C18   C20   A    
C2    O12   A    
O5    C7    A    
C34   C37   S    
O17   V3    S    
C15   H3    S    
C12   C15   S    
C16   H4    S    
O1    V3    S    
C53   H27   S    
C22   C24   A    
O11   V3    S    
C55   H32   S    
C23   C25   A    
C32   C38   S    
C24   C26   A    
C9    C14   S    
C41   C43   A    
C10   C13   S    
C12   C14   S    
C17   C19   A    
O8    C4    A    
C27   C30   A    
C1    O11   A    
C3    C52   S    
H5    C22   S    
C56   H35   S    
C28   C29   A    
O15   V3    S    
H6    C21   S    
C2    C35   S    
C26   C30   A    
C21   C23   A    
C57   C58   S    
C11   C13   S    
C41   H23   S    
C47   C49   A    
C46   C48   A    
C7    C14   S    
C6    C30   S    
C56   C57   S    
O10   V2    S    
C48   C50   A    
C37   H17   S    
C40   C50   A    
C35   C37   S    
C55   H33   S    
C58   H38   S    
O14   V4    S    
C39   C41   A    
C44   C46   A    
O18   V4    S    
C49   C52   A    
C25   C27   A    
C34   C36   S    
O17   C7    A    
C54   C55   S    
O16   C6    A    
O1    C3    A    
C12   H2    S    
C4    C51   S    
C23   H11   S    
V2    O20   S    
O16   V4    S    
C45   H25   S    
C9    O21   S    
C40   C42   A    
C14   C16   S    
C17   H7    S    
C18   C28   A    
C1    C36   S    
O5    V1    S    
C10   O22   S    
O6    V2    S    
O10   C6    A    
O18   C8    A    
C8    C13   S    
O2    V4    S    
C40   H22   S    
O15   C5    A    
C9    C15   S    
V3    O19   S    
V4    O20   S    
C54   H30   S    
O9    C5    A    
O13   V1    S    
C10   C12   S    
C26   C28   A    
C33   C35   S    
C38   H18   S    
C50   C51   A    
O2    C4    A    
C57   H37   S    
C58   H39   S    
H19   C44   S    
C47   C51   A    
O4    V2    S    
C32   C34   S    
C39   H21   S    
O21   C53   S    
C43   C45   A    
C34   H14   S    
C31   C36   S    
C31   C33   S    
O12   V4    S    
C53   C54   S    
C56   H34   S    
