data_mof_unit_39965.cif
_audit_creation_date              2012-12-10T17:17:31-0500
_audit_creation_method            fapswitch 2.2
_symmetry_space_group_name_H-M    P1
_symmetry_Int_Tables_number       1
_space_group_crystal_system       triclinic
_cell_length_a                    10.18209
_cell_length_b                    10.723312
_cell_length_c                    12.305489
_cell_angle_alpha                 90.380012
_cell_angle_beta                  109.288539
_cell_angle_gamma                 96.341827
_cell_volume                      1259.07178843

loop_
_atom_site_label
_atom_site_type_symbol
_atom_type_description
_atom_site_fract_x
_atom_site_fract_y
_atom_site_fract_z
_atom_type_partial_charge
C1    C     C_R   0.054847 0.733885 0.496413 0.823514
C2    C     C_R   0.201196 0.501718 0.838019 -0.190007
C3    C     C_2   0.096741 0.869066 0.510247 0.281850
C4    C     C_R   0.132384 0.505202 0.714020 0.874511
C5    C     C_2   0.022093 0.937600 0.554950 -0.298140
C6    C     C_2   0.929383 0.135392 0.532789 -0.376315
C7    C     C_2   0.041193 0.072674 0.561003 -0.061872
C8    C     C_2   0.432871 0.511939 0.509410 -0.054473
C9    C     C_2   0.566906 0.488628 0.490035 -0.123856
C10   C     C_R   0.950393 0.267326 0.512062 0.919530
C11   C     C_R   0.865495 0.487249 0.286057 0.880154
C12   C     C_R   0.414983 0.479961 0.994045 0.024621
C13   C     C_R   0.728704 0.330236 0.991534 -0.184789
C14   C     C_R   0.786344 0.461142 0.165080 -0.056866
C15   C     C_R   0.152951 0.569450 0.912213 -0.266975
C16   C     C_R   0.231383 0.586815 0.028659 0.506654
C17   C     C_R   0.363653 0.545830 0.068905 -0.295348
C18   C     C_R   0.324360 0.443628 0.882170 0.082703
C19   C     C_R   0.553436 0.448958 0.026465 0.117954
C20   C     C_R   0.591944 0.363890 0.956635 0.154460
C21   C     C_R   0.492793 0.312694 0.854156 -0.225412
C22   C     C_R   0.360418 0.352234 0.817002 -0.159733
C23   C     C_R   0.655732 0.503368 0.125379 -0.248539
C24   C     C_R   0.825339 0.377020 0.097069 -0.112659
H1    H     H_    0.927209 0.343483 0.127592 0.173058
H2    H     H_    0.634696 0.576536 0.175841 0.160858
H3    H     H_    0.056346 0.611568 0.879026 0.210537
H4    H     H_    0.422453 0.563325 0.159360 0.174908
H5    H     H_    0.286140 0.309219 0.737510 0.165916
H6    H     H_    0.145777 0.120791 0.576634 0.227139
H7    H     H_    0.385312 0.874218 0.392349 0.390305
H8    H     H_    0.966999 0.704440 0.128744 0.383399
H9    H     H_    0.934531 0.894001 0.578859 0.176532
H10   H     H_    0.824472 0.088778 0.519232 0.171196
H11   H     H_    0.563767 0.415132 0.427866 0.172153
H12   H     H_    0.435796 0.585917 0.571064 0.174603
H13   H     H_    0.685148 0.622374 0.603463 0.175799
H14   H     H_    0.314977 0.377136 0.397012 0.192267
H15   H     H_    0.518411 0.244252 0.801458 0.174432
H16   H     H_    0.758943 0.264499 0.939476 0.151744
N1    N     N_2   0.313640 0.446500 0.454900 -0.160147
N2    N     N_2   0.686360 0.553430 0.545150 -0.186623
O1    O     O_R   0.936910 0.692950 0.509080 -0.637354
O2    O     O_2   0.353095 0.997748 0.573655 -0.341376
O3    O     O_3   0.305256 0.828013 0.409569 -0.475485
O4    O     O_2   0.210986 0.610353 0.238159 -0.281978
O5    O     O_2   0.233128 0.803013 0.136343 -0.263782
O6    O     O_3   0.993569 0.661808 0.068778 -0.572310
O7    O     O_R   0.138320 0.658600 0.480130 -0.514268
O8    O     O_R   0.002900 0.525670 0.675280 -0.607088
O9    O     O_R   0.204310 0.491320 0.646330 -0.623962
O10   O     O_R   0.861680 0.341400 0.519870 -0.602922
O11   O     O_R   0.063090 0.307050 0.490920 -0.602720
O12   O     O_R   0.795690 0.508680 0.353670 -0.614186
O13   O     O_R   0.997100 0.474330 0.324720 -0.559885
O14   O     O_2   0.190621 0.035242 0.382891 -0.287116
S1    S     S_3+6 0.239682 0.937002 0.468850 0.028732
S2    S     S_3+6 0.169099 0.668252 0.122664 0.025479
Zn1   Zn    Zn3+2 0.865520 0.522940 0.519330 0.954648
Zn2   Zn    Zn3+2 0.134480 0.477060 0.480670 1.036525

loop_
_geom_bond_atom_site_label_1
_geom_bond_atom_site_label_2
_ccdc_geom_bond_type
N2    Zn1   S    
C6    C10   S    
C2    C4    S    
O6    S2    S    
C6    C7    D    
C22   H5    S    
C14   C23   A    
C2    C18   A    
C19   C23   A    
C19   C20   A    
C21   H15   S    
O1    Zn1   S    
O2    S1    D    
C10   O10   A    
C20   C21   A    
C18   C22   A    
O7    Zn2   S    
C7    H6    S    
C16   S2    S    
C21   C22   A    
C24   H1    S    
O5    S2    D    
C2    C15   A    
H8    O6    S    
O3    S1    S    
C9    N2    D    
C11   O12   A    
C1    O7    A    
O8    Zn1   S    
C3    S1    S    
C12   C19   A    
O10   Zn1   S    
O11   Zn2   S    
O12   Zn1   S    
H7    O3    S    
C11   C14   S    
O14   S1    D    
C4    O9    A    
C14   C24   A    
C15   C16   A    
C12   C17   A    
C11   O13   A    
C8    N1    D    
N1    Zn2   S    
H14   N1    S    
C5    C7    S    
C8    H12   S    
C23   H2    S    
C12   C18   A    
H13   N2    S    
C9    H11   S    
C10   O11   A    
C16   C17   A    
C13   H16   S    
O9    Zn2   S    
C13   C20   A    
C3    C5    D    
O13   Zn2   S    
C17   H4    S    
C15   H3    S    
C1    O1    A    
O4    S2    D    
C6    H10   S    
C13   C24   A    
C4    O8    A    
C8    C9    S    
C1    C3    S    
C5    H9    S    
