data_mof_unit_9514.cif
_audit_creation_date              2012-10-26T19:52:24-0400
_audit_creation_method            fapswitch 2.2
_symmetry_space_group_name_H-M    P1
_symmetry_Int_Tables_number       1
_space_group_crystal_system       triclinic
_cell_length_a                    9.539045
_cell_length_b                    10.871294
_cell_length_c                    13.421207
_cell_angle_alpha                 90.719463
_cell_angle_beta                  72.387694
_cell_angle_gamma                 89.907166
_cell_volume                      1326.43701313

loop_
_atom_site_label
_atom_site_type_symbol
_atom_type_description
_atom_site_fract_x
_atom_site_fract_y
_atom_site_fract_z
_atom_type_partial_charge
C1    C     C_R   0.501033 0.737341 0.498307 0.570130
C2    C     C_R   0.373036 0.493742 0.815125 0.004713
C3    C     C_R   0.373330 0.937115 0.536724 -0.095115
C4    C     C_R   0.421194 0.495251 0.700155 0.529304
C5    C     C_R   0.503762 0.870273 0.500004 -0.040963
C6    C     C_R   0.639015 0.934525 0.471878 0.242771
C7    C     C_R   0.639342 0.063570 0.479910 0.237103
C8    C     C_R   0.504652 0.129296 0.501813 -0.041770
C9    C     C_R   0.374378 0.062984 0.532623 -0.047975
C10   C     C_3   0.229853 0.067085 0.509363 0.184183
C11   C     C_3   0.227838 0.926704 0.516340 -0.208618
C12   C     C_R   0.435423 0.489046 0.978896 0.024855
C13   C     C_R   0.951641 0.416257 0.440803 0.124718
C14   C     C_R   0.896678 0.576992 0.565380 0.376206
C15   C     C_R   0.047004 0.574725 0.565936 -0.035068
C16   C     C_R   0.501172 0.262438 0.499095 0.551459
C17   C     C_R   0.098961 0.416340 0.440677 0.164888
C18   C     C_3   0.153101 0.402943 0.324618 -0.262905
C19   C     C_3   0.994233 0.401334 0.325066 -0.280741
C20   C     C_R   0.578804 0.498548 0.299949 0.560334
C21   C     C_R   0.772307 0.369558 0.034176 -0.139808
C22   C     C_R   0.624033 0.480285 0.186583 0.007866
C23   C     C_R   0.468912 0.456054 0.871864 -0.021212
C24   C     C_R   0.233524 0.541308 0.868988 -0.129209
C25   C     C_R   0.191520 0.556182 0.976769 -0.156886
C26   C     C_R   0.291298 0.532053 0.031229 -0.088972
C27   C     C_3   0.827083 0.122383 0.540165 -0.064426
C28   C     C_3   0.354403 0.086167 0.325570 -0.106789
C29   C     C_3   0.843609 0.769103 0.646014 -0.116131
C30   C     C_3   0.915172 0.337777 0.750167 -0.123848
C31   C     C_3   0.503529 0.729943 0.138677 -0.130043
C32   C     C_3   0.809700 0.861362 0.326013 -0.086980
C33   C     C_R   0.543963 0.470572 0.030555 -0.013218
C34   C     C_R   0.671116 0.398245 0.980441 0.017661
C35   C     C_R   0.695000 0.354210 0.877950 0.264499
C36   C     C_R   0.593622 0.382173 0.825317 -0.092285
C37   C     C_R   0.532204 0.522729 0.130051 0.248640
C38   C     C_R   0.746052 0.406678 0.137559 -0.217335
Cu1   Cu    Cu3+1 0.359330 0.500020 0.500010 0.943767
Cu2   Cu    Cu3+1 0.640670 0.499980 0.499990 1.015077
H1    H     H_    0.141710 0.892930 0.586224 0.080309
H2    H     H_    0.403754 0.994426 0.328977 0.097329
H3    H     H_    0.437710 0.159070 0.319267 0.131175
H4    H     H_    0.748113 0.832469 0.674358 0.150328
H5    H     H_    0.914916 0.805842 0.570691 0.140222
H6    H     H_    0.902225 0.769111 0.705997 0.080663
H7    H     H_    0.083239 0.633376 0.618799 0.110858
H8    H     H_    0.212281 0.485817 0.286926 0.183807
H9    H     H_    0.964462 0.482369 0.285803 0.137283
H10   H     H_    0.946951 0.428202 0.776631 0.124395
H11   H     H_    0.872415 0.349842 0.682581 0.115433
H12   H     H_    0.233382 0.876511 0.442597 0.164192
H13   H     H_    0.016411 0.280696 0.722747 0.135867
H14   H     H_    0.959886 0.310776 0.301243 0.162463
H15   H     H_    0.868904 0.313696 0.998045 0.171756
H16   H     H_    0.533136 0.737654 0.052124 0.127775
H17   H     H_    0.602694 0.742673 0.164975 0.095852
H18   H     H_    0.425461 0.805697 0.173824 0.132084
H19   H     H_    0.157080 0.568279 0.827649 0.120687
H20   H     H_    0.249973 0.542058 0.114798 0.162475
H21   H     H_    0.081983 0.589293 0.018238 0.112455
H22   H     H_    0.610157 0.339377 0.749489 0.135751
H23   H     H_    0.211539 0.314514 0.298279 0.165514
H24   H     H_    0.825196 0.953059 0.288382 0.135727
H25   H     H_    0.725921 0.807685 0.301810 0.090026
H26   H     H_    0.915573 0.810598 0.297230 0.136623
H27   H     H_    0.818518 0.374424 0.180070 0.127542
H28   H     H_    0.858792 0.027858 0.555543 0.134787
H29   H     H_    0.746559 0.162315 0.611599 0.105443
H30   H     H_    0.927478 0.179326 0.522350 0.149632
H31   H     H_    0.142836 0.111171 0.574657 0.107659
H32   H     H_    0.323178 0.087647 0.252428 0.123805
N1    N     N_R   0.852320 0.499070 0.499340 -0.226619
N2    N     N_R   0.148230 0.499110 0.499340 -0.265476
O1    O     O_R   0.381190 0.680360 0.500000 -0.514250
O2    O     O_3   0.227227 0.112567 0.410541 -0.559708
O3    O     O_3   0.790566 0.650453 0.634331 -0.521298
O4    O     O_3   0.812386 0.276046 0.832138 -0.594404
O5    O     O_3   0.434111 0.617094 0.172775 -0.591036
O6    O     O_3   0.772086 0.872710 0.435733 -0.543077
O7    O     O_R   0.618780 0.680320 0.499990 -0.412664
O8    O     O_R   0.323230 0.500000 0.650990 -0.525924
O9    O     O_R   0.560820 0.499960 0.650980 -0.464908
O10   O     O_R   0.381220 0.319680 0.500010 -0.490292
O11   O     O_R   0.618810 0.319640 0.500000 -0.474825
O12   O     O_R   0.439180 0.500040 0.349020 -0.465886
O13   O     O_R   0.676770 0.500000 0.349010 -0.527376
O14   O     O_3   0.772618 0.124332 0.453444 -0.540050

loop_
_geom_bond_atom_site_label_1
_geom_bond_atom_site_label_2
_ccdc_geom_bond_type
C30   H11   S    
C35   C36   A    
C15   H7    S    
C7    C8    A    
C37   O5    S    
C12   C23   A    
C1    C5    S    
Cu2   O13   S    
Cu1   O10   S    
C18   C19   S    
C5    C6    A    
C18   H23   S    
Cu1   N2    S    
C1    O7    A    
C22   C38   A    
C20   O13   A    
C16   O10   A    
Cu2   N1    S    
C34   C35   A    
C14   O3    S    
C27   H28   S    
C10   O2    S    
C21   C38   A    
C8    C9    A    
C20   O12   A    
C11   H12   S    
Cu1   O1    S    
C31   H16   S    
C9    C10   S    
C27   H29   S    
C10   H31   S    
C30   H10   S    
C8    C16   S    
Cu2   O9    S    
C28   H32   S    
C36   H22   S    
C17   C18   S    
C30   H13   S    
C13   C19   S    
C1    O1    A    
C14   N1    A    
C24   C25   A    
C32   H24   S    
Cu1   Cu2   S    
C21   H15   S    
C21   C34   A    
C25   C26   A    
C22   C37   A    
C33   C37   A    
C29   H5    S    
Cu2   O11   S    
C2    C4    S    
C3    C9    A    
C32   O6    S    
C19   H9    S    
C6    O6    S    
C7    O14   S    
C33   C34   A    
C4    O8    A    
C25   H21   S    
C27   H30   S    
C19   H14   S    
C20   C22   S    
C29   H4    S    
C2    C24   A    
C16   O11   A    
C28   O2    S    
C31   H18   S    
C32   H26   S    
C28   H3    S    
Cu2   O7    S    
Cu1   O8    S    
C13   N1    A    
C3    C5    A    
C18   H8    S    
C31   O5    S    
C6    C7    A    
C35   O4    S    
C13   C17   A    
C29   H6    S    
C31   H17   S    
C17   N2    A    
C4    O9    A    
C24   H19   S    
C28   H2    S    
C11   H1    S    
C27   O14   S    
C3    C11   S    
C10   C11   S    
C30   O4    S    
C15   N2    A    
C29   O3    S    
C38   H27   S    
C23   C36   A    
C12   C26   A    
C2    C23   A    
C14   C15   A    
Cu1   O12   S    
C12   C33   A    
C26   H20   S    
C32   H25   S    
