data_mof_unit_18295.cif
_audit_creation_date              2012-12-10T18:58:48-0500
_audit_creation_method            fapswitch 2.2
_symmetry_space_group_name_H-M    P1
_symmetry_Int_Tables_number       1
_space_group_crystal_system       triclinic
_cell_length_a                    13.004214
_cell_length_b                    10.821042
_cell_length_c                    9.548316
_cell_angle_alpha                 89.611797
_cell_angle_beta                  96.070791
_cell_angle_gamma                 90.30774
_cell_volume                      1336.05046897

loop_
_atom_site_label
_atom_site_type_symbol
_atom_type_description
_atom_site_fract_x
_atom_site_fract_y
_atom_site_fract_z
_atom_type_partial_charge
C1    C     C_R   0.498694 0.262452 0.500344 0.810883
C2    C     C_R   0.028728 0.512031 0.570487 0.090895
C3    C     C_R   0.973054 0.478939 0.440378 0.147095
C4    C     C_R   0.866020 0.471541 0.428952 -0.204459
C5    C     C_R   0.867045 0.535202 0.671448 -0.223670
C6    C     C_R   0.975609 0.536602 0.689360 0.250779
C7    C     C_R   0.514663 0.062022 0.625959 0.038189
C8    C     C_R   0.491935 0.129267 0.500983 -0.063584
C9    C     C_R   0.459749 0.065051 0.376094 -0.160280
C10   C     C_R   0.460970 0.935990 0.375066 -0.144417
C11   C     C_R   0.495920 0.870401 0.498348 -0.022332
C12   C     C_R   0.300608 0.499495 0.473846 0.790391
C13   C     C_R   0.520136 0.935631 0.622653 0.016330
C14   C     C_3   0.607007 0.928415 0.739608 -0.311869
C15   C     C_3   0.599469 0.071089 0.746588 -0.162993
C16   C     C_R   0.562224 0.580137 0.082115 0.237786
C17   C     C_R   0.431031 0.430721 0.065023 -0.070393
C18   C     C_R   0.430640 0.431321 0.916090 -0.034654
C19   C     C_R   0.562511 0.579509 0.934502 0.225972
C20   C     C_3   0.677414 0.583305 0.944716 -0.562280
C21   C     C_3   0.677764 0.583799 0.103338 -0.271174
C22   C     C_R   0.500182 0.737420 0.499485 0.854060
C23   C     C_R   0.699551 0.500390 0.526368 0.872337
C24   C     C_R   0.812549 0.502318 0.542675 -0.095866
C25   C     C_R   0.187972 0.495704 0.459734 -0.044278
C26   C     C_R   0.024973 0.454275 0.322435 -0.153014
C27   C     C_R   0.132044 0.462859 0.331947 -0.198750
C28   C     C_R   0.136309 0.521395 0.577521 -0.245060
Cu1   Cu    Cu3+1 0.499990 0.499980 0.640670 0.976388
Cu2   Cu    Cu3+1 0.500010 0.500020 0.359330 0.981486
H1    H     H_    0.824521 0.441827 0.330937 0.153204
H2    H     H_    0.376849 0.372327 0.113488 0.127775
H3    H     H_    0.375722 0.374027 0.852744 0.163294
H4    H     H_    0.709894 0.496354 0.907091 0.234842
H5    H     H_    0.706327 0.669792 0.898901 0.205677
H6    H     H_    0.710929 0.497919 0.152519 0.162513
H7    H     H_    0.824174 0.559000 0.757409 0.164959
H8    H     H_    0.982700 0.428453 0.222926 0.144444
H9    H     H_    0.171028 0.442368 0.240078 0.150947
H10   H     H_    0.180797 0.550439 0.673920 0.165730
H11   H     H_    0.436449 0.114177 0.278758 0.155071
H12   H     H_    0.437542 0.888162 0.277500 0.167143
H13   H     H_    0.581596 0.879113 0.832795 0.141506
N1    N     N_R   0.500660 0.500930 0.148010 -0.195814
N2    N     N_R   0.500660 0.500890 0.852110 -0.178457
O1    O     O_R   0.500000 0.319640 0.618810 -0.569723
O2    O     O_R   0.500010 0.319680 0.381230 -0.579162
O3    O     O_R   0.348990 0.499960 0.599490 -0.595750
O4    O     O_R   0.349000 0.500000 0.361910 -0.597706
O5    O     O_R   0.499990 0.680320 0.618770 -0.594480
O6    O     O_R   0.500000 0.680360 0.381190 -0.560566
O7    O     O_R   0.651000 0.500000 0.638090 -0.583291
O8    O     O_R   0.651010 0.500040 0.400510 -0.588545
C29   C     C_2   0.709029 0.878902 0.700943 0.907684
O9    O     O_2   0.716697 0.835333 0.584674 -0.568005
O10   O     O_R   0.795483 0.884015 0.800908 -0.747487
H14   H     H_    0.859871 0.850366 0.763729 0.334003
C30   C     C_2   0.559344 0.110737 0.882614 0.890091
O11   O     O_2   0.617217 0.109611 0.992285 -0.530018
O12   O     O_R   0.455527 0.142956 0.884490 -0.778255
H15   H     H_    0.437598 0.161657 0.982902 0.312837
C31   C     C_2   0.692467 0.146597 0.709610 0.870847
O13   O     O_2   0.728122 0.130367 0.597582 -0.575320
O14   O     O_R   0.736171 0.236635 0.802472 -0.734507
H16   H     H_    0.796809 0.280942 0.765635 0.326789
C32   C     C_2   0.723088 0.700214 0.170906 0.930903
O15   O     O_2   0.667616 0.777586 0.217328 -0.542790
O16   O     O_R   0.830064 0.718269 0.181157 -0.763819
H17   H     H_    0.852368 0.798826 0.229036 0.356272
N3    N     N_2   0.032159 0.559945 0.824183 -0.449373
H18   H     H_    0.091316 0.498515 0.851796 0.241711
C33   C     C_3   0.978069 0.595783 0.942517 -0.619417
H19   H     H_    0.035145 0.617318 0.034082 0.238026
H20   H     H_    0.927689 0.519019 0.972902 0.221268
H21   H     H_    0.931606 0.680103 0.916361 0.261431

loop_
_geom_bond_atom_site_label_1
_geom_bond_atom_site_label_2
_ccdc_geom_bond_type
C32   O16   S    
Cu2   O6    S    
C16   C21   S    
C5    H7    S    
C21   C32   S    
C10   H12   S    
C1    C8    S    
C19   C20   S    
C12   O3    A    
C12   O4    A    
C7    C8    A    
C21   H6    S    
C25   C28   A    
C26   C27   A    
Cu1   Cu2   S    
C5    C6    A    
C4    C24   A    
C1    O1    A    
C28   H10   S    
C30   O12   S    
O10   H14   S    
C31   O14   S    
O16   H17   S    
C20   H5    S    
C27   H9    S    
C8    C9    A    
C23   C24   S    
N3    H18   S    
C9    C10   A    
C16   N1    A    
C22   O5    A    
C20   H4    S    
C7    C15   S    
C32   O15   D    
C13   C14   S    
Cu2   N1    S    
C2    C6    A    
C33   H21   S    
C23   O8    A    
Cu1   O5    S    
Cu2   O8    S    
C29   O10   S    
Cu1   O3    S    
Cu2   O2    S    
C33   H20   S    
C26   H8    S    
C30   O11   D    
Cu1   N2    S    
O12   H15   S    
C31   O13   D    
C17   C18   A    
C14   C29   S    
Cu2   O4    S    
C15   C30   S    
C3    C4    A    
C18   N2    A    
C6    N3    S    
C29   O9    D    
C3    C26   A    
C1    O2    A    
C33   H19   S    
C2    C28   A    
C19   N2    A    
C25   C27   A    
Cu1   O1    S    
C11   C22   S    
C9    H11   S    
C12   C25   S    
O14   H16   S    
C2    C3    A    
C17   N1    A    
C11   C13   A    
C23   O7    A    
C5    C24   A    
C16   C19   A    
C15   C31   S    
C18   H3    S    
C4    H1    S    
C10   C11   A    
C7    C13   A    
C20   C21   S    
C17   H2    S    
C14   C15   S    
C22   O6    A    
N3    C33   S    
C14   H13   S    
Cu1   O7    S    
