data_mof_unit_47663.cif
_audit_creation_date              2012-10-26T20:12:21-0400
_audit_creation_method            fapswitch 2.2
_symmetry_space_group_name_H-M    P1
_symmetry_Int_Tables_number       1
_space_group_crystal_system       triclinic
_cell_length_a                    13.030638
_cell_length_b                    15.092841
_cell_length_c                    13.783439
_cell_angle_alpha                 90.706544
_cell_angle_beta                  97.933941
_cell_angle_gamma                 90.699483
_cell_volume                      2684.3630591

loop_
_atom_site_label
_atom_site_type_symbol
_atom_type_description
_atom_site_fract_x
_atom_site_fract_y
_atom_site_fract_z
_atom_type_partial_charge
C1    C     C_R   0.498723 0.329982 0.499237 0.549435
C2    C     C_R   0.482717 0.952349 0.493307 -0.000080
C3    C     C_R   0.556658 0.567155 0.116204 0.261278
C4    C     C_R   0.556411 0.435053 0.898908 0.237187
C5    C     C_R   0.554363 0.564372 0.218230 0.045756
C6    C     C_R   0.552733 0.436297 0.796154 0.110004
C7    C     C_R   0.447058 0.436349 0.200496 0.069083
C8    C     C_R   0.446669 0.562587 0.785131 0.027543
C9    C     C_R   0.445941 0.436632 0.098500 -0.129857
C10   C     C_R   0.446215 0.563297 0.886985 -0.144071
C11   C     C_R   0.501389 0.501838 0.054651 0.043451
C12   C     C_R   0.499104 0.670344 0.500302 0.522800
C13   C     C_R   0.501421 0.499510 0.945652 0.052091
C14   C     C_R   0.299926 0.496144 0.480332 0.558569
C15   C     C_R   0.700756 0.503361 0.520703 0.549795
C16   C     C_R   0.815801 0.509336 0.537247 -0.032681
C17   C     C_R   0.186147 0.493750 0.467500 -0.035140
C18   C     C_R   0.017184 0.487848 0.368616 0.011668
C19   C     C_R   0.987948 0.520068 0.635529 -0.000748
C20   C     C_R   0.123780 0.467428 0.379771 0.262843
C21   C     C_R   0.878031 0.522491 0.631165 0.243832
C22   C     C_R   0.139423 0.519075 0.548192 -0.192686
C23   C     C_R   0.493679 0.233481 0.496664 0.051824
C24   C     C_R   0.863418 0.497937 0.453093 -0.175176
C25   C     C_R   0.032418 0.514120 0.546860 -0.010367
C26   C     C_R   0.970214 0.502038 0.455157 -0.006145
C27   C     C_R   0.564189 0.092774 0.454055 -0.105226
C28   C     C_R   0.408587 0.901356 0.434110 -0.106269
C29   C     C_R   0.571130 0.185102 0.457226 -0.019320
C30   C     C_R   0.412567 0.808749 0.435875 -0.018592
C31   C     C_3   0.959986 0.502622 0.265450 -0.225548
C32   C     C_3   0.004869 0.583706 0.218639 -0.294762
C33   C     C_3   0.961549 0.590066 0.110376 -0.429325
C34   C     C_R   0.492540 0.767235 0.499632 0.034794
C35   C     C_3   0.057842 0.510307 0.733483 -0.201337
C36   C     C_3   0.101495 0.600034 0.776618 -0.263691
C37   C     C_3   0.156956 0.589494 0.880811 -0.435212
C38   C     C_3   0.664019 0.228928 0.421299 -0.258840
C39   C     C_3   0.649682 0.231259 0.309058 -0.283324
C40   C     C_3   0.739722 0.279727 0.271962 -0.393512
C41   C     C_3   0.330386 0.757013 0.368752 -0.255226
C42   C     C_3   0.359576 0.750564 0.264728 -0.271705
C43   C     C_3   0.286887 0.687373 0.199974 -0.435948
C44   C     C_3   0.324049 0.237167 0.572837 -0.235017
C45   C     C_R   0.409751 0.188622 0.531196 -0.006164
C46   C     C_3   0.347340 0.244633 0.684888 -0.287819
C47   C     C_3   0.273198 0.307966 0.726006 -0.445993
C48   C     C_3   0.656207 0.782766 0.628926 -0.244563
C49   C     C_3   0.636501 0.790105 0.736450 -0.255799
C50   C     C_3   0.737264 0.802466 0.806640 -0.408970
C51   C     C_R   0.566574 0.819979 0.560712 -0.030359
C52   C     C_R   0.405054 0.096089 0.526433 -0.103200
C53   C     C_R   0.560500 0.912039 0.556119 -0.110916
C54   C     C_R   0.482134 0.048678 0.488715 0.001529
Cu1   Cu    Cu3+1 0.500000 0.499990 0.596430 0.986145
Cu2   Cu    Cu3+1 0.500000 0.500010 0.403570 0.969886
H1    H     H_    0.815239 0.479758 0.386005 0.137075
H2    H     H_    0.617581 0.952955 0.601578 0.123295
H3    H     H_    0.596655 0.613811 0.265798 0.164270
H4    H     H_    0.593141 0.386584 0.759691 0.184629
H5    H     H_    0.868626 0.549717 0.898573 0.371012
H6    H     H_    0.110278 0.291101 0.192813 0.372736
H7    H     H_    0.984080 0.531155 0.069499 0.169467
H8    H     H_    0.875831 0.593960 0.101301 0.213427
H9    H     H_    0.993105 0.650411 0.079170 0.151667
H10   H     H_    0.985236 0.644847 0.257570 0.168123
H11   H     H_    0.090416 0.580628 0.225062 0.199440
H12   H     H_    0.188704 0.539727 0.613823 0.136226
H13   H     H_    0.963679 0.443105 0.218650 0.228391
H14   H     H_    0.876635 0.515710 0.263297 0.143630
H15   H     H_    0.101703 0.566640 0.930046 0.189561
H16   H     H_    0.220026 0.540564 0.881708 0.142057
H17   H     H_    0.191121 0.654138 0.908958 0.138400
H18   H     H_    0.157386 0.628647 0.731495 0.128852
H19   H     H_    0.038863 0.649139 0.776895 0.221410
H20   H     H_    0.017536 0.473103 0.786068 0.219100
H21   H     H_    0.122879 0.465199 0.725525 0.105733
H22   H     H_    0.740429 0.350831 0.293636 0.167738
H23   H     H_    0.405508 0.384798 0.233035 0.200306
H24   H     H_    0.814668 0.249738 0.302019 0.163620
H25   H     H_    0.730705 0.274652 0.190857 0.236863
H26   H     H_    0.644734 0.162439 0.278911 0.173109
H27   H     H_    0.576487 0.265384 0.281511 0.201150
H28   H     H_    0.678209 0.297070 0.451823 0.161933
H29   H     H_    0.734903 0.191200 0.448055 0.139878
H30   H     H_    0.291147 0.619753 0.231007 0.203309
H31   H     H_    0.205921 0.711039 0.193978 0.142916
H32   H     H_    0.310205 0.684096 0.125502 0.156392
H33   H     H_    0.355798 0.817319 0.231326 0.169935
H34   H     H_    0.403866 0.612237 0.741047 0.125809
H35   H     H_    0.440128 0.726618 0.267094 0.200303
H36   H     H_    0.318143 0.689948 0.397625 0.160378
H37   H     H_    0.254554 0.790580 0.366216 0.127985
H38   H     H_    0.283113 0.375881 0.698237 0.169983
H39   H     H_    0.191656 0.285410 0.704566 0.158623
H40   H     H_    0.290216 0.310203 0.807223 0.152216
H41   H     H_    0.339892 0.178079 0.717087 0.166544
H42   H     H_    0.427927 0.269152 0.707509 0.192808
H43   H     H_    0.312835 0.303900 0.540457 0.190516
H44   H     H_    0.249067 0.201159 0.552212 0.146443
H45   H     H_    0.402249 0.385763 0.053890 0.140668
H46   H     H_    0.791442 0.747695 0.798331 0.215815
H47   H     H_    0.775450 0.866214 0.792131 0.142572
H48   H     H_    0.719960 0.804149 0.883267 0.181908
H49   H     H_    0.586539 0.847585 0.747429 0.164807
H50   H     H_    0.595124 0.729456 0.756009 0.218472
H51   H     H_    0.671755 0.713227 0.609890 0.192454
H52   H     H_    0.727688 0.820423 0.618295 0.136021
H53   H     H_    0.738896 0.659424 0.964755 0.364483
H54   H     H_    0.760925 0.441936 0.029037 0.367865
H55   H     H_    0.403191 0.613692 0.920013 0.128877
H56   H     H_    0.624049 0.054754 0.425966 0.120686
H57   H     H_    0.348645 0.933886 0.385325 0.119714
H58   H     H_    0.342522 0.060732 0.554198 0.112850
N1    N     N_R   0.500000 0.500020 0.258690 -0.269368
N2    N     N_R   0.500000 0.499980 0.741310 -0.243007
O1    O     O_R   0.500010 0.371450 0.581430 -0.528949
O2    O     O_2   0.781590 0.442831 0.765637 -0.275796
O3    O     O_3   0.899842 0.570998 0.841435 -0.592956
O4    O     O_2   0.207040 0.449680 0.212304 -0.348969
O5    O     O_2   0.261902 0.343633 0.342162 -0.307307
O6    O     O_3   0.079947 0.322980 0.245066 -0.544408
O7    O     O_2   0.556859 0.723464 0.028077 -0.303034
O8    O     O_2   0.707571 0.691201 0.148731 -0.325815
O9    O     O_3   0.690832 0.611454 0.978773 -0.529191
O10   O     O_2   0.565944 0.289043 0.007561 -0.294313
O11   O     O_2   0.701307 0.308246 0.903065 -0.259802
O12   O     O_R   0.499990 0.628550 0.418570 -0.522167
O13   O     O_3   0.710273 0.406575 0.060257 -0.525501
O14   O     O_R   0.500010 0.371460 0.418560 -0.490618
O15   O     O_R   0.499990 0.628540 0.581440 -0.503239
O16   O     O_R   0.349000 0.499980 0.568210 -0.540347
O17   O     O_R   0.651000 0.500020 0.431790 -0.528863
O18   O     O_R   0.349000 0.499990 0.405340 -0.439694
O19   O     O_R   0.651000 0.500010 0.594660 -0.404925
O20   O     O_2   0.731382 0.595970 0.730365 -0.286814
S1    S     S_3+6 0.820395 0.533259 0.742808 -0.023071
S2    S     S_3+6 0.172348 0.395902 0.293134 -0.034286
S3    S     S_3+6 0.629289 0.652154 0.068791 -0.040368
S4    S     S_3+6 0.634364 0.355836 0.966818 0.002434

loop_
_geom_bond_atom_site_label_1
_geom_bond_atom_site_label_2
_ccdc_geom_bond_type
Cu1   Cu2   S    
C50   H48   S    
C16   C21   A    
C23   C45   A    
C12   O15   A    
H5    O3    S    
C11   C13   S    
C41   C42   S    
O8    S3    D    
C35   C36   S    
C18   C26   A    
C21   S1    S    
Cu2   O17   S    
C27   C54   A    
C33   H9    S    
C14   O16   A    
O9    S3    S    
O10   S4    D    
C34   C51   A    
C43   H32   S    
C23   C29   A    
C32   H10   S    
C36   C37   S    
C19   C21   A    
C24   C26   A    
C38   C39   S    
C44   H43   S    
C48   H51   S    
C15   O19   A    
Cu1   N2    S    
C7    N1    A    
C15   C16   S    
O7    S3    D    
C17   C20   A    
C27   C29   A    
H54   O13   S    
C42   H35   S    
C20   S2    S    
C4    C13   A    
C49   C50   S    
Cu2   N1    S    
C31   H14   S    
C41   H37   S    
C44   C46   S    
C24   H1    S    
C22   C25   A    
C29   C38   S    
C47   H40   S    
C40   H24   S    
C30   C41   S    
O2    S1    D    
C46   H42   S    
C50   H47   S    
C16   C24   A    
C9    H45   S    
C10   C13   A    
C5    N1    A    
C14   C17   S    
C52   C54   A    
C48   C51   S    
C35   H20   S    
C5    H3    S    
C38   H29   S    
O3    S1    S    
C6    H4    S    
O6    S2    S    
C4    C6    A    
C1    O14   A    
C2    C54   S    
C39   C40   S    
C30   C34   A    
C49   H49   S    
C14   O18   A    
C45   C52   A    
C25   C26   A    
C35   H21   S    
C51   C53   A    
O5    S2    D    
C36   H19   S    
C4    S4    S    
C31   C32   S    
C33   H7    S    
C22   H12   S    
C10   H55   S    
C1    O1    A    
C9    C11   A    
C6    N2    A    
C36   H18   S    
C32   H11   S    
C12   O12   A    
H53   O9    S    
C48   C49   S    
C46   H41   S    
C27   H56   S    
C1    C23   S    
Cu1   O15   S    
C37   H15   S    
C40   H22   S    
C3    S3    S    
C42   C43   S    
O4    S2    D    
C12   C34   S    
H6    O6    S    
C44   C45   S    
C7    H23   S    
Cu1   O1    S    
C7    C9    A    
C37   H17   S    
C46   C47   S    
C38   H28   S    
C43   H30   S    
C40   H25   S    
C39   H26   S    
O20   S1    D    
C3    C5    A    
C2    C53   A    
Cu2   O18   S    
C53   H2    S    
C50   H46   S    
C49   H50   S    
C15   O17   A    
C52   H58   S    
C17   C22   A    
C42   H33   S    
C43   H31   S    
C32   C33   S    
C28   C30   A    
C39   H27   S    
C19   C35   S    
C44   H44   S    
C48   H52   S    
O13   S4    S    
C33   H8    S    
Cu1   O19   S    
C47   H38   S    
C18   C20   A    
Cu2   O12   S    
C19   C25   A    
C3    C11   A    
C28   H57   S    
C8    N2    A    
C31   H13   S    
C41   H36   S    
C8    H34   S    
C8    C10   A    
Cu1   O16   S    
O11   S4    D    
C37   H16   S    
C47   H39   S    
C2    C28   A    
C18   C31   S    
Cu2   O14   S    
