data_mof_unit_49246.cif
_audit_creation_date              2012-12-11T15:27:35-0500
_audit_creation_method            fapswitch 2.2
_symmetry_space_group_name_H-M    P1
_symmetry_Int_Tables_number       1
_space_group_crystal_system       triclinic
_cell_length_a                    23.114963
_cell_length_b                    7.287714
_cell_length_c                    15.134823
_cell_angle_alpha                 90.000016
_cell_angle_beta                  107.809045
_cell_angle_gamma                 90.0
_cell_volume                      2427.36912606

loop_
_atom_site_label
_atom_site_type_symbol
_atom_type_description
_atom_site_fract_x
_atom_site_fract_y
_atom_site_fract_z
_atom_type_partial_charge
O1    O     O_R   0.711000 0.648610 0.341170 -0.526358
O2    O     O_R   0.289000 0.351390 0.658830 -0.525249
O3    O     O_R   0.789000 0.148610 0.158830 -0.526358
O4    O     O_R   0.211000 0.851390 0.841170 -0.525249
O5    O     O_R   0.829650 0.322030 0.336650 -0.538230
O6    O     O_R   0.170350 0.677970 0.663350 -0.537563
O7    O     O_R   0.670350 0.822030 0.163350 -0.538230
O8    O     O_R   0.329650 0.177970 0.836650 -0.537563
C1    C     C_R   0.854329 0.485832 0.356720 0.740038
C2    C     C_R   0.145671 0.514168 0.643279 0.738453
C3    C     C_R   0.645671 0.985832 0.143280 0.740037
C4    C     C_R   0.354329 0.014168 0.856721 0.738454
O9    O     O_R   0.713950 0.319280 0.352070 -0.533106
O10   O     O_R   0.286050 0.680720 0.647930 -0.535102
O11   O     O_R   0.786050 0.819280 0.147930 -0.533106
O12   O     O_R   0.213950 0.180720 0.852070 -0.535102
O13   O     O_R   0.672470 0.142870 0.174360 -0.535932
O14   O     O_R   0.327530 0.857130 0.825640 -0.536295
O15   O     O_R   0.827530 0.642870 0.325640 -0.535932
O16   O     O_R   0.172470 0.357130 0.674360 -0.536295
C5    C     C_R   0.701859 0.486952 0.376439 0.678335
C6    C     C_R   0.298145 0.513047 0.623566 0.675713
C7    C     C_R   0.798141 0.986952 0.123561 0.678335
C8    C     C_R   0.201855 0.013047 0.876434 0.675713
O17   O     O_3   0.736530 0.478650 0.191680 -0.379879
O18   O     O_3   0.263470 0.521350 0.808320 -0.379561
O19   O     O_3   0.763470 0.978650 0.308320 -0.379879
O20   O     O_3   0.236530 0.021350 0.691680 -0.379561
V1    V     V_3+5 0.752500 0.206170 0.260820 1.509812
V2    V     V_3+5 0.247500 0.793830 0.739180 1.500872
V3    V     V_3+5 0.747500 0.706170 0.239180 1.509812
V4    V     V_3+5 0.252500 0.293830 0.760820 1.500872
C9    C     C_R   0.826511 0.987895 0.049401 -0.055359
C10   C     C_R   0.173407 0.012087 0.950503 -0.046349
C11   C     C_R   0.673488 0.487896 0.450599 -0.055359
C12   C     C_R   0.326593 0.512087 0.549497 -0.046349
C13   C     C_R   0.828381 0.856239 0.903776 -0.093574
C14   C     C_R   0.171393 0.143740 0.096044 -0.100106
C15   C     C_R   0.671619 0.356240 0.596224 -0.093574
C16   C     C_R   0.328607 0.643740 0.403956 -0.100106
C17   C     C_R   0.796378 0.904235 0.964669 -0.147477
C18   C     C_R   0.203484 0.095613 0.035291 -0.152135
C19   C     C_R   0.703622 0.404235 0.535331 -0.147477
C20   C     C_R   0.296516 0.595613 0.464709 -0.152136
C21   C     C_R   0.887674 0.036638 0.069396 -0.048454
C22   C     C_R   0.112220 0.963535 0.930334 -0.074954
C23   C     C_R   0.612326 0.536638 0.430604 -0.048453
C24   C     C_R   0.387780 0.463535 0.569666 -0.074954
C25   C     C_R   0.919916 0.001350 0.005628 0.127523
C26   C     C_R   0.079892 0.998779 0.993984 0.093587
C27   C     C_R   0.580084 0.501351 0.494372 0.127523
C28   C     C_R   0.420108 0.498779 0.506015 0.093587
C29   C     C_R   0.890733 0.893908 0.926687 0.070070
C30   C     C_R   0.109018 0.106272 0.072945 0.085513
C31   C     C_R   0.609267 0.393908 0.573313 0.070069
C32   C     C_R   0.390982 0.606272 0.427055 0.085514
C33   C     C_R   0.982274 0.048999 0.023815 -0.100793
C34   C     C_R   0.017499 0.951276 0.975640 -0.124590
C35   C     C_R   0.517726 0.548999 0.476185 -0.100792
C36   C     C_R   0.482501 0.451276 0.524360 -0.124590
C37   C     C_R   0.988437 0.812146 0.910639 0.485337
C38   C     C_R   0.011250 0.188601 0.088557 0.443800
C39   C     C_R   0.511563 0.312146 0.589361 0.485337
C40   C     C_R   0.488750 0.688600 0.411443 0.443798
C41   C     C_R   0.925198 0.804006 0.879003 -0.201917
C42   C     C_R   0.074486 0.196585 0.120391 -0.223157
C43   C     C_R   0.574802 0.304006 0.620997 -0.201917
C44   C     C_R   0.425514 0.696585 0.379609 -0.223157
H1    H     H_    0.903226 0.706339 0.825101 0.169158
H2    H     H_    0.096451 0.294218 0.174278 0.140450
H3    H     H_    0.596774 0.206340 0.674899 0.169158
H4    H     H_    0.403549 0.794218 0.325722 0.140447
H5    H     H_    0.088832 0.916265 0.861154 0.154419
H6    H     H_    0.911116 0.084338 0.138494 0.153807
H7    H     H_    0.411168 0.416265 0.638846 0.154419
H8    H     H_    0.588883 0.584338 0.361505 0.153807
H9    H     H_    0.250594 0.136805 0.050967 0.107631
H10   H     H_    0.749288 0.862917 0.949124 0.112408
H11   H     H_    0.249406 0.636805 0.449032 0.107631
H12   H     H_    0.750713 0.362917 0.550876 0.112408
H13   H     H_    0.805435 0.777483 0.842286 0.121007
H14   H     H_    0.194293 0.222503 0.157555 0.117012
H15   H     H_    0.694566 0.277483 0.657714 0.121007
H16   H     H_    0.305707 0.722503 0.342444 0.117012
C45   C     C_1   0.416806 0.006887 0.918661 -0.144447
C46   C     C_1   0.583191 0.993113 0.081345 -0.140440
C47   C     C_1   0.083193 0.506887 0.581339 -0.144447
C48   C     C_1   0.916808 0.493113 0.418655 -0.140440
C49   C     C_1   0.469159 0.002359 0.969924 0.038385
C50   C     C_1   0.530838 0.997642 0.030085 0.039401
C51   C     C_1   0.030841 0.502359 0.530076 0.038386
C52   C     C_1   0.969162 0.497642 0.469915 0.039400
S1    S     S_3+6 0.026237 0.615923 0.884545 0.002753
O21   O     O_2   0.035007 0.638102 0.790716 -0.372317
O22   O     O_2   0.086631 0.586391 0.956992 -0.324784
O23   O     O_3   0.982680 0.429682 0.881638 -0.476367
H17   H     H_    0.006804 0.325300 0.869949 0.353573
S2    S     S_3+6 0.973253 0.385373 0.113755 0.007728
O24   O     O_2   0.912666 0.413314 0.041621 -0.300151
O25   O     O_2   0.964285 0.365193 0.207605 -0.381201
O26   O     O_3   0.015922 0.573112 0.114745 -0.468222
H18   H     H_    0.040671 0.590348 0.180324 0.337284
S3    S     S_3+6 0.473763 0.115923 0.615455 0.002753
O27   O     O_2   0.464994 0.138102 0.709284 -0.372317
O28   O     O_2   0.413369 0.086391 0.543008 -0.324784
O29   O     O_3   0.517320 0.929683 0.618362 -0.476365
H19   H     H_    0.493196 0.825299 0.630051 0.353571
S4    S     S_3+6 0.526747 0.885373 0.386245 0.007730
O30   O     O_2   0.587334 0.913314 0.458379 -0.300150
O31   O     O_2   0.535715 0.865194 0.292395 -0.381200
O32   O     O_3   0.484078 0.073113 0.385255 -0.468220
H20   H     H_    0.459327 0.090343 0.319676 0.337282

loop_
_geom_bond_atom_site_label_1
_geom_bond_atom_site_label_2
_ccdc_geom_bond_type
O17   V3    S    
C25   C29   A    
O1    C5    A    
S1    O21   D    
C47   C51   T    
O19   V1    S    
C9    C21   A    
C16   H16   S    
O3    C7    A    
O32   H20   S    
C10   C18   A    
O15   V3    S    
C25   C33   A    
C33   C38   A    
O7    C3    A    
C35   C40   A    
C26   C30   A    
C4    C45   S    
C36   C39   A    
C40   C44   A    
O9    V1    S    
C23   H8    S    
C14   C18   A    
C1    C48   S    
O4    C8    A    
C37   S1    S    
O29   H19   S    
C3    C46   S    
O1    V3    S    
O13   V1    S    
S4    O30   D    
O2    V4    S    
O3    V1    S    
C28   C36   A    
C38   S2    S    
C1    O15   A    
C15   C31   A    
C48   C52   T    
C2    O16   A    
C7    C9    S    
O2    C6    A    
C10   C22   A    
C11   C19   A    
C16   C20   A    
C43   H3    S    
C44   H4    S    
C13   C29   A    
C34   C37   A    
O11   C7    A    
C11   C23   A    
C35   C36   A    
O12   C8    A    
C14   H14   S    
C24   H7    S    
C13   H13   S    
O10   V2    S    
C40   S4    S    
O5    V1    S    
C39   C43   A    
C2    C47   S    
O7    V3    S    
C38   C42   A    
O8    V4    S    
O26   H18   S    
C39   S3    S    
C46   C50   T    
C17   H10   S    
C45   C49   T    
O18   V4    S    
C23   C27   A    
C16   C32   A    
C19   H12   S    
C32   C44   A    
C8    C10   S    
C21   H6    S    
C26   C34   A    
O5    C1    A    
C31   C43   A    
C14   C30   A    
C21   C25   A    
O8    C4    A    
O23   H17   S    
O9    C5    A    
S3    O28   D    
O14   V2    S    
O6    V2    S    
S1    O23   S    
S2    O25   D    
C12   C20   A    
C27   C35   A    
C51   C52   S    
C29   C41   A    
O16   V4    S    
C3    O13   A    
C20   H11   S    
O6    C2    A    
C15   C19   A    
O11   V3    S    
C30   C42   A    
O12   V4    S    
S2    O26   S    
C6    C12   S    
C22   C26   A    
S4    O32   S    
C9    C17   A    
O10   C6    A    
O20   V2    S    
C5    C11   S    
C15   H15   S    
C33   C34   A    
C42   H2    S    
C41   H1    S    
S4    O31   D    
C12   C24   A    
S3    O29   S    
C27   C31   A    
C13   C17   A    
C37   C41   A    
C24   C28   A    
C18   H9    S    
S1    O22   D    
S2    O24   D    
C4    O14   A    
S3    O27   D    
C49   C50   S    
C22   H5    S    
O4    V2    S    
C28   C32   A    
