data_mof_unit_66038.cif
_audit_creation_date              2012-12-10T19:25:22-0500
_audit_creation_method            fapswitch 2.2
_symmetry_space_group_name_H-M    P1
_symmetry_Int_Tables_number       1
_space_group_crystal_system       triclinic
_cell_length_a                    18.803425
_cell_length_b                    18.663364
_cell_length_c                    18.770917
_cell_angle_alpha                 109.468115
_cell_angle_beta                  109.357782
_cell_angle_gamma                 109.360365
_cell_volume                      5085.14038408

loop_
_atom_site_label
_atom_site_type_symbol
_atom_type_description
_atom_site_fract_x
_atom_site_fract_y
_atom_site_fract_z
_atom_type_partial_charge
C1    C     C_R   0.880261 0.379772 0.000295 0.887596
C2    C     C_R   0.187246 0.501829 0.183604 -0.201563
C3    C     C_R   0.247326 0.481483 0.165709 -0.200768
C4    C     C_R   0.882286 0.502229 0.880452 0.925884
C5    C     C_R   0.311601 0.479150 0.228010 0.450668
C6    C     C_R   0.314018 0.496971 0.308891 -0.205601
C7    C     C_R   0.253399 0.516157 0.322979 0.077693
C8    C     C_3   0.223895 0.539468 0.387473 -0.475000
C9    C     C_3   0.154213 0.542782 0.318657 -0.428858
C10   C     C_R   0.185174 0.759956 0.005909 0.126566
C11   C     C_R   0.187390 0.685436 0.001779 -0.095735
C12   C     C_R   0.815646 0.313473 0.000983 -0.083471
C13   C     C_R   0.257017 0.675049 0.997563 -0.205714
C14   C     C_R   0.322100 0.740044 0.998194 -0.209592
C15   C     C_R   0.315698 0.813655 0.000206 -0.093118
C16   C     C_R   0.120215 0.620069 0.000282 0.872478
C17   C     C_R   0.245731 0.820522 0.003320 0.123215
C18   C     C_3   0.204328 0.876226 0.006980 -0.478450
C19   C     C_3   0.134144 0.806111 0.008994 -0.470598
C20   C     C_R   0.495559 0.379709 0.375805 0.895392
C21   C     C_R   0.616034 0.497341 0.614362 0.922945
C22   C     C_R   0.496787 0.619929 0.616885 0.874389
C23   C     C_R   0.810200 0.231039 0.978639 -0.190289
C24   C     C_R   0.378061 0.499119 0.376764 0.884964
C25   C     C_R   0.500947 0.880141 0.880259 0.872052
C26   C     C_R   0.619663 0.119634 0.999597 0.863897
C27   C     C_R   0.499283 0.120101 0.119595 0.882620
C28   C     C_R   0.119890 0.500566 0.119238 0.909997
C29   C     C_R   0.380276 0.879965 0.000187 0.882266
C30   C     C_R   0.568694 0.305548 0.328718 0.071276
C31   C     C_R   0.493933 0.312216 0.310109 -0.133764
C32   C     C_R   0.415521 0.245992 0.232690 0.144443
C33   C     C_R   0.417088 0.181364 0.170108 -0.233423
C34   C     C_R   0.745424 0.166307 0.978513 -0.201346
C35   C     C_R   0.495600 0.182017 0.185839 -0.139150
C36   C     C_R   0.569376 0.240616 0.267478 0.144561
C37   C     C_3   0.659464 0.299959 0.290682 -0.465590
C38   C     C_3   0.658580 0.371875 0.358280 -0.453571
C39   C     C_R   0.480862 0.748376 0.670515 0.091064
C40   C     C_2   0.755587 0.504187 0.678048 -0.155897
C41   C     C_R   0.496294 0.684613 0.683253 -0.080713
C42   C     C_R   0.501567 0.677833 0.756842 -0.205629
C43   C     C_R   0.503634 0.742647 0.822806 -0.213384
C44   C     C_R   0.497725 0.812083 0.813189 -0.094991
C45   C     C_R   0.684698 0.183265 0.997880 -0.071965
C46   C     C_R   0.480636 0.811049 0.734601 0.149482
C47   C     C_3   0.526062 0.881522 0.718771 -0.487721
C48   C     C_3   0.526493 0.812177 0.648066 -0.469057
C49   C     C_2   0.679405 0.488632 0.674530 -0.326256
C50   C     C_2   0.816925 0.492731 0.739449 -0.154308
C51   C     C_2   0.821713 0.510105 0.816542 -0.330612
C52   C     C_R   0.755796 0.327737 0.022236 0.018842
C53   C     C_R   0.691401 0.264207 0.018026 0.026932
C54   C     C_3   0.652827 0.319262 0.044117 0.188787
C55   C     C_3   0.726260 0.392330 0.048282 -0.016438
C56   C     C_R   0.193610 0.519994 0.263661 0.125567
H1    H     H_    0.771434 0.521731 0.633445 0.164545
H2    H     H_    0.659333 0.461279 0.711883 0.161676
H3    H     H_    0.180082 0.879670 0.946246 0.215818
H4    H     H_    0.133708 0.829775 0.071508 0.217745
H5    H     H_    0.069511 0.768676 0.949151 0.202876
H6    H     H_    0.357988 0.132626 0.108626 0.182856
H7    H     H_    0.706265 0.280298 0.319714 0.210038
H8    H     H_    0.662013 0.311708 0.237039 0.195235
H9    H     H_    0.704962 0.393833 0.426332 0.197760
H10   H     H_    0.660464 0.425401 0.343799 0.227673
H11   H     H_    0.508253 0.625161 0.764950 0.157978
H12   H     H_    0.244429 0.467275 0.103596 0.189261
H13   H     H_    0.860655 0.474022 0.723003 0.167643
H14   H     H_    0.511353 0.739540 0.881337 0.162462
H15   H     H_    0.484013 0.907029 0.692976 0.214299
H16   H     H_    0.592019 0.932514 0.774979 0.197772
H17   H     H_    0.484765 0.797720 0.581470 0.203460
H18   H     H_    0.592761 0.822768 0.663221 0.220847
H19   H     H_    0.785108 0.538432 0.836946 0.161031
H20   H     H_    0.856098 0.217155 0.962479 0.166263
H21   H     H_    0.742089 0.103452 0.962520 0.147117
H22   H     H_    0.655177 0.332273 0.107449 0.107229
H23   H     H_    0.196915 0.484999 0.399742 0.218583
H24   H     H_    0.703794 0.410477 0.997736 0.179108
H25   H     H_    0.403198 0.448179 0.250489 0.345460
H26   H     H_    0.528570 0.244640 0.980002 0.352692
H27   H     H_    0.273244 0.604419 0.446554 0.198172
H28   H     H_    0.086996 0.489810 0.290657 0.209233
H29   H     H_    0.162809 0.609545 0.338270 0.211630
H30   H     H_    0.261453 0.617849 0.994760 0.164605
H31   H     H_    0.375953 0.732259 0.995641 0.159287
H32   H     H_    0.244896 0.940248 0.068555 0.206989
I1    I     I_    0.817019 0.499738 0.178197 -0.371436
I2    I     I_    0.295427 0.244444 0.201747 -0.347355
O1    O     O_R   0.908050 0.460100 0.051390 -0.594796
O2    O     O_R   0.551950 0.908320 0.960240 -0.624340
O3    O     O_R   0.540220 0.091590 0.948580 -0.615281
O4    O     O_R   0.908730 0.356680 0.948620 -0.627366
O5    O     O_R   0.643000 0.091540 0.051310 -0.621329
O6    O     O_R   0.448050 0.091580 0.039660 -0.627007
O7    O     O_R   0.550830 0.091520 0.142390 -0.616863
O8    O     O_R   0.357000 0.908370 0.948590 -0.620556
O9    O     O_R   0.459780 0.908310 0.051320 -0.621664
O10   O     O_R   0.908630 0.551710 0.960350 -0.619343
O11   O     O_R   0.909310 0.448290 0.857570 -0.614621
O12   O     O_R   0.445680 0.356610 0.405790 -0.598020
O13   O     O_R   0.091270 0.643320 0.051380 -0.621522
O14   O     O_R   0.091950 0.539900 0.948610 -0.627926
O15   O     O_R   0.090690 0.551710 0.142430 -0.614740
O16   O     O_R   0.091370 0.448290 0.039650 -0.627258
O17   O     O_R   0.549120 0.460050 0.405790 -0.628939
O18   O     O_3   0.368074 0.457949 0.206230 -0.736841
O19   O     O_3   0.571149 0.289272 0.975814 -0.725866
O20   O     O_R   0.639540 0.551640 0.587850 -0.616365
O21   O     O_R   0.536110 0.448210 0.587860 -0.621991
O22   O     O_R   0.547900 0.643240 0.587840 -0.621997
O23   O     O_R   0.444470 0.539800 0.587850 -0.623783
O24   O     O_R   0.457480 0.551640 0.405780 -0.623208
O25   O     O_R   0.354050 0.448210 0.405780 -0.598486
O26   O     O_R   0.449170 0.908380 0.857510 -0.616753
Zn1   Zn    Zn3+2 0.999540 0.569060 0.068630 0.996767
Zn2   Zn    Zn3+2 0.000460 0.430940 0.931370 0.967836
Zn3   Zn    Zn3+2 0.565860 0.568990 0.496810 0.970925
Zn4   Zn    Zn3+2 0.427730 0.430860 0.496820 0.993916
Zn5   Zn    Zn3+2 0.431370 0.999990 0.931350 0.971352
Zn6   Zn    Zn3+2 0.568630 0.999910 0.068550 0.966507

loop_
_geom_bond_atom_site_label_1
_geom_bond_atom_site_label_2
_ccdc_geom_bond_type
O8    Zn5   S    
C24   O24   A    
C8    H27   S    
C11   C13   A    
C41   C42   A    
C3    H12   S    
C23   H20   S    
C21   C49   S    
C21   O20   A    
C7    C8    S    
C39   C41   A    
C53   C54   S    
C12   C23   A    
O7    Zn6   S    
C29   O8    A    
O11   Zn2   S    
C36   C37   S    
C50   H13   S    
C51   H19   S    
C14   H31   S    
C34   H21   S    
C30   C31   A    
C22   C41   S    
C20   O12   A    
C10   C17   A    
C40   C49   D    
C30   C38   S    
C18   C19   S    
C26   C45   S    
C37   H7    S    
C46   C47   S    
C16   O14   A    
C22   O23   A    
C32   I2    S    
C38   H10   S    
C28   O16   A    
C33   H6    S    
C13   H30   S    
C8    H23   S    
O1    Zn1   S    
C28   O15   A    
O24   Zn3   S    
C52   C55   S    
C20   O17   A    
C9    H29   S    
C26   O3    A    
H25   O18   S    
C45   C53   A    
C1    O1    A    
C13   C14   A    
O16   Zn2   S    
O15   Zn1   S    
C27   O6    A    
O13   Zn1   S    
C1    C12   S    
C7    C56   A    
C25   C44   S    
O17   Zn3   S    
C12   C52   A    
C44   C46   A    
C15   C29   S    
O14   Zn2   S    
O26   Zn5   S    
C29   O9    A    
C4    C51   S    
H26   O19   S    
C48   H18   S    
C25   O26   A    
C9    C56   S    
C8    C9    S    
C27   C35   S    
C18   H32   S    
C49   H2    S    
C54   O19   S    
O21   Zn4   S    
C35   C36   A    
C43   C44   A    
C37   C38   S    
O2    Zn6   S    
O23   Zn4   S    
C11   C16   S    
C21   O21   A    
C16   O13   A    
C47   C48   S    
C38   H9    S    
C10   C19   S    
C23   C34   A    
C6    C24   S    
C4    O11   A    
C17   C18   S    
C50   C51   D    
C34   C45   A    
C47   H15   S    
C39   C46   A    
O6    Zn5   S    
O5    Zn6   S    
C43   H14   S    
C22   O22   A    
O9    Zn6   S    
C42   H11   S    
C42   C43   A    
C37   H8    S    
O12   Zn4   S    
C52   C53   A    
C26   O5    A    
C15   C17   A    
C54   C55   S    
C27   O7    A    
C25   O2    A    
C40   H1    S    
C48   H17   S    
C31   C32   A    
O3    Zn5   S    
C3    C5    A    
O20   Zn3   S    
C1    O4    A    
O22   Zn3   S    
C6    C7    A    
C19   H4    S    
C30   C36   A    
C32   C33   A    
C4    O10   A    
C2    C3    A    
C55   I1    S    
C2    C56   A    
C55   H24   S    
O4    Zn2   S    
C5    C6    A    
C19   H5    S    
C40   C50   S    
C33   C35   A    
C47   H16   S    
C10   C11   A    
C9    H28   S    
C18   H3    S    
C24   O25   A    
O25   Zn4   S    
C14   C15   A    
C2    C28   S    
O10   Zn1   S    
C5    O18   S    
C39   C48   S    
C54   H22   S    
C20   C31   S    
