data_mof_unit_36926.cif
_audit_creation_date              2012-12-10T20:31:52-0500
_audit_creation_method            fapswitch 2.2
_symmetry_space_group_name_H-M    P1
_symmetry_Int_Tables_number       1
_space_group_crystal_system       triclinic
_cell_length_a                    9.947347
_cell_length_b                    10.873686
_cell_length_c                    15.506916
_cell_angle_alpha                 91.136444
_cell_angle_beta                  67.106819
_cell_angle_gamma                 90.249705
_cell_volume                      1544.86327441

loop_
_atom_site_label
_atom_site_type_symbol
_atom_type_description
_atom_site_fract_x
_atom_site_fract_y
_atom_site_fract_z
_atom_type_partial_charge
C1    C     C_R   0.500515 0.739580 0.499480 0.934986
C2    C     C_R   0.441205 0.502058 0.902536 -0.012406
C3    C     C_R   0.400514 0.628370 0.921490 -0.211067
C4    C     C_R   0.509254 0.445833 0.957515 -0.041441
C5    C     C_R   0.559041 0.521457 0.014503 -0.123628
C6    C     C_R   0.555174 0.650174 0.007184 0.599901
C7    C     C_R   0.463925 0.702441 0.969781 0.609454
C8    C     C_R   0.522557 0.317504 0.962258 -0.143020
C9    C     C_R   0.609325 0.267568 0.004638 0.685309
C10   C     C_R   0.659909 0.342928 0.060441 -0.081581
C11   C     C_R   0.609690 0.465868 0.078131 0.026781
C12   C     C_R   0.408150 0.497844 0.675621 0.949568
C13   C     C_R   0.744472 0.296083 0.107371 -0.095067
C14   C     C_R   0.743831 0.359807 0.187741 -0.094539
C15   C     C_R   0.591445 0.521287 0.165471 -0.046186
C16   C     C_R   0.405214 0.935360 0.468892 -0.009621
C17   C     C_R   0.506492 0.870864 0.492254 -0.037470
C18   C     C_R   0.619823 0.936804 0.504446 -0.143692
C19   C     C_R   0.619003 0.064772 0.504195 -0.157812
C20   C     C_R   0.506505 0.128317 0.489803 -0.084231
C21   C     C_R   0.408299 0.060354 0.463425 0.106890
C22   C     C_3   0.251298 0.065672 0.472858 0.387954
C23   C     C_R   0.500596 0.260226 0.498272 0.954493
C24   C     C_3   0.247201 0.924040 0.483471 -0.404061
C25   C     C_R   0.891631 0.571981 0.562133 0.179997
C26   C     C_R   0.967967 0.443404 0.430736 -0.093825
C27   C     C_R   0.111927 0.443853 0.428939 -0.008600
C28   C     C_R   0.030763 0.568575 0.564649 0.161221
C29   C     C_3   0.964308 0.574463 0.670836 0.482344
C30   C     C_3   0.814598 0.579708 0.665477 -0.575007
C31   C     C_R   0.592508 0.493878 0.323918 0.913901
C32   C     C_R   0.351536 0.510778 0.777132 -0.241690
C33   C     C_R   0.652084 0.463933 0.222677 -0.208597
C34   C     C_R   0.307459 0.681704 0.884713 -0.137781
C35   C     C_R   0.278620 0.620718 0.814815 0.632434
C36   C     C_R   0.420734 0.443624 0.825302 -0.113039
H1    H     H_    0.704564 0.890519 0.519165 0.197987
H2    H     H_    0.702700 0.113305 0.519556 0.196352
H3    H     H_    0.943984 0.394551 0.377258 0.193128
H4    H     H_    0.745841 0.498201 0.693947 0.215594
H5    H     H_    0.757593 0.669392 0.689206 0.260504
H6    H     H_    0.267497 0.774985 0.903831 0.231929
H7    H     H_    0.465749 0.253677 0.934420 0.193843
N1    N     N_R   0.856900 0.500860 0.500610 -0.121525
N2    N     N_R   0.142540 0.500820 0.500610 -0.154809
O1    O     O_R   0.385310 0.683210 0.499990 -0.605636
O2    O     O_R   0.614650 0.683240 0.500000 -0.619543
O3    O     O_R   0.319830 0.499970 0.632240 -0.529770
O4    O     O_R   0.549170 0.500000 0.632250 -0.641890
O5    O     O_R   0.385350 0.316760 0.500000 -0.571128
O6    O     O_R   0.614690 0.316790 0.500010 -0.620030
O7    O     O_R   0.450830 0.500000 0.367750 -0.618102
O8    O     O_R   0.680170 0.500030 0.367760 -0.606741
Zn1   Zn    Zn3+2 0.346870 0.499980 0.499990 1.079430
Zn2   Zn    Zn3+2 0.653130 0.500020 0.500010 1.006866
F1    F     F_    0.445471 0.826529 0.975308 -0.570185
C37   C     C_2   0.834560 0.182930 0.071857 1.064332
O9    O     O_2   0.907575 0.169877 0.988036 -0.533325
O10   O     O_R   0.835554 0.091498 0.133736 -0.724849
H8    H     H_    0.900994 0.019462 0.100822 0.378163
C38   C     C_2   0.147502 0.138286 0.555588 0.952445
O11   O     O_2   0.163425 0.139706 0.629868 -0.611566
O12   O     O_R   0.027600 0.196549 0.548101 -0.760758
H9    H     H_    0.957224 0.232759 0.609736 0.367064
F2    F     F_    0.239518 0.098952 0.390489 -0.575020
C39   C     C_2   0.148688 0.884355 0.580870 0.987801
O13   O     O_2   0.017120 0.876871 0.601405 -0.535458
O14   O     O_R   0.204989 0.873079 0.650123 -0.709656
H10   H     H_    0.125772 0.871715 0.715406 0.438774
C40   C     C_2   0.224725 0.853433 0.404776 1.067028
O15   O     O_2   0.300850 0.876027 0.323383 -0.496530
O16   O     O_R   0.113938 0.765998 0.424680 -0.813048
H11   H     H_    0.107006 0.727775 0.366462 0.336698
C41   C     C_2   0.222454 0.380181 0.347124 1.021942
O17   O     O_2   0.314692 0.314575 0.356002 -0.530716
O18   O     O_R   0.216300 0.390392 0.258984 -0.742638
H12   H     H_    0.296579 0.342169 0.208346 0.362801
C42   C     C_2   0.977790 0.467649 0.727052 0.932913
O19   O     O_2   0.899960 0.465036 0.810518 -0.558043
O20   O     O_R   0.079993 0.375033 0.686920 -0.784137
H13   H     H_    0.085768 0.317505 0.736034 0.399601
C43   C     C_2   0.488461 0.625900 0.204604 1.007916
O21   O     O_2   0.523138 0.713051 0.242460 -0.539086
O22   O     O_R   0.352956 0.624153 0.196905 -0.802184
H14   H     H_    0.297709 0.704361 0.216997 0.375357
F3    F     F_    0.994570 0.683181 0.706342 -0.570249
C44   C     C_2   0.834046 0.313764 0.236459 0.964999
O23   O     O_2   0.961719 0.344826 0.210043 -0.575058
O24   O     O_R   0.775445 0.230384 0.308823 -0.763215
H15   H     H_    0.849552 0.201803 0.334212 0.353940
F4    F     F_    0.625744 0.143419 0.001122 -0.571199
F5    F     F_    0.205798 0.681401 0.770952 -0.603211
C45   C     C_2   0.491800 0.325233 0.780544 0.907278
O25   O     O_2   0.619755 0.305046 0.765970 -0.620254
O26   O     O_R   0.413028 0.239935 0.750318 -0.766778
H16   H     H_    0.473093 0.164652 0.718688 0.359805
F6    F     F_    0.637192 0.725464 0.037997 -0.569025

loop_
_geom_bond_atom_site_label_1
_geom_bond_atom_site_label_2
_ccdc_geom_bond_type
C8    C9    A    
C39   O14   S    
C44   O23   D    
C16   C21   A    
O26   H16   S    
C34   H6    S    
C8    H7    S    
C31   O7    A    
C4    C8    A    
C9    F4    S    
C14   C33   A    
C12   O4    A    
C24   C40   S    
C25   C28   A    
O3    Zn1   S    
C26   C27   A    
O5    Zn1   S    
C41   O18   S    
C32   C36   A    
C28   C29   S    
C18   H1    S    
C14   C44   S    
C5    C11   A    
C3    C7    A    
C5    C6    A    
O20   H13   S    
C42   O20   S    
C1    O1    A    
C37   O10   S    
C13   C37   S    
C34   C35   A    
C38   O12   S    
C11   C15   A    
C36   C45   S    
C29   C42   S    
C19   C20   A    
O14   H10   S    
C31   C33   S    
C30   H5    S    
C40   O15   D    
C27   C41   S    
C9    C10   A    
C24   C39   S    
C35   F5    S    
C27   N2    A    
C39   O13   D    
O10   H8    S    
C45   O26   S    
C21   C22   S    
C12   C32   S    
C7    F1    S    
C25   N1    A    
O7    Zn1   S    
C15   C43   S    
O18   H12   S    
O8    Zn2   S    
C28   N2    A    
C41   O17   D    
C26   N1    A    
C32   C35   A    
O22   H14   S    
C42   O19   D    
C18   C19   A    
C23   O5    A    
C3    C34   A    
O4    Zn2   S    
C2    C4    A    
C6    F6    S    
C22   F2    S    
C29   C30   S    
C19   H2    S    
C23   O6    A    
C20   C23   S    
O1    Zn1   S    
C17   C18   A    
C30   H4    S    
C45   O25   D    
C31   O8    A    
C29   F3    S    
N2    Zn1   S    
C43   O22   S    
C44   O24   S    
C22   C24   S    
O2    Zn2   S    
C2    C36   A    
C25   C30   S    
C1    O2    A    
O16   H11   S    
C10   C13   A    
C6    C7    A    
C1    C17   S    
C2    C3    A    
C22   C38   S    
N1    Zn2   S    
C37   O9    D    
C16   C17   A    
C12   O3    A    
O6    Zn2   S    
C38   O11   D    
C26   H3    S    
C10   C11   A    
O12   H9    S    
C4    C5    A    
C20   C21   A    
C16   C24   S    
C43   O21   D    
C40   O16   S    
O24   H15   S    
C13   C14   A    
C15   C33   A    
