data_mof_unit_13404.cif
_audit_creation_date              2012-12-10T18:05:57-0500
_audit_creation_method            fapswitch 2.2
_symmetry_space_group_name_H-M    P1
_symmetry_Int_Tables_number       1
_space_group_crystal_system       triclinic
_cell_length_a                    12.588779
_cell_length_b                    13.137995
_cell_length_c                    14.994028
_cell_angle_alpha                 90.512869
_cell_angle_beta                  102.61605
_cell_angle_gamma                 82.326881
_cell_volume                      2397.81410279

loop_
_atom_site_label
_atom_site_type_symbol
_atom_type_description
_atom_site_fract_x
_atom_site_fract_y
_atom_site_fract_z
_atom_type_partial_charge
C1    C     C_R   0.438752 0.691183 0.485885 0.854495
C2    C     C_R   0.399040 0.499801 0.074580 0.017229
C3    C     C_R   0.699533 0.479266 0.082925 -0.222793
C4    C     C_R   0.699559 0.479916 0.990354 -0.215710
C5    C     C_R   0.600069 0.487370 0.925565 0.146265
C6    C     C_R   0.499069 0.492435 0.953273 0.015190
C7    C     C_R   0.398072 0.499216 0.888196 -0.014666
C8    C     C_R   0.297803 0.502375 0.917460 0.431685
C9    C     C_R   0.299554 0.505212 0.010476 -0.221230
C10   C     C_R   0.600034 0.490309 0.833357 -0.253011
C11   C     C_R   0.500627 0.499800 0.769182 -0.072055
C12   C     C_R   0.500351 0.500657 0.673073 0.890226
C13   C     C_R   0.400432 0.505889 0.796185 -0.243798
C14   C     C_R   0.702230 0.064249 0.436013 -0.197189
C15   C     C_R   0.596767 0.200153 0.501611 -0.048570
C16   C     C_R   0.299703 0.838169 0.498699 -0.189826
C17   C     C_R   0.271117 0.942941 0.507025 -0.144748
C18   C     C_R   0.344817 0.010232 0.498214 -0.190200
C19   C     C_R   0.447036 0.973480 0.476279 0.085421
C20   C     C_R   0.467517 0.869537 0.453788 0.083112
C21   C     C_R   0.529671 0.036321 0.475896 0.077725
C22   C     C_R   0.622299 0.000183 0.439155 0.173150
C23   C     C_R   0.561117 0.308756 0.509342 0.865590
C24   C     C_R   0.632625 0.901470 0.404736 -0.249767
C25   C     C_R   0.556211 0.836751 0.411899 -0.196573
C26   C     C_R   0.523500 0.133808 0.512745 -0.254820
C27   C     C_R   0.688421 0.165009 0.465693 -0.202507
C28   C     C_R   0.399418 0.800754 0.475170 -0.112305
C29   C     C_R   0.087674 0.346364 0.373620 -0.310868
C30   C     C_R   0.799848 0.630053 0.608151 0.016447
C31   C     C_R   0.904696 0.658304 0.630476 -0.225949
C32   C     C_R   0.986188 0.609003 0.589635 -0.185661
C33   C     C_R   0.962858 0.530555 0.525983 0.010276
C34   C     C_R   0.499622 0.499146 0.326951 0.868557
C35   C     C_R   0.854703 0.504279 0.506039 0.241023
C36   C     C_R   0.041918 0.477398 0.481446 -0.011836
C37   C     C_R   0.011251 0.399466 0.418300 0.200561
C38   C     C_R   0.904763 0.374925 0.400517 -0.307496
C39   C     C_R   0.827963 0.426424 0.444044 -0.223225
C40   C     C_R   0.150921 0.498006 0.496795 -0.055686
C41   C     C_R   0.193945 0.370493 0.391899 0.006513
C42   C     C_R   0.399758 0.501573 0.167057 -0.226574
C43   C     C_R   0.499444 0.496310 0.230948 -0.064495
C44   C     C_R   0.599281 0.488171 0.203218 -0.266204
C45   C     C_R   0.599986 0.486270 0.111069 0.140427
C46   C     C_R   0.499343 0.492329 0.046240 0.060270
H1    H     H_    0.322670 0.508050 0.189166 0.161352
H2    H     H_    0.700804 0.873607 0.373692 0.151510
H3    H     H_    0.772696 0.037783 0.407326 0.136206
H4    H     H_    0.459280 0.161959 0.547589 0.150283
H5    H     H_    0.245485 0.786251 0.513535 0.152142
H6    H     H_    0.318518 0.090632 0.506613 0.135581
H7    H     H_    0.193596 0.971786 0.524247 0.143796
H8    H     H_    0.566605 0.761155 0.383233 0.174335
H9    H     H_    0.254508 0.330043 0.358390 0.138334
H10   H     H_    0.880588 0.315375 0.352750 0.152568
H11   H     H_    0.065493 0.286751 0.325369 0.145692
H12   H     H_    0.676504 0.483204 0.253182 0.163641
H13   H     H_    0.182050 0.555219 0.543509 0.122802
H14   H     H_    0.736033 0.668271 0.639422 0.143755
H15   H     H_    0.066028 0.633916 0.609209 0.139271
H16   H     H_    0.922746 0.718361 0.679148 0.157872
H17   H     H_    0.748043 0.403435 0.427849 0.210152
H18   H     H_    0.777058 0.474218 0.132437 0.150753
H19   H     H_    0.777154 0.475437 0.969393 0.152954
H20   H     H_    0.677286 0.485122 0.811628 0.162712
H21   H     H_    0.324772 0.517918 0.744684 0.165792
H22   H     H_    0.222672 0.509632 0.032668 0.170711
H23   H     H_    0.745803 0.216302 0.456382 0.149796
N1    N     N_R   0.222190 0.444670 0.452360 -0.102819
N2    N     N_R   0.776970 0.554790 0.547140 -0.133101
O1    O     O_R   0.366740 0.627160 0.477250 -0.616295
O2    O     O_R   0.544830 0.662520 0.507680 -0.617997
O3    O     O_R   0.410940 0.482340 0.616930 -0.625861
O4    O     O_R   0.589030 0.517700 0.647360 -0.620695
O5    O     O_R   0.455170 0.337480 0.492320 -0.614664
O6    O     O_R   0.633260 0.372840 0.522750 -0.634556
O7    O     O_R   0.410970 0.482300 0.352640 -0.620668
O8    O     O_R   0.589060 0.517660 0.383070 -0.648141
Zn1   Zn    Zn3+2 0.381090 0.476390 0.479680 0.939021
Zn2   Zn    Zn3+2 0.618910 0.523610 0.520320 0.929898
O9    O     O_3   0.196903 0.503313 0.858336 -0.770071
H24   H     H_    0.206601 0.460019 0.805627 0.327540

loop_
_geom_bond_atom_site_label_1
_geom_bond_atom_site_label_2
_ccdc_geom_bond_type
C16   C28   A    
C21   C26   A    
C12   O3    A    
C19   C20   A    
C16   H5    S    
C23   O5    A    
C30   N2    A    
C18   H6    S    
C7    C8    A    
C45   C46   A    
C2    C46   A    
C40   N1    A    
C8    O9    S    
C36   C37   A    
C19   C21   A    
C32   H15   S    
C26   H4    S    
C5    C6    A    
O7    Zn1   S    
C14   H3    S    
C16   C17   A    
C20   C25   A    
C33   C36   A    
C18   C19   A    
C41   H9    S    
C44   H12   S    
C8    C9    A    
C30   H14   S    
C1    C28   S    
C24   C25   A    
C14   C27   A    
C27   H23   S    
C15   C23   S    
C35   N2    A    
C40   H13   S    
O3    Zn1   S    
C21   C22   A    
C31   H16   S    
O2    Zn2   S    
C10   H20   S    
C38   C39   A    
C1    O1    A    
N1    Zn1   S    
C24   H2    S    
C36   C40   A    
C25   H8    S    
O8    Zn2   S    
O4    Zn2   S    
C15   C26   A    
C20   C28   A    
C3    H18   S    
C3    C45   A    
C35   C39   A    
C43   C44   A    
C37   C38   A    
C34   O8    A    
C15   C27   A    
C31   C32   A    
O6    Zn2   S    
C30   C31   A    
C17   C18   A    
C23   O6    A    
C29   H11   S    
C22   C24   A    
C42   C43   A    
C3    C4    A    
C17   H7    S    
C44   C45   A    
C13   H21   S    
C6    C46   A    
C29   C41   A    
C34   C43   S    
O5    Zn1   S    
C4    C5    A    
C11   C12   S    
C6    C7    A    
C39   H17   S    
C1    O2    A    
C32   C33   A    
C14   C22   A    
C9    H22   S    
C5    C10   A    
O1    Zn1   S    
C34   O7    A    
C11   C13   A    
C4    H19   S    
C2    C42   A    
C33   C35   A    
C42   H1    S    
C10   C11   A    
C7    C13   A    
C38   H10   S    
O9    H24   S    
C12   O4    A    
C29   C37   A    
C2    C9    A    
C41   N1    A    
N2    Zn2   S    
