data_mof_unit_26781.cif
_audit_creation_date              2013-03-05T15:51:40-0500
_audit_creation_method            fapswitch 2.2
_symmetry_space_group_name_H-M    P1
_symmetry_Int_Tables_number       1
_space_group_crystal_system       triclinic
_cell_length_a                    30.463567
_cell_length_b                    22.772619
_cell_length_c                    18.054695
_cell_angle_alpha                 89.992136
_cell_angle_beta                  122.479933
_cell_angle_gamma                 90.000819
_cell_volume                      10565.9838169

loop_
_atom_site_label
_atom_site_type_symbol
_atom_site_description
_atom_site_fract_x
_atom_site_fract_y
_atom_site_fract_z
_atom_type_partial_charge
C1    C     C_R   0.539798 0.588392 0.734482 -0.109655
C2    C     C_R   0.457993 0.417405 0.260115 -0.123757
C3    C     C_R   0.460159 0.588300 0.265402 -0.109148
C4    C     C_R   0.542020 0.417432 0.739925 -0.123129
C5    C     C_R   0.039771 0.088445 0.734419 -0.109881
C6    C     C_R   0.957987 0.917417 0.260100 -0.123457
C7    C     C_R   0.960169 0.088318 0.265426 -0.109229
C8    C     C_R   0.042020 0.917433 0.739927 -0.122993
H1    H     H_    0.512732 0.589868 0.755733 0.090526
H2    H     H_    0.484129 0.418999 0.236905 0.086856
H3    H     H_    0.487217 0.589743 0.244132 0.090435
H4    H     H_    0.515884 0.419036 0.763133 0.086787
H5    H     H_    0.012698 0.089944 0.755653 0.090564
H6    H     H_    0.984120 0.919018 0.236886 0.086828
H7    H     H_    0.987228 0.089766 0.244160 0.090450
H8    H     H_    0.015884 0.919037 0.763135 0.086775
N1    N     N_R   0.532910 0.558440 0.665240 -0.042946
N2    N     N_R   0.467090 0.441560 0.334760 -0.041460
N3    N     N_R   0.467090 0.558440 0.334760 -0.042948
N4    N     N_R   0.532910 0.441560 0.665240 -0.041514
N5    N     N_R   0.032910 0.058440 0.665240 -0.042942
N6    N     N_R   0.967090 0.941560 0.334760 -0.041493
N7    N     N_R   0.967090 0.058440 0.334760 -0.042949
N8    N     N_R   0.032910 0.941560 0.665240 -0.041522
C9    C     C_R   0.642288 0.585344 0.569153 0.173901
C10   C     C_R   0.369483 0.396197 0.428385 0.171070
C11   C     C_R   0.357699 0.585322 0.430836 0.173768
C12   C     C_R   0.630518 0.396189 0.571622 0.170926
C13   C     C_R   0.142279 0.085368 0.569155 0.173995
C14   C     C_R   0.869480 0.896199 0.428392 0.170978
C15   C     C_R   0.857699 0.085322 0.430835 0.173808
C16   C     C_R   0.130513 0.896182 0.571617 0.170870
N9    N     N_R   0.597030 0.558910 0.545540 -0.059738
N10   N     N_R   0.402970 0.441090 0.454460 -0.065665
N11   N     N_R   0.402970 0.558910 0.454460 -0.059731
N12   N     N_R   0.597030 0.441090 0.545540 -0.065665
N13   N     N_R   0.097030 0.058910 0.545540 -0.059738
N14   N     N_R   0.902970 0.941090 0.454460 -0.065661
N15   N     N_R   0.902970 0.058910 0.454460 -0.059724
N16   N     N_R   0.097030 0.941090 0.545540 -0.065663
C17   C     C_R   0.590789 0.587489 0.422511 -0.153624
C18   C     C_R   0.424551 0.391213 0.574529 -0.156351
C19   C     C_R   0.409186 0.587436 0.577479 -0.153754
C20   C     C_R   0.575473 0.391237 0.425475 -0.156386
C21   C     C_R   0.090777 0.087521 0.422514 -0.153625
C22   C     C_R   0.924537 0.891228 0.574539 -0.156336
C23   C     C_R   0.909187 0.087440 0.577477 -0.153780
C24   C     C_R   0.075469 0.891236 0.425470 -0.156391
H9    H     H_    0.578402 0.588643 0.354079 0.109641
H10   H     H_    0.444970 0.377390 0.642101 0.118555
H11   H     H_    0.421569 0.588567 0.645909 0.109611
H12   H     H_    0.555074 0.377429 0.357904 0.118464
H13   H     H_    0.078393 0.088682 0.354083 0.109633
H14   H     H_    0.944948 0.877412 0.642114 0.118581
H15   H     H_    0.921566 0.088570 0.645905 0.109596
H16   H     H_    0.055066 0.877429 0.357898 0.118539
N17   N     N_R   0.566200 0.559270 0.454460 -0.046301
N18   N     N_R   0.433800 0.440730 0.545540 -0.054079
N19   N     N_R   0.433800 0.559270 0.545540 -0.046261
N20   N     N_R   0.566200 0.440730 0.454460 -0.054057
N21   N     N_R   0.066200 0.059270 0.454460 -0.046310
N22   N     N_R   0.933800 0.940730 0.545540 -0.054079
N23   N     N_R   0.933800 0.059270 0.545540 -0.046252
N24   N     N_R   0.066200 0.940730 0.454460 -0.054076
C25   C     C_R   0.385897 0.588592 0.262510 -0.070444
C26   C     C_R   0.615618 0.416434 0.741471 -0.073095
C27   C     C_R   0.614064 0.588707 0.737373 -0.070313
C28   C     C_R   0.384393 0.416388 0.258581 -0.072526
C29   C     C_R   0.885906 0.088618 0.262534 -0.070411
C30   C     C_R   0.115619 0.916441 0.741476 -0.073203
C31   C     C_R   0.114043 0.088769 0.737321 -0.070187
C32   C     C_R   0.884389 0.916407 0.258565 -0.072844
H17   H     H_    0.344539 0.588708 0.233193 0.096314
H18   H     H_    0.656926 0.418576 0.769736 0.091550
H19   H     H_    0.655419 0.588908 0.766662 0.096508
H20   H     H_    0.343087 0.418463 0.230372 0.091836
H21   H     H_    0.844549 0.088755 0.233225 0.096354
H22   H     H_    0.156927 0.918596 0.769751 0.091519
H23   H     H_    0.155397 0.089018 0.766599 0.096612
H24   H     H_    0.843082 0.918512 0.230329 0.091709
N25   N     N_R   0.421050 0.559750 0.334770 -0.052254
N26   N     N_R   0.578950 0.440250 0.665230 -0.051751
N27   N     N_R   0.578950 0.559750 0.665230 -0.052315
N28   N     N_R   0.421050 0.440250 0.334770 -0.051830
N29   N     N_R   0.921050 0.059750 0.334770 -0.052263
N30   N     N_R   0.078950 0.940250 0.665230 -0.051741
N31   N     N_R   0.078950 0.059750 0.665230 -0.052345
N32   N     N_R   0.921050 0.940250 0.334770 -0.051795
C33   C     C_R   0.589936 0.609018 0.778972 0.130269
C34   C     C_R   0.407090 0.399848 0.213043 0.134923
C35   C     C_R   0.409990 0.608843 0.220826 0.130142
C36   C     C_R   0.592937 0.399915 0.787037 0.135019
C37   C     C_R   0.089893 0.109115 0.778869 0.130248
C38   C     C_R   0.907078 0.899875 0.213017 0.135002
C39   C     C_R   0.910007 0.108880 0.220867 0.130158
C40   C     C_R   0.092939 0.899922 0.787043 0.135032
C41   C     C_R   0.638044 0.605047 0.492571 0.018007
C42   C     C_R   0.385917 0.360665 0.502256 0.024432
C43   C     C_R   0.361920 0.604966 0.507417 0.017987
C44   C     C_R   0.614110 0.360688 0.497750 0.024489
C45   C     C_R   0.138022 0.105108 0.492577 0.018069
C46   C     C_R   0.885899 0.860685 0.502271 0.024442
C47   C     C_R   0.861923 0.104974 0.507413 0.017989
C48   C     C_R   0.114102 0.860684 0.497741 0.024514
Ni1   Ni    Ni4+2 0.483090 0.500000 0.604440 0.211248
Ni2   Ni    Ni4+2 0.516910 0.500000 0.395560 0.211256
Ni3   Ni    Ni4+2 0.983090 0.000000 0.604440 0.211255
Ni4   Ni    Ni4+2 0.016910 1.000000 0.395560 0.211247
Ni5   Ni    Ni4+2 0.586780 0.500000 0.604440 0.208980
Ni6   Ni    Ni4+2 0.413220 0.500000 0.395560 0.208979
Ni7   Ni    Ni4+2 0.086780 0.000000 0.604440 0.208988
Ni8   Ni    Ni4+2 0.913220 1.000000 0.395560 0.208983
C49   C     C_R   0.274474 0.718698 0.505462 0.129396
C50   C     C_R   0.690288 0.221339 0.578082 0.126307
C51   C     C_R   0.725640 0.718731 0.494855 0.129398
C52   C     C_R   0.309620 0.221415 0.421849 0.126352
C53   C     C_R   0.774442 0.218695 0.505361 0.129383
C54   C     C_R   0.190252 0.721316 0.578052 0.126261
C55   C     C_R   0.225769 0.218752 0.495209 0.129339
C56   C     C_R   0.809684 0.721381 0.421912 0.126326
C57   C     C_R   0.314913 0.691651 0.504005 -0.208001
C58   C     C_R   0.658109 0.267364 0.571220 -0.188393
C59   C     C_R   0.685161 0.691708 0.496228 -0.207808
C60   C     C_R   0.341800 0.267424 0.428671 -0.188165
C61   C     C_R   0.814889 0.191653 0.503926 -0.207948
C62   C     C_R   0.158069 0.767339 0.571181 -0.188412
C63   C     C_R   0.185257 0.191750 0.496510 -0.207800
C64   C     C_R   0.841860 0.767403 0.428759 -0.188259
H25   H     H_    0.340485 0.717333 0.492023 0.151787
H26   H     H_    0.656703 0.279342 0.627617 0.188624
H27   H     H_    0.659641 0.717390 0.508328 0.151878
H28   H     H_    0.343110 0.279469 0.372201 0.188755
H29   H     H_    0.840446 0.217332 0.491906 0.151787
H30   H     H_    0.156641 0.779304 0.627564 0.188618
H31   H     H_    0.159796 0.217431 0.508753 0.151949
H32   H     H_    0.843231 0.779415 0.372335 0.188692
C65   C     C_R   0.322187 0.631467 0.516112 0.101780
C66   C     C_R   0.632512 0.301777 0.495072 0.097280
C67   C     C_R   0.677782 0.631549 0.483884 0.101796
C68   C     C_R   0.367540 0.301724 0.504911 0.097204
C69   C     C_R   0.822188 0.131476 0.516101 0.101790
C70   C     C_R   0.132502 0.801774 0.495052 0.097268
C71   C     C_R   0.177769 0.131612 0.483908 0.101806
C72   C     C_R   0.867510 0.801762 0.504944 0.097229
C73   C     C_R   0.289959 0.596694 0.531098 -0.206281
C74   C     C_R   0.627515 0.280813 0.417987 -0.159754
C75   C     C_R   0.709940 0.596781 0.468733 -0.206343
C76   C     C_R   0.372716 0.280601 0.582080 -0.159325
C77   C     C_R   0.789979 0.096707 0.531137 -0.206291
C78   C     C_R   0.127540 0.780839 0.417980 -0.159659
C79   C     C_R   0.209855 0.096848 0.468578 -0.206383
C80   C     C_R   0.872578 0.780724 0.582063 -0.159422
H33   H     H_    0.295929 0.549678 0.540132 0.124099
H34   H     H_    0.605786 0.304637 0.356737 0.121483
H35   H     H_    0.703895 0.549783 0.459527 0.124162
H36   H     H_    0.394583 0.304305 0.643411 0.121564
H37   H     H_    0.795967 0.049695 0.540219 0.124114
H38   H     H_    0.105837 0.804686 0.356744 0.121492
H39   H     H_    0.203732 0.049866 0.459185 0.124185
H40   H     H_    0.894359 0.804494 0.643346 0.121549
C81   C     C_R   0.247563 0.622154 0.527689 -0.201025
C82   C     C_R   0.656376 0.232530 0.422014 -0.201364
C83   C     C_R   0.752369 0.622206 0.472210 -0.201082
C84   C     C_R   0.343859 0.232315 0.578079 -0.201434
C85   C     C_R   0.747579 0.122161 0.527719 -0.201044
C86   C     C_R   0.156406 0.732561 0.422011 -0.201287
C87   C     C_R   0.252309 0.122242 0.472103 -0.201068
C88   C     C_R   0.843719 0.732437 0.578045 -0.201332
H41   H     H_    0.720702 0.094641 0.533883 0.132688
H42   H     H_    0.157034 0.720914 0.364369 0.137546
H43   H     H_    0.279077 0.094701 0.465673 0.132638
H44   H     H_    0.843170 0.720716 0.635742 0.137561
H45   H     H_    0.220669 0.594633 0.533806 0.132714
H46   H     H_    0.656977 0.220861 0.364355 0.137550
H47   H     H_    0.779203 0.594674 0.465948 0.132678
H48   H     H_    0.343394 0.220536 0.635838 0.137555
C89   C     C_R   0.239124 0.682664 0.513677 0.066126
C90   C     C_R   0.692441 0.207894 0.503858 0.063255
C91   C     C_R   0.760912 0.682688 0.486449 0.066221
C92   C     C_R   0.307617 0.207856 0.496196 0.063269
C93   C     C_R   0.739116 0.182664 0.513645 0.066171
C94   C     C_R   0.192439 0.707897 0.503853 0.063251
C95   C     C_R   0.260956 0.182699 0.486579 0.066231
C96   C     C_R   0.807588 0.707881 0.496181 0.063224
C97   C     C_R   0.381907 0.639259 0.137449 -0.023365
C98   C     C_R   0.621466 0.373184 0.873310 -0.031036
C99   C     C_R   0.617974 0.639521 0.862261 -0.023266
C100  C     C_R   0.378613 0.373044 0.126834 -0.031155
C101  C     C_R   0.881936 0.139315 0.137508 -0.023324
C102  C     C_R   0.121474 0.873201 0.873323 -0.031052
C103  C     C_R   0.117894 0.139691 0.862096 -0.023174
C104  C     C_R   0.878572 0.873114 0.126776 -0.031080
C105  C     C_R   0.318476 0.617228 0.986574 -0.194210
C106  C     C_R   0.681517 0.396057 0.025437 -0.189316
C107  C     C_R   0.681192 0.617626 0.013289 -0.194305
C108  C     C_R   0.319026 0.395695 0.974439 -0.189322
C109  C     C_R   0.818554 0.117318 0.986604 -0.194248
C110  C     C_R   0.181569 0.896095 0.025433 -0.189295
C111  C     C_R   0.180967 0.117914 0.013232 -0.194379
C112  C     C_R   0.818758 0.895886 0.974513 -0.189322
C113  C     C_R   0.366551 0.606468 0.062088 -0.225330
C114  C     C_R   0.635797 0.408278 0.946199 -0.231728
C115  C     C_R   0.633167 0.606866 0.937681 -0.225333
C116  C     C_R   0.364604 0.407952 0.053883 -0.231532
C117  C     C_R   0.866617 0.106556 0.062140 -0.225358
C118  C     C_R   0.135838 0.908316 0.946208 -0.231734
C119  C     C_R   0.132978 0.107139 0.937562 -0.225280
C120  C     C_R   0.864405 0.908118 0.053856 -0.231633
C121  C     C_R   0.354776 0.690131 0.134198 0.268960
C122  C     C_R   0.647314 0.320246 0.881482 0.283398
C123  C     C_R   0.645197 0.690300 0.865487 0.268907
C124  C     C_R   0.352612 0.320223 0.118626 0.283419
C125  C     C_R   0.854788 0.190169 0.134254 0.268971
C126  C     C_R   0.147304 0.820248 0.881493 0.283415
C127  C     C_R   0.145174 0.190409 0.865292 0.268898
C128  C     C_R   0.852644 0.820237 0.118585 0.283441
C129  C     C_R   0.307118 0.703835 0.055420 -0.094397
C130  C     C_R   0.692756 0.305827 0.963315 -0.100418
C131  C     C_R   0.692807 0.704008 0.944334 -0.094323
C132  C     C_R   0.307348 0.305746 0.036606 -0.100316
C133  C     C_R   0.807143 0.203877 0.055460 -0.094377
C134  C     C_R   0.192759 0.805830 0.963314 -0.100418
C135  C     C_R   0.192758 0.204126 0.944174 -0.094358
C136  C     C_R   0.807293 0.805794 0.036657 -0.100361
C137  C     C_R   0.287075 0.662429 0.985619 0.148994
C138  C     C_R   0.712085 0.348037 0.031855 0.153983
C139  C     C_R   0.712702 0.662695 0.014256 0.148975
C140  C     C_R   0.288294 0.347814 0.967899 0.153995
C141  C     C_R   0.787130 0.162492 0.985640 0.148962
C142  C     C_R   0.212117 0.848055 0.031841 0.153978
C143  C     C_R   0.212553 0.162890 0.014192 0.148960
C144  C     C_R   0.788107 0.847936 0.968031 0.153996
C145  C     C_R   0.276110 0.753553 0.046098 0.081784
C146  C     C_R   0.723081 0.254870 0.976023 0.086520
C147  C     C_R   0.723910 0.753628 0.953654 0.081811
C148  C     C_R   0.276902 0.254903 0.023836 0.086702
C149  C     C_R   0.776116 0.253575 0.046132 0.081807
C150  C     C_R   0.223067 0.754857 0.976015 0.086499
C151  C     C_R   0.223936 0.253666 0.953466 0.081790
C152  C     C_R   0.776906 0.754893 0.023912 0.086602
C153  C     C_R   0.702225 0.205339 0.920891 -0.089183
C154  C     C_R   0.296406 0.802524 0.102757 -0.094233
C155  C     C_R   0.297574 0.205445 0.079204 -0.088955
C156  C     C_R   0.703757 0.802545 0.896834 -0.094109
C157  C     C_R   0.202185 0.705317 0.920904 -0.089206
C158  C     C_R   0.796386 0.302536 0.102811 -0.094218
C159  C     C_R   0.797666 0.705396 0.079169 -0.089070
C160  C     C_R   0.203892 0.302536 0.896518 -0.093959
C161  C     C_R   0.734495 0.162908 0.920216 -0.220898
C162  C     C_R   0.263917 0.845872 0.100892 -0.203943
C163  C     C_R   0.265143 0.163220 0.079842 -0.220598
C164  C     C_R   0.736359 0.845777 0.898777 -0.204150
C165  C     C_R   0.234433 0.662856 0.920223 -0.220890
C166  C     C_R   0.763877 0.345861 0.100933 -0.203968
C167  C     C_R   0.765311 0.663066 0.079809 -0.220863
C168  C     C_R   0.236584 0.345670 0.898497 -0.204323
H49   H     H_    0.717632 0.128208 0.871562 0.136182
H50   H     H_    0.280510 0.880772 0.149252 0.133925
H51   H     H_    0.281848 0.128606 0.128682 0.135986
H52   H     H_    0.719884 0.880628 0.850307 0.133895
H53   H     H_    0.217549 0.628145 0.871585 0.136209
H54   H     H_    0.780450 0.380753 0.149306 0.133919
H55   H     H_    0.782090 0.628407 0.128561 0.136109
H56   H     H_    0.220198 0.380476 0.849939 0.133878
H57   H     H_    0.615744 0.449259 0.938794 0.133653
H58   H     H_    0.387544 0.567038 0.065716 0.131560
H59   H     H_    0.384786 0.448836 0.061304 0.133532
H60   H     H_    0.612093 0.567517 0.934079 0.131522
H61   H     H_    0.115804 0.949313 0.938805 0.133706
H62   H     H_    0.887627 0.067144 0.065768 0.131539
H63   H     H_    0.884526 0.949047 0.061267 0.133572
H64   H     H_    0.111854 0.067839 0.933982 0.131524
H65   H     H_    0.303902 0.586980 0.931906 0.126500
H66   H     H_    0.695468 0.427280 0.078809 0.125787
H67   H     H_    0.695648 0.587463 0.068043 0.126511
H68   H     H_    0.305302 0.426798 0.920949 0.125711
H69   H     H_    0.804004 0.087089 0.931924 0.126517
H70   H     H_    0.195543 0.927330 0.078797 0.125798
H71   H     H_    0.195346 0.087818 0.068051 0.126518
H72   H     H_    0.804925 0.927051 0.921081 0.125748
H73   H     H_    0.660888 0.199158 0.876441 0.164360
H74   H     H_    0.337517 0.808813 0.148638 0.167106
H75   H     H_    0.338885 0.199209 0.123919 0.164144
H76   H     H_    0.662674 0.808887 0.850769 0.167178
H77   H     H_    0.160843 0.699149 0.876478 0.164379
H78   H     H_    0.837493 0.308833 0.148720 0.167104
H79   H     H_    0.838988 0.699186 0.123767 0.164283
H80   H     H_    0.162828 0.308928 0.850334 0.167252
N33   N     N_R   0.633498 0.289424 0.802216 0.216620
O1    O     O_R   0.667010 0.284989 0.778879 -0.476248
O2    O     O_R   0.585568 0.273232 0.747620 -0.405840
N34   N     N_R   0.369961 0.718144 0.216107 0.218140
O3    O     O_R   0.417864 0.735174 0.268776 -0.395448
O4    O     O_R   0.338491 0.718002 0.244097 -0.434257
N35   N     N_R   0.366051 0.289613 0.197883 0.216443
O5    O     O_R   0.332236 0.285371 0.220590 -0.476709
O6    O     O_R   0.413900 0.273354 0.253003 -0.405977
N36   N     N_R   0.630150 0.718193 0.783554 0.218078
O7    O     O_R   0.582279 0.735265 0.730693 -0.395395
O8    O     O_R   0.661713 0.717902 0.755757 -0.434625
N37   N     N_R   0.133459 0.789407 0.802228 0.216633
O9    O     O_R   0.166949 0.784945 0.778850 -0.476226
O10   O     O_R   0.085522 0.773223 0.747671 -0.405819
N38   N     N_R   0.869942 0.218156 0.216162 0.218130
O11   O     O_R   0.917838 0.235186 0.268876 -0.395412
O12   O     O_R   0.838449 0.217990 0.244103 -0.434317
N39   N     N_R   0.866270 0.789515 0.197846 0.216523
O13   O     O_R   0.832609 0.785180 0.220874 -0.476484
O14   O     O_R   0.914158 0.773277 0.252698 -0.405894
N40   N     N_R   0.130204 0.218213 0.783334 0.218033
O15   O     O_R   0.082352 0.235313 0.730371 -0.395327
O16   O     O_R   0.161810 0.217799 0.755626 -0.434942
C169  C     C_3   0.689700 0.584723 0.661568 -0.454034
C170  C     C_3   0.742572 0.577366 0.671260 -0.261607
C171  C     C_3   0.786199 0.573384 0.768062 -0.909140
H81   H     H_    0.790290 0.615938 0.801299 0.271574
H82   H     H_    0.777990 0.538570 0.802027 0.256152
H83   H     H_    0.823528 0.563231 0.773683 0.254534
H84   H     H_    0.742461 0.537105 0.636483 0.205504
H85   H     H_    0.751382 0.616094 0.644372 0.223702
H86   H     H_    0.690281 0.626501 0.693692 0.240535
H87   H     H_    0.685341 0.546913 0.695816 0.176431
C172  C     C_3   0.316018 0.398401 0.345414 -0.462088
C173  C     C_3   0.272387 0.397562 0.363816 -0.269609
C174  C     C_3   0.219228 0.404348 0.278878 -0.918420
H88   H     H_    0.216717 0.447016 0.247553 0.272518
H89   H     H_    0.212573 0.368680 0.232054 0.266216
H90   H     H_    0.188084 0.402715 0.293089 0.258806
H91   H     H_    0.272682 0.355656 0.395226 0.206266
H92   H     H_    0.278244 0.434047 0.409139 0.193128
H93   H     H_    0.312362 0.440573 0.311792 0.185614
H94   H     H_    0.310637 0.362159 0.300575 0.233405
C175  C     C_3   0.310318 0.584780 0.338390 -0.453999
C176  C     C_3   0.257395 0.577690 0.328589 -0.261552
C177  C     C_3   0.213799 0.573797 0.231759 -0.909256
H95   H     H_    0.209889 0.616305 0.198512 0.271644
H96   H     H_    0.221910 0.538848 0.197856 0.256187
H97   H     H_    0.176411 0.563890 0.226065 0.254537
H98   H     H_    0.257357 0.537475 0.363336 0.205643
H99   H     H_    0.248679 0.616507 0.355446 0.223686
H100  H     H_    0.309876 0.626507 0.306265 0.240426
H101  H     H_    0.314605 0.546890 0.304198 0.176415
C178  C     C_3   0.683923 0.398272 0.654732 -0.461983
C179  C     C_3   0.727677 0.397269 0.636641 -0.269675
C180  C     C_3   0.780767 0.403889 0.721758 -0.918471
H102  H     H_    0.783331 0.446571 0.753074 0.272494
H103  H     H_    0.787225 0.368228 0.768493 0.266225
H104  H     H_    0.812008 0.402102 0.707789 0.258901
H105  H     H_    0.727354 0.355356 0.605256 0.206249
H106  H     H_    0.721996 0.433747 0.591408 0.193015
H107  H     H_    0.687607 0.440470 0.688300 0.185712
H108  H     H_    0.689137 0.362034 0.699495 0.233165
C181  C     C_3   0.189708 0.084710 0.661551 -0.454036
C182  C     C_3   0.242553 0.077227 0.671181 -0.261620
C183  C     C_3   0.286199 0.073204 0.767968 -0.909093
H109  H     H_    0.290377 0.115781 0.801214 0.271528
H110  H     H_    0.277945 0.038452 0.801959 0.256133
H111  H     H_    0.323498 0.062939 0.773544 0.254520
H112  H     H_    0.242369 0.036945 0.636373 0.205463
H113  H     H_    0.251410 0.115915 0.644287 0.223702
H114  H     H_    0.190360 0.126512 0.693686 0.240652
H115  H     H_    0.185315 0.046937 0.695821 0.176426
C184  C     C_3   0.816045 0.898349 0.345354 -0.462034
C185  C     C_3   0.772353 0.897455 0.363605 -0.269626
C186  C     C_3   0.719232 0.904200 0.278578 -0.918493
H116  H     H_    0.716734 0.946858 0.247240 0.272490
H117  H     H_    0.712639 0.868518 0.231812 0.266188
H118  H     H_    0.688040 0.902562 0.292671 0.258879
H119  H     H_    0.772643 0.855542 0.394987 0.206234
H120  H     H_    0.778140 0.933931 0.408895 0.193100
H121  H     H_    0.812382 0.940528 0.311745 0.185650
H122  H     H_    0.810739 0.862102 0.300564 0.233259
C187  C     C_3   0.810311 0.084759 0.338395 -0.454038
C188  C     C_3   0.757401 0.077601 0.328620 -0.261538
C189  C     C_3   0.713797 0.073692 0.231797 -0.909206
H123  H     H_    0.709840 0.116215 0.198555 0.271606
H124  H     H_    0.721934 0.038783 0.197875 0.256164
H125  H     H_    0.676425 0.063719 0.226121 0.254532
H126  H     H_    0.757400 0.037372 0.363372 0.205595
H127  H     H_    0.748661 0.116392 0.355485 0.223680
H128  H     H_    0.809833 0.126499 0.306266 0.240428
H129  H     H_    0.814619 0.046890 0.304195 0.176424
C190  C     C_3   0.183907 0.898233 0.654749 -0.462012
C191  C     C_3   0.227686 0.897179 0.636719 -0.269538
C192  C     C_3   0.280764 0.903760 0.721876 -0.918501
H130  H     H_    0.283335 0.946433 0.753213 0.272502
H131  H     H_    0.287185 0.868090 0.768576 0.266233
H132  H     H_    0.312025 0.901962 0.707958 0.258902
H133  H     H_    0.227352 0.855262 0.605337 0.206209
H134  H     H_    0.222048 0.933652 0.591507 0.192987
H135  H     H_    0.187606 0.940438 0.688311 0.185740
H136  H     H_    0.189083 0.862000 0.699494 0.233209
C193  C     C_3   0.269676 0.785041 0.494241 -0.457116
C194  C     C_3   0.316968 0.816911 0.570149 -0.245638
C195  C     C_3   0.315628 0.882324 0.550472 -0.910502
H137  H     H_    0.318892 0.888864 0.492635 0.267992
H138  H     H_    0.278809 0.902463 0.536757 0.255085
H139  H     H_    0.348821 0.904824 0.607819 0.253899
H140  H     H_    0.317007 0.811186 0.631285 0.193991
H141  H     H_    0.353895 0.798524 0.581661 0.211606
H142  H     H_    0.265873 0.796176 0.431056 0.206753
H143  H     H_    0.234796 0.802518 0.490812 0.197002
C196  C     C_3   0.725658 0.193042 0.666936 -0.412886
C197  C     C_3   0.779199 0.222808 0.717016 -0.265034
C198  C     C_3   0.811002 0.203092 0.812591 -0.880742
H144  H     H_    0.791742 0.217580 0.847024 0.278696
H145  H     H_    0.815228 0.154553 0.816683 0.256999
H146  H     H_    0.850317 0.223213 0.845809 0.247959
H147  H     H_    0.801240 0.211982 0.685950 0.206679
H148  H     H_    0.774301 0.271134 0.715256 0.209801
H149  H     H_    0.707459 0.196416 0.706220 0.227555
H150  H     H_    0.730005 0.145430 0.659444 0.179181
C199  C     C_3   0.730550 0.785054 0.506354 -0.457229
C200  C     C_3   0.683343 0.817098 0.430511 -0.245649
C201  C     C_3   0.684778 0.882473 0.450462 -0.910171
H151  H     H_    0.681446 0.888888 0.508256 0.267968
H152  H     H_    0.721671 0.902562 0.464397 0.254931
H153  H     H_    0.651656 0.905122 0.393149 0.253771
H154  H     H_    0.683365 0.811505 0.369412 0.194030
H155  H     H_    0.646360 0.798742 0.418814 0.211609
H156  H     H_    0.734316 0.796065 0.569547 0.206790
H157  H     H_    0.765486 0.802517 0.509952 0.197052
C202  C     C_3   0.274106 0.193257 0.332946 -0.413115
C203  C     C_3   0.220620 0.223164 0.283117 -0.264434
C204  C     C_3   0.188597 0.203438 0.187548 -0.880447
H158  H     H_    0.207759 0.217783 0.152874 0.278703
H159  H     H_    0.184250 0.154908 0.183508 0.256751
H160  H     H_    0.149333 0.223684 0.154521 0.247938
H161  H     H_    0.198688 0.212470 0.314432 0.206574
H162  H     H_    0.225623 0.271474 0.284817 0.209703
H163  H     H_    0.292221 0.196636 0.293527 0.227548
H164  H     H_    0.269689 0.145645 0.340329 0.179199
C205  C     C_3   0.769609 0.285028 0.494043 -0.457177
C206  C     C_3   0.816883 0.316952 0.569904 -0.245631
C207  C     C_3   0.815480 0.382362 0.550158 -0.910458
H165  H     H_    0.818663 0.388893 0.492235 0.267983
H166  H     H_    0.778671 0.402477 0.536545 0.255046
H167  H     H_    0.848697 0.404893 0.607440 0.253886
H168  H     H_    0.816944 0.311235 0.631060 0.193997
H169  H     H_    0.853820 0.298603 0.581406 0.211591
H170  H     H_    0.765803 0.296121 0.430843 0.206739
H171  H     H_    0.734720 0.302498 0.490580 0.197091
C208  C     C_3   0.225592 0.692990 0.666895 -0.412847
C209  C     C_3   0.279152 0.722714 0.717020 -0.265043
C210  C     C_3   0.310901 0.703047 0.812632 -0.880585
H172  H     H_    0.291614 0.717613 0.846991 0.278688
H173  H     H_    0.315100 0.654502 0.816793 0.256985
H174  H     H_    0.350232 0.723131 0.845882 0.247922
H175  H     H_    0.301224 0.711815 0.686030 0.206673
H176  H     H_    0.274280 0.771047 0.715195 0.209776
H177  H     H_    0.207380 0.696378 0.706158 0.227584
H178  H     H_    0.229914 0.645375 0.659379 0.179142
C211  C     C_3   0.230792 0.285056 0.506998 -0.457203
C212  C     C_3   0.183648 0.317260 0.431261 -0.245482
C213  C     C_3   0.185240 0.382626 0.451421 -0.910263
H179  H     H_    0.181933 0.389015 0.509241 0.267946
H180  H     H_    0.222180 0.402613 0.465411 0.254838
H181  H     H_    0.152171 0.405396 0.394191 0.253766
H182  H     H_    0.183652 0.311711 0.370140 0.194013
H183  H     H_    0.146626 0.298990 0.419526 0.211577
H184  H     H_    0.234551 0.295951 0.570226 0.206749
H185  H     H_    0.265771 0.302507 0.510715 0.197127
C214  C     C_3   0.774255 0.693158 0.333034 -0.413009
C215  C     C_3   0.720755 0.723027 0.283035 -0.264708
C216  C     C_3   0.688850 0.703298 0.187468 -0.880531
H186  H     H_    0.708077 0.717689 0.152930 0.278727
H187  H     H_    0.684545 0.654765 0.183418 0.256861
H188  H     H_    0.649566 0.723500 0.154318 0.247936
H189  H     H_    0.698750 0.712302 0.314207 0.206606
H190  H     H_    0.725729 0.771340 0.284745 0.209742
H191  H     H_    0.792435 0.696509 0.293717 0.227566
H192  H     H_    0.769847 0.645552 0.340474 0.179206

loop_
_geom_bond_atom_site_label_1
_geom_bond_atom_site_label_2
_geom_bond_distance
_ccdc_geom_bond_type
C49   C89   1.423555 A    
C108  C140  1.400235 A    
C110  C118  1.387075 A    
C204  H158  1.109852 S    
C211  H184  1.112432 S    
C18   N18   1.335326 A    
C127  N40   1.439934 S    
N37   O9    1.300718 A    
C11   C43   1.391951 A    
C22   N22   1.335295 A    
C19   C43   1.369833 A    
C192  H130  1.105963 S    
C107  C115  1.385288 A    
C89   C94   1.453739 S    
C216  H188  1.110274 S    
C105  C113  1.385332 A    
C14   N14   1.338591 A    
C2    C34   1.368009 A    
C111  C143  1.399012 A    
C126  C134  1.417891 A    
C55   C211  1.521073 S    
C56   C214  1.514299 S    
C176  H98   1.110346 S    
C102  C118  1.394426 A    
C173  C174  1.526697 S    
C6    C38   1.368048 A    
C28   C34   1.380784 A    
C16   C48   1.402348 A    
C3    N3    1.338225 A    
C144  C164  1.390657 A    
C108  C116  1.387171 A    
C75   H35   1.083592 S    
C5    H5    1.080710 S    
C32   C38   1.380700 A    
C7    H7    1.080712 S    
C8    H8    1.081278 S    
C197  H148  1.108735 S    
C17   H9    1.081133 S    
C181  C182  1.533081 S    
C54   C94   1.410116 A    
C85   H41   1.083227 S    
C203  H161  1.109547 S    
N40   O16   1.301835 A    
C156  H76   1.077485 S    
C51   C59   1.390226 A    
C157  H77   1.079020 S    
C214  C215  1.534124 S    
C153  C161  1.383154 A    
C129  C145  1.425406 A    
C177  H96   1.109834 S    
C87   H43   1.083260 S    
C124  C132  1.417750 A    
C11   N11   1.346807 A    
C170  C171  1.527874 S    
C175  C176  1.533042 S    
C157  C165  1.383195 A    
C133  C149  1.425362 A    
C151  C160  1.412075 A    
C146  C149  1.420194 A    
C128  C136  1.417809 A    
C26   N26   1.336072 A    
C183  H109  1.111161 S    
C74   H34   1.081247 S    
C178  H108  1.105131 S    
C14   C46   1.402364 A    
C214  H191  1.112954 S    
N8    Ni3   1.868118 S    
C63   C71   1.386966 A    
C180  H104  1.108519 S    
C196  H150  1.109375 S    
C64   C72   1.400246 A    
C184  H121  1.109244 S    
C10   C172  1.509607 S    
C99   C123  1.405855 A    
C168  H56   1.084361 S    
C204  H160  1.110303 S    
C97   C121  1.405887 A    
C186  H118  1.108471 S    
N36   O7    1.301467 A    
C81   C89   1.399619 A    
C190  C191  1.533448 S    
C125  N38   1.439891 S    
C164  H52   1.084285 S    
C128  N39   1.439229 S    
C165  H53   1.084257 S    
C25   C35   1.382370 A    
C179  H105  1.107409 S    
C215  H190  1.108778 S    
C208  H177  1.112949 S    
C190  H135  1.109251 S    
C29   C39   1.382391 A    
C26   C36   1.380628 A    
C189  H123  1.111122 S    
C31   C37   1.382564 A    
C193  C194  1.536305 S    
C107  C139  1.398982 A    
C121  C129  1.417844 A    
N34   O4    1.301841 A    
C105  C137  1.399021 A    
C135  C151  1.425433 A    
C198  H144  1.109661 S    
C100  C124  1.403635 A    
C106  C138  1.400189 A    
C73   C81   1.386596 A    
C79   C87   1.386618 A    
C150  C157  1.409951 A    
C188  H126  1.110332 S    
C210  H172  1.109759 S    
N13   Ni7   1.839647 S    
C3    H3    1.080722 S    
C194  C195  1.526817 S    
C177  H95   1.111128 S    
C4    N4    1.339789 A    
N3    Ni2   1.868116 S    
C5    N5    1.338077 A    
N25   Ni6   1.842187 S    
C62   H30   1.077054 S    
C137  C165  1.390058 A    
C212  H182  1.110810 S    
C213  H180  1.109985 S    
C112  C144  1.400204 A    
N39   O14   1.301527 A    
C186  H116  1.105979 S    
C154  H74   1.077500 S    
C141  C161  1.390034 A    
C202  H164  1.109358 S    
N14   N22   1.388360 A    
C106  C114  1.387053 A    
C27   N27   1.333966 A    
N4    N26   1.402960 A    
C147  C152  1.420166 A    
C29   H21   1.072990 S    
C86   C94   1.400558 A    
N29   Ni8   1.842189 S    
C143  C163  1.390029 A    
C31   H23   1.072980 S    
N35   O6    1.301598 A    
C98   C114  1.394393 A    
N11   N19   1.388363 A    
C191  H134  1.111284 S    
C115  H60   1.083740 S    
C36   C98   1.448430 S    
C133  C141  1.422618 A    
C26   H18   1.075455 S    
C59   C67   1.386840 A    
C185  C186  1.526706 S    
C60   H28   1.077007 S    
C57   C65   1.386792 A    
C174  H89   1.109785 S    
C188  C189  1.527878 S    
C119  H64   1.083776 S    
C61   C69   1.386777 A    
C50   C90   1.410093 A    
C152  C159  1.409927 A    
C201  H152  1.109990 S    
C212  C213  1.527035 S    
C200  H155  1.110453 S    
C126  N37   1.439174 S    
C163  H51   1.084307 S    
C20   H12   1.076690 S    
N38   O12   1.301798 A    
N17   Ni2   1.868870 S    
C209  H176  1.108756 S    
C140  C168  1.390699 A    
C46   C72   1.464809 S    
C47   C69   1.434582 S    
N24   Ni4   1.868692 S    
C184  H122  1.105074 S    
C155  C163  1.383123 A    
C76   C84   1.385262 A    
N26   Ni5   1.842189 S    
C131  C147  1.425389 A    
C193  H143  1.104820 S    
C77   C85   1.386577 A    
C197  C198  1.523858 S    
C198  H146  1.110275 S    
C176  C177  1.527882 S    
C215  C216  1.524037 S    
C103  C119  1.394430 A    
C173  H91   1.107591 S    
C100  C116  1.394585 A    
C205  H171  1.104756 S    
C209  C210  1.524007 S    
C79   H39   1.083651 S    
C185  H119  1.107519 S    
C210  H174  1.110268 S    
C30   C40   1.380602 A    
N2    Ni2   1.868302 S    
C6    H6    1.081277 S    
C56   C96   1.410152 A    
N2    N28   1.402956 A    
N33   O1    1.300728 A    
C55   C95   1.423664 A    
C136  C152  1.422921 A    
C101  C125  1.405842 A    
C18   H10   1.076689 S    
C9    C41   1.391984 A    
C203  C204  1.524164 S    
C183  H110  1.109860 S    
C51   C199  1.520970 S    
C175  H101  1.108768 S    
C86   H42   1.084086 S    
C83   C91   1.399674 A    
N10   Ni6   1.839648 S    
C121  N34   1.439947 S    
C17   C41   1.369896 A    
C158  H78   1.077484 S    
C27   H19   1.072981 S    
N14   Ni8   1.839648 S    
C29   N29   1.333968 A    
N10   N18   1.388360 A    
C91   C96   1.453800 S    
C189  H125  1.110388 S    
C170  H84   1.110306 S    
C117  H62   1.083716 S    
C15   C187  1.510625 S    
C171  H83   1.110393 S    
C84   C92   1.400703 A    
C199  H157  1.104897 S    
C50   C196  1.514288 S    
C52   C202  1.514342 S    
C109  C141  1.398968 A    
C28   H20   1.075506 S    
C123  C131  1.417799 A    
C1    N1    1.338138 A    
C148  C151  1.420124 A    
N18   Ni1   1.868870 S    
N30   Ni7   1.842191 S    
C32   H24   1.075477 S    
C75   C83   1.386601 A    
C191  H133  1.107396 S    
C107  H67   1.084092 S    
C20   C44   1.386477 A    
C66   C74   1.400252 A    
C7    N7    1.338170 A    
C71   C79   1.396216 A    
C8    N8    1.339799 A    
C130  C138  1.421169 A    
C206  H169  1.110378 S    
C82   C90   1.400538 A    
C176  H99   1.106978 S    
C145  C154  1.411875 A    
C213  H179  1.110891 S    
C49   C57   1.390159 A    
C179  C180  1.526692 S    
C166  H54   1.084256 S    
C112  C120  1.387097 A    
C182  C183  1.527884 S    
C15   N15   1.346789 A    
C43   C65   1.434596 S    
C172  H94   1.105012 S    
C207  H166  1.109771 S    
N3    N25   1.402957 A    
N8    N30   1.402960 A    
C41   C67   1.434645 S    
C129  C137  1.422676 A    
C2    H2    1.081279 S    
C199  C200  1.536375 S    
C33   C99   1.447128 S    
C109  C117  1.385315 A    
C169  H87   1.108778 S    
N5    N31   1.402959 A    
C206  C207  1.526822 S    
N20   Ni2   1.868692 S    
C203  H162  1.108814 S    
C74   C82   1.385133 A    
N19   Ni1   1.868689 S    
C148  C155  1.409969 A    
C65   C73   1.396202 A    
C63   H31   1.084748 S    
C194  H140  1.110801 S    
C18   C42   1.386576 A    
C23   N23   1.330672 A    
C195  H139  1.110275 S    
C24   N24   1.335259 A    
N31   Ni7   1.842417 S    
C6    N6    1.339742 A    
C99   C115  1.394374 A    
C132  C140  1.421208 A    
C3    C35   1.371575 A    
C97   C113  1.394422 A    
C103  C127  1.405850 A    
C125  C133  1.417815 A    
C111  H71   1.084155 S    
C101  C117  1.394340 A    
C112  H72   1.084032 S    
C178  H107  1.109247 S    
C1    C33   1.371566 A    
C184  C185  1.533485 S    
N6    N32   1.402956 A    
C180  H103  1.109817 S    
C196  H149  1.112933 S    
C187  H129  1.108761 S    
C108  H68   1.084114 S    
C13   C181  1.510637 S    
C37   C103  1.447064 S    
C35   C97   1.447172 S    
C83   H47   1.083226 S    
C171  H81   1.111103 S    
C204  H159  1.110802 S    
C211  H185  1.105030 S    
N36   O8    1.301815 A    
C80   C88   1.385198 A    
C135  C143  1.422850 A    
C109  H69   1.084056 S    
N37   O10   1.301475 A    
C179  H106  1.111296 S    
C23   C47   1.369834 A    
N39   O13   1.300758 A    
C28   N28   1.336003 A    
C1    H1    1.080713 S    
C190  H136  1.105137 S    
C58   C66   1.400235 A    
C153  H73   1.079005 S    
N35   O5    1.300829 A    
N22   Ni3   1.868870 S    
C158  C166  1.385391 A    
C62   C70   1.400256 A    
C172  C173  1.533527 S    
C154  C162  1.385414 A    
C104  C128  1.403664 A    
C145  C150  1.420230 A    
C81   H45   1.083222 S    
C106  H66   1.084006 S    
C25   N25   1.333993 A    
C110  H70   1.084035 S    
C22   H14   1.076703 S    
C110  C142  1.400201 A    
C13   C45   1.392006 A    
C188  H127  1.106958 S    
N11   Ni6   1.839865 S    
C44   C66   1.464759 S    
C31   N31   1.333968 A    
C16   C190  1.509538 S    
N15   Ni8   1.839865 S    
C64   H32   1.077031 S    
C98   C122  1.403683 A    
C212  H183  1.110570 S    
C200  C201  1.526881 S    
C48   C70   1.464739 S    
C113  H58   1.083758 S    
C123  N36   1.439912 S    
N15   N23   1.388363 A    
N13   N21   1.388360 A    
C202  H163  1.112997 S    
N4    Ni1   1.868118 S    
C116  H59   1.083659 S    
N40   O15   1.301465 A    
C192  H131  1.109810 S    
C78   H38   1.081266 S    
C59   H27   1.084718 S    
C105  H65   1.084114 S    
C60   C68   1.400272 A    
C57   H25   1.084730 S    
C122  C130  1.417868 A    
C177  H97   1.110390 S    
C195  H137  1.110842 S    
C56   C64   1.394376 A    
C161  H49   1.084212 S    
C70   C78   1.400266 A    
C186  H117  1.109774 S    
C17   N17   1.330696 A    
C19   H11   1.081128 S    
C169  C170  1.533046 S    
C9    C169  1.510630 S    
C20   N20   1.335267 A    
N6    Ni4   1.868302 S    
N7    Ni4   1.868116 S    
C21   N21   1.330730 A    
C214  H192  1.109360 S    
C149  C158  1.411835 A    
C84   H48   1.084158 S    
C53   C93   1.423547 A    
C174  H88   1.105999 S    
C147  C156  1.411920 A    
C90   C93   1.453732 S    
N32   Ni8   1.842418 S    
C88   H44   1.084116 S    
C12   N12   1.338649 A    
C72   C80   1.400363 A    
C118  H61   1.083658 S    
C13   N13   1.346758 A    
C76   H36   1.081308 S    
C131  C139  1.422702 A    
C4    H4    1.081280 S    
C77   H37   1.083570 S    
C4    C36   1.368027 A    
C78   C86   1.385121 A    
C178  C179  1.533439 S    
C80   H40   1.081283 S    
C215  H189  1.109481 S    
C208  H178  1.109385 S    
C30   H22   1.075450 S    
C195  H138  1.109688 S    
C196  C197  1.534142 S    
C8    C40   1.368038 A    
C191  C192  1.526712 S    
C68   C76   1.400464 A    
C12   C178  1.509551 S    
C205  H170  1.112239 S    
C69   C77   1.396207 A    
C22   C46   1.386520 A    
C67   C75   1.396185 A    
C34   C100  1.448384 S    
C193  H142  1.112251 S    
N34   O3    1.301493 A    
C136  C144  1.421161 A    
C49   C193  1.520862 S    
C198  H145  1.110693 S    
C40   C102  1.448445 S    
C182  H112  1.110324 S    
C24   C48   1.386452 A    
C27   C33   1.382479 A    
C25   H17   1.072998 S    
C185  H120  1.111332 S    
C210  H173  1.110755 S    
N21   Ni4   1.868870 S    
C216  H187  1.110754 S    
C10   N10   1.338567 A    
C52   C60   1.394374 A    
C53   C205  1.520815 S    
C88   C96   1.400630 A    
C213  H181  1.110539 S    
C54   C208  1.514297 S    
N27   Ni5   1.842417 S    
C122  N33   1.439192 S    
C206  H168  1.110804 S    
C92   C95   1.453904 S    
C192  H132  1.108484 S    
C155  H75   1.079108 S    
C12   C44   1.402355 A    
C16   N16   1.338687 A    
C175  H100  1.109505 S    
C104  C120  1.394450 A    
C32   N32   1.336033 A    
N16   Ni7   1.839868 S    
C189  H124  1.109814 S    
C170  H85   1.106944 S    
C87   C95   1.399763 A    
C171  H82   1.109811 S    
C130  C146  1.423002 A    
C159  H79   1.079042 S    
C199  H156  1.112326 S    
C202  C203  1.534145 S    
C160  H80   1.077506 S    
C139  C167  1.390028 A    
C11   C175  1.510619 S    
C134  C150  1.423040 A    
N28   Ni6   1.842418 S    
C42   C68   1.464947 S    
N1    N27   1.402959 A    
C15   C47   1.391942 A    
C174  H90   1.108515 S    
N1    Ni1   1.868300 S    
C14   C184  1.509565 S    
C201  H151  1.110951 S    
C159  C167  1.383128 A    
C120  H63   1.083638 S    
C111  C119  1.385262 A    
C216  H186  1.109762 S    
C201  H153  1.110571 S    
C102  C126  1.403701 A    
C134  C142  1.421206 A    
N5    Ni3   1.868300 S    
C21   C45   1.369942 A    
C200  H154  1.110819 S    
C10   C42   1.402417 A    
C181  H115  1.108789 S    
N38   O11   1.301458 A    
C209  H175  1.109458 S    
N7    N29   1.402957 A    
N9    Ni5   1.839647 S    
N23   Ni3   1.868689 S    
C30   N30   1.336075 A    
C23   H15   1.081124 S    
C61   H29   1.084738 S    
C73   H33   1.083573 S    
C24   H16   1.076697 S    
N9    N17   1.388360 A    
C156  C164  1.385452 A    
C132  C148  1.422810 A    
C169  H86   1.109484 S    
C2    N2    1.339679 A    
N12   N20   1.388363 A    
C127  C135  1.417761 A    
C5    C37   1.371511 A    
C160  C168  1.385546 A    
C82   H46   1.084060 S    
C19   N19   1.330665 A    
C7    C39   1.371547 A    
N16   N24   1.388363 A    
C85   C93   1.399614 A    
C207  H167  1.110389 S    
C52   C92   1.410213 A    
C181  H114  1.109488 S    
C208  C209  1.534169 S    
C124  N35   1.439343 S    
C194  H141  1.110350 S    
C187  C188  1.533041 S    
C45   C71   1.434724 S    
C167  H55   1.084241 S    
C173  H92   1.111348 S    
C53   C61   1.390125 A    
N33   O2    1.301490 A    
C162  H50   1.084291 S    
C172  H93   1.109254 S    
C182  H113  1.106950 S    
C211  C212  1.536484 S    
C114  H57   1.083642 S    
C38   C104  1.448429 S    
C39   C101  1.447139 S    
C146  C153  1.409911 A    
C21   H13   1.081128 S    
C207  H165  1.110881 S    
C50   C58   1.394401 A    
C138  C166  1.390636 A    
C183  H111  1.110426 S    
C205  C206  1.536303 S    
C197  H147  1.109388 S    
C9    N9    1.346763 A    
N12   Ni5   1.839868 S    
C54   C62   1.394429 A    
C180  H102  1.106000 S    
C142  C162  1.390658 A    
C187  H128  1.109493 S    
C58   H26   1.077021 S    
C51   C91   1.423558 A    
C55   C63   1.390291 A    
