data_mof_unit_41623.cif
_audit_creation_date              2013-03-05T15:44:50-0500
_audit_creation_method            fapswitch 2.2
_symmetry_space_group_name_H-M    P1
_symmetry_Int_Tables_number       1
_space_group_crystal_system       triclinic
_cell_length_a                    17.422612
_cell_length_b                    17.559493
_cell_length_c                    6.94758
_cell_angle_alpha                 89.936453
_cell_angle_beta                  91.490078
_cell_angle_gamma                 90.02327
_cell_volume                      2124.76845964

loop_
_atom_site_label
_atom_site_type_symbol
_atom_site_description
_atom_site_fract_x
_atom_site_fract_y
_atom_site_fract_z
_atom_type_partial_charge
O1    O     O_R   0.796490 0.328940 0.373020 -0.592746
O2    O     O_R   0.203510 0.671060 0.626980 -0.592748
O3    O     O_R   0.203510 0.828940 0.626980 -0.595907
O4    O     O_R   0.796490 0.171060 0.373020 -0.595918
O5    O     O_R   0.805560 0.173330 0.702970 -0.587078
O6    O     O_R   0.194440 0.826670 0.297030 -0.587062
O7    O     O_R   0.194440 0.673330 0.297030 -0.580940
O8    O     O_R   0.805560 0.326670 0.702970 -0.580924
O9    O     O_R   0.658440 0.172360 0.870170 -0.589444
O10   O     O_R   0.341560 0.827640 0.129830 -0.589444
O11   O     O_R   0.341560 0.672360 0.129830 -0.589350
O12   O     O_R   0.658440 0.327640 0.870170 -0.589349
C1    C     C_R   0.824298 0.146240 0.537472 0.978398
C2    C     C_R   0.175703 0.853760 0.462529 0.978355
C3    C     C_R   0.175715 0.646287 0.462847 0.975839
C4    C     C_R   0.824286 0.353713 0.537153 0.975851
O13   O     O_3   0.679200 0.250000 0.537050 -0.274453
O14   O     O_3   0.320800 0.750000 0.462950 -0.274455
V1    V     V_3+5 0.736420 0.250000 0.813120 1.202428
V2    V     V_3+5 0.263580 0.750000 0.186880 1.202432
O15   O     O_R   0.649370 0.327980 0.199650 -0.588394
O16   O     O_R   0.350630 0.672020 0.800350 -0.588395
O17   O     O_R   0.350630 0.827980 0.800350 -0.588508
O18   O     O_R   0.649370 0.172020 0.199650 -0.588508
C5    C     C_R   0.630599 0.354305 0.029109 0.974738
C6    C     C_R   0.369401 0.645695 0.970891 0.974737
C7    C     C_R   0.369402 0.854303 0.970768 0.973403
C8    C     C_R   0.630598 0.145697 0.029232 0.973385
H1    H     H_    0.934237 0.117120 0.279553 0.176792
H2    H     H_    0.065729 0.882842 0.720388 0.176773
H3    H     H_    0.055420 0.628622 0.694009 0.181334
H4    H     H_    0.944591 0.371358 0.306029 0.181366
V3    V     V_3+5 0.718510 0.250000 0.312740 1.193153
V4    V     V_3+5 0.281490 0.750000 0.687260 1.193154
O19   O     O_3   0.775740 0.250000 0.038930 -0.262983
O20   O     O_3   0.224260 0.750000 0.961070 -0.262987
C9    C     C_1   0.574178 0.083282 0.016023 -0.287646
C10   C     C_1   0.425822 0.916718 0.983977 -0.287637
C11   C     C_1   0.425818 0.583278 0.984262 -0.287043
C12   C     C_1   0.574182 0.416722 0.015738 -0.287048
C13   C     C_1   0.527475 0.030930 0.005841 0.077936
C14   C     C_1   0.472525 0.969070 0.994159 0.077942
C15   C     C_1   0.472521 0.530930 0.994298 0.080153
C16   C     C_1   0.527479 0.469070 0.005701 0.080153
H5    H     H_    0.841598 0.037235 0.806644 0.166118
H6    H     H_    0.158476 0.962825 0.193481 0.166120
H7    H     H_    0.165944 0.530041 0.212823 0.158910
H8    H     H_    0.834043 0.469981 0.787124 0.158859
C17   C     C_R   0.882787 0.084765 0.542769 -0.213004
C18   C     C_R   0.117222 0.915241 0.457240 -0.212799
C19   C     C_R   0.117828 0.584333 0.459494 -0.206499
C20   C     C_R   0.882173 0.415665 0.540501 -0.206511
C21   C     C_R   0.058152 0.022576 0.284075 0.391747
C22   C     C_R   0.941899 0.977476 0.715987 0.391658
C23   C     C_R   0.937635 0.526574 0.705291 0.403420
C24   C     C_R   0.062359 0.473434 0.294663 0.403404
C25   C     C_R   0.114592 0.965913 0.300979 -0.223457
C26   C     C_R   0.885451 0.034127 0.699082 -0.223528
C27   C     C_R   0.880095 0.471056 0.685210 -0.191850
C28   C     C_R   0.119899 0.528953 0.314755 -0.191879
C29   C     C_R   0.061667 0.921069 0.598437 -0.118844
C30   C     C_R   0.938333 0.078928 0.401555 -0.118555
C31   C     C_R   0.942473 0.416510 0.411325 -0.139059
C32   C     C_R   0.057533 0.583480 0.588680 -0.139101
C33   C     C_R   0.000806 0.974115 0.579230 0.029987
C34   C     C_R   0.999218 0.025907 0.420791 0.030399
C35   C     C_R   0.000947 0.472358 0.424872 0.011687
C36   C     C_R   0.999054 0.527638 0.575109 0.011698
N1    N     N_R   0.062911 0.076901 0.129673 0.229657
O21   O     O_R   0.060632 0.149497 0.166799 -0.365047
O22   O     O_R   0.085513 0.055014 0.961420 -0.404609
N2    N     N_R   0.937219 0.923241 0.870542 0.229607
O23   O     O_R   0.939323 0.850628 0.833652 -0.364950
O24   O     O_R   0.914936 0.945278 0.038887 -0.405060
N3    N     N_R   0.933055 0.580061 0.861129 0.236602
O25   O     O_R   0.991138 0.589255 0.980327 -0.395395
O26   O     O_R   0.866888 0.608646 0.905134 -0.360160
N4    N     N_R   0.066921 0.419973 0.138754 0.236655
O27   O     O_R   0.008797 0.410742 0.019704 -0.395399
O28   O     O_R   0.133096 0.391486 0.094480 -0.360179

loop_
_geom_bond_atom_site_label_1
_geom_bond_atom_site_label_2
_geom_bond_distance
_ccdc_geom_bond_type
O10   C7    1.304713 A    
C23   C27   1.402511 A    
C13   C14   1.448572 S    
N3    O25   1.300966 A    
C21   N1    1.438695 S    
C23   C36   1.419063 A    
O1    V3    1.978079 S    
C22   C33   1.417907 A    
C32   C36   1.415218 A    
C10   C14   1.228288 T    
C5    C12   1.473751 S    
N4    O28   1.301295 A    
C6    C11   1.473749 S    
O15   V3    1.973086 S    
C7    C10   1.473267 S    
C24   N4    1.437935 S    
O14   V2    2.138506 S    
O4    C1    1.303979 A    
N1    O22   1.301644 A    
O13   V1    2.138504 S    
H7    C28   1.083960 S    
H1    C30   1.081177 S    
O9    V1    1.971517 S    
O10   V2    1.971518 S    
C3    C19   1.482934 S    
O5    C1    1.294523 A    
C23   N3    1.437889 S    
O2    V4    1.978079 S    
O7    C3    1.295107 A    
O8    C4    1.295107 A    
O13   V3    1.718494 S    
O16   V4    1.973089 S    
C31   C35   1.415228 A    
H5    C26   1.083978 S    
O8    V1    1.973205 S    
C30   C34   1.415281 A    
C35   C36   1.427190 A    
O18   C8    1.305146 A    
N2    O24   1.301211 A    
C21   C25   1.401872 A    
N4    O27   1.300957 A    
C11   C15   1.228575 T    
O3    V4    1.978200 S    
O11   V2    1.972890 S    
C17   C26   1.402653 A    
C24   C28   1.402533 A    
C15   C16   1.449033 S    
C21   C34   1.418037 A    
C20   C27   1.400795 A    
O6    C2    1.294524 A    
O14   V4    1.718494 S    
O17   V4    1.973618 S    
O1    C4    1.302420 A    
O2    C3    1.302423 A    
N3    O26   1.301346 A    
O3    C2    1.303968 A    
C1    C17   1.484540 S    
O7    V2    1.973204 S    
O17   C7    1.305145 A    
H6    C25   1.084034 S    
H8    C27   1.083960 S    
C22   C26   1.401815 A    
O15   C5    1.305086 A    
O4    V3    1.978203 S    
C17   C30   1.399756 A    
C18   C25   1.402738 A    
H3    C32   1.080684 S    
C19   C32   1.399407 A    
C4    C20   1.482926 S    
H4    C31   1.080672 S    
N2    O23   1.301550 A    
C20   C31   1.399415 A    
O5    V1    1.975031 S    
C24   C35   1.419092 A    
O6    V2    1.975028 S    
O18   V3    1.973618 S    
O11   C6    1.305012 A    
O12   C5    1.305014 A    
V1    O19   1.695479 S    
C2    C18   1.484525 S    
C8    C9    1.473267 S    
O12   V1    1.972886 S    
V3    O19   2.170635 S    
V4    O20   2.170635 S    
C9    C13   1.228288 T    
N1    O21   1.301687 A    
V2    O20   1.695478 S    
C29   C33   1.415249 A    
C12   C16   1.228573 T    
C22   N2    1.438342 S    
C33   C34   1.426806 A    
O16   C6    1.305085 A    
H2    C29   1.081249 S    
C18   C29   1.399760 A    
C19   C28   1.400802 A    
O9    C8    1.304715 A    
