data_mof_unit_47767.cif
_audit_creation_date              2012-12-10T19:48:01-0500
_audit_creation_method            fapswitch 2.2
_symmetry_space_group_name_H-M    P1
_symmetry_Int_Tables_number       1
_space_group_crystal_system       triclinic
_cell_length_a                    15.033713
_cell_length_b                    14.114401
_cell_length_c                    10.407996
_cell_angle_alpha                 90.000248
_cell_angle_beta                  89.106303
_cell_angle_gamma                 90.000632
_cell_volume                      2208.22331203

loop_
_atom_site_label
_atom_site_type_symbol
_atom_type_description
_atom_site_fract_x
_atom_site_fract_y
_atom_site_fract_z
_atom_type_partial_charge
Br1   Br    Br    0.661068 0.679232 0.213460 -0.502308
Br2   Br    Br    0.338105 0.321147 0.788873 -0.536241
Br3   Br    Br    0.338950 0.679256 0.786548 -0.502329
Br4   Br    Br    0.661871 0.321130 0.211122 -0.536248
C1    C     C_R   0.327684 0.500035 0.499192 0.907368
C2    C     C_R   0.564847 0.795347 0.562825 0.074256
C3    C     C_R   0.532762 0.204530 0.602488 0.067410
C4    C     C_R   0.435157 0.795349 0.437177 0.074253
C5    C     C_R   0.500012 0.053305 0.499990 0.143720
C6    C     C_R   0.500009 0.946573 0.499996 0.134745
C7    C     C_R   0.516386 0.500007 0.259670 0.949638
C8    C     C_R   0.483611 0.500008 0.740330 0.949626
C9    C     C_R   0.562057 0.673672 0.098872 0.321428
C10   C     C_R   0.437639 0.326597 0.901805 0.315234
C11   C     C_R   0.437959 0.673680 0.901136 0.321433
C12   C     C_R   0.672315 0.500036 0.500818 0.907386
C13   C     C_R   0.562342 0.326589 0.098187 0.315233
C14   C     C_R   0.532474 0.759077 0.046961 -0.241944
C15   C     C_R   0.467286 0.241154 0.953456 -0.256059
C16   C     C_R   0.467550 0.759081 0.953054 -0.241949
C17   C     C_R   0.532688 0.241151 0.046530 -0.256075
C18   C     C_R   0.474059 0.586701 0.944611 -0.039051
C19   C     C_R   0.526023 0.413546 0.055229 -0.031254
C20   C     C_R   0.525948 0.586697 0.055392 -0.039062
C21   C     C_R   0.473966 0.413550 0.944769 -0.031263
C22   C     C_R   0.463290 0.500087 0.878887 -0.125606
C23   C     C_R   0.048150 0.501184 0.499931 0.107232
C24   C     C_R   0.536708 0.500083 0.121113 -0.125607
C25   C     C_R   0.094866 0.581680 0.458482 -0.152189
C26   C     C_R   0.906323 0.420242 0.459766 -0.161577
C27   C     C_R   0.905121 0.581651 0.541767 -0.152196
C28   C     C_R   0.093682 0.420223 0.540306 -0.161567
C29   C     C_R   0.186730 0.581557 0.459033 -0.153434
C30   C     C_R   0.814590 0.419303 0.462331 -0.142382
C31   C     C_R   0.813258 0.581533 0.541153 -0.153479
C32   C     C_R   0.185416 0.419283 0.537683 -0.142350
C33   C     C_R   0.232007 0.500254 0.498497 -0.026073
C34   C     C_R   0.951845 0.501178 0.500254 0.107239
C35   C     C_R   0.767991 0.500255 0.501567 -0.026048
C36   C     C_R   0.467217 0.105111 0.395086 -0.270549
C37   C     C_R   0.566307 0.894767 0.563630 -0.270194
C38   C     C_R   0.532810 0.105116 0.604887 -0.270554
C39   C     C_R   0.433704 0.894770 0.436370 -0.270206
C40   C     C_R   0.467254 0.204525 0.397493 0.067402
H1    H     H_    0.559253 0.174503 0.080261 0.183837
H2    H     H_    0.780368 0.355837 0.432177 0.197481
H3    H     H_    0.777764 0.644241 0.573243 0.155456
H4    H     H_    0.219645 0.355798 0.567748 0.197467
H5    H     H_    0.442651 0.069468 0.310716 0.136837
H6    H     H_    0.619849 0.930433 0.612292 0.141424
H7    H     H_    0.557385 0.069477 0.689250 0.136840
H8    H     H_    0.380166 0.930439 0.387713 0.141430
H9    H     H_    0.441305 0.243382 0.316784 0.137906
H10   H     H_    0.615929 0.756270 0.612176 0.123381
H11   H     H_    0.558705 0.243393 0.683206 0.137907
H12   H     H_    0.441183 0.825748 0.919068 0.182979
H13   H     H_    0.384074 0.756273 0.387815 0.123377
H14   H     H_    0.440712 0.174508 0.919723 0.183838
H15   H     H_    0.558849 0.825740 0.080951 0.182979
H16   H     H_    0.060466 0.644099 0.424666 0.142022
H17   H     H_    0.941578 0.358042 0.425459 0.144709
H18   H     H_    0.939513 0.644050 0.575668 0.142027
H19   H     H_    0.058433 0.358003 0.574560 0.144706
H20   H     H_    0.222216 0.644283 0.426989 0.155492
N1    N     N_R   0.500000 0.252470 0.500000 -0.080697
N2    N     N_R   0.500000 0.747530 0.500000 -0.080252
O1    O     O_R   0.369060 0.579480 0.500010 -0.610339
O2    O     O_R   0.630940 0.420520 0.499990 -0.606975
O3    O     O_R   0.630940 0.579480 0.499990 -0.610325
O4    O     O_R   0.369060 0.420520 0.500010 -0.606979
O5    O     O_R   0.499990 0.579480 0.316780 -0.604823
O6    O     O_R   0.500010 0.420520 0.683220 -0.613231
O7    O     O_R   0.500010 0.579480 0.683220 -0.604828
O8    O     O_R   0.499990 0.420520 0.316780 -0.613224
Zn1   Zn    Zn3+2 0.500000 0.606140 0.500000 0.998364
Zn2   Zn    Zn3+2 0.500000 0.393860 0.500000 0.995401

loop_
_geom_bond_atom_site_label_1
_geom_bond_atom_site_label_2
_ccdc_geom_bond_type
C4    N2    A    
C1    C33   S    
C23   C25   A    
C4    C39   A    
C3    H11   S    
O6    Zn2   S    
C31   H3    S    
C5    C38   A    
C13   C19   A    
N1    Zn2   S    
O8    Zn2   S    
C9    C14   A    
C28   C32   A    
C32   C33   A    
C15   C17   A    
C7    O5    A    
C39   H8    S    
C23   C34   S    
C36   H5    S    
C25   C29   A    
C26   C34   A    
C3    C38   A    
C40   H9    S    
C11   C18   A    
C2    C37   A    
C1    O1    A    
C32   H4    S    
C30   H2    S    
C5    C6    S    
C6    C39   A    
C16   H12   S    
C38   H7    S    
C8    O6    A    
C8    O7    A    
C6    C37   A    
O7    Zn1   S    
C27   H18   S    
C40   N1    A    
C2    H10   S    
C17   H1    S    
C15   H14   S    
C11   C16   A    
C26   C30   A    
C30   C35   A    
C21   C22   A    
C5    C36   A    
C29   C33   A    
C9    C20   A    
C8    C22   S    
C31   C35   A    
C1    O4    A    
C4    H13   S    
C3    N1    A    
C25   H16   S    
C2    N2    A    
C19   C24   A    
C12   O2    A    
Br4   C13   S    
O4    Zn2   S    
C18   C20   A    
Br1   C9    S    
C37   H6    S    
Br3   C11   S    
C23   C28   A    
C10   C15   A    
C12   O3    A    
C20   C24   A    
C28   H19   S    
C7    O8    A    
O2    Zn2   S    
C27   C34   A    
O5    Zn1   S    
C7    C24   S    
C29   H20   S    
N2    Zn1   S    
C27   C31   A    
O3    Zn1   S    
C14   C16   A    
C19   C21   A    
C10   C21   A    
Br2   C10   S    
C13   C17   A    
C12   C35   S    
C14   H15   S    
C36   C40   A    
O1    Zn1   S    
C18   C22   A    
C26   H17   S    
