data_mof_unit_23164.cif
_audit_creation_date              2012-12-11T15:55:54-0500
_audit_creation_method            fapswitch 2.2
_symmetry_space_group_name_H-M    P1
_symmetry_Int_Tables_number       1
_space_group_crystal_system       triclinic
_cell_length_a                    11.221347
_cell_length_b                    11.349735
_cell_length_c                    18.613421
_cell_angle_alpha                 90.01377
_cell_angle_beta                  89.937992
_cell_angle_gamma                 58.332612
_cell_volume                      2017.63307825

loop_
_atom_site_label
_atom_site_type_symbol
_atom_type_description
_atom_site_fract_x
_atom_site_fract_y
_atom_site_fract_z
_atom_type_partial_charge
C1    C     C_R   0.388876 0.703201 0.390051 0.573361
C2    C     C_R   0.251936 0.445008 0.200086 -0.133315
C3    C     C_R   0.232873 0.459514 0.275299 -0.034363
C4    C     C_R   0.380075 0.355766 0.389978 0.584894
C5    C     C_R   0.805287 0.727436 0.356399 -0.070230
C6    C     C_R   0.831726 0.662961 0.290096 -0.098259
C7    C     C_R   0.968102 0.584546 0.263002 -0.141235
C8    C     C_R   0.084486 0.564802 0.302631 0.000691
C9    C     C_R   0.339063 0.346577 0.317181 0.050791
C10   C     C_R   0.963608 0.286417 0.196347 -0.019997
C11   C     C_R   0.860849 0.265748 0.219432 -0.019671
C12   C     C_R   0.579148 0.067722 0.189761 0.048076
C13   C     C_R   0.821979 0.276891 0.289893 -0.023442
C14   C     C_R   0.999955 0.315442 0.325546 0.035106
C15   C     C_R   0.045151 0.296911 0.251496 -0.096602
C16   C     C_R   0.789499 0.371307 0.408295 0.514571
C17   C     C_3   0.846617 0.146415 0.206788 -0.085306
C18   C     C_3   0.801814 0.160980 0.286118 -0.130624
C19   C     C_R   0.877794 0.315392 0.343334 0.032000
C20   C     C_R   0.352287 0.795779 0.164206 0.092058
C21   C     C_R   0.485018 0.725577 0.194116 0.005023
C22   C     C_R   0.500200 0.685123 0.267389 0.016938
C23   C     C_R   0.356365 0.319548 0.167892 0.030481
C24   C     C_R   0.261642 0.752867 0.273886 -0.096924
C25   C     C_R   0.245868 0.789440 0.202546 -0.064671
C26   C     C_3   0.602272 0.590919 0.168979 -0.079191
C27   C     C_3   0.607560 0.544010 0.244934 -0.300308
C28   C     C_R   0.341380 0.772057 0.602720 0.566078
C29   C     C_R   0.384743 0.717123 0.310375 0.023867
C30   C     C_R   0.316401 0.335593 0.818515 0.020588
C31   C     C_R   0.448896 0.267287 0.786889 0.027469
C32   C     C_R   0.460377 0.268166 0.714121 0.045220
C33   C     C_R   0.211941 0.426109 0.701662 -0.179720
C34   C     C_R   0.437564 0.224594 0.285127 -0.119306
C35   C     C_R   0.198674 0.425089 0.776256 -0.170682
C36   C     C_3   0.571167 0.120511 0.791434 -0.266203
C37   C     C_3   0.579997 0.121802 0.710533 -0.266384
C38   C     C_R   0.343057 0.338859 0.670001 0.022937
C39   C     C_R   0.811821 0.331664 0.837460 0.021366
C40   C     C_R   0.370837 0.351339 0.596078 0.561354
C41   C     C_R   0.744424 0.461889 0.804720 0.031160
C42   C     C_R   0.734345 0.472085 0.731293 0.039110
C43   C     C_R   0.834304 0.226959 0.719610 -0.165967
C44   C     C_R   0.845806 0.215076 0.794609 -0.167544
C45   C     C_R   0.460318 0.210933 0.212707 -0.035149
C46   C     C_3   0.765794 0.581817 0.809735 -0.259533
C47   C     C_3   0.759433 0.588632 0.728734 -0.274851
C48   C     C_R   0.787237 0.355503 0.687256 0.025717
C49   C     C_R   0.289298 0.871455 0.820013 0.027949
C50   C     C_R   0.181006 0.873517 0.782598 0.018387
C51   C     C_R   0.186516 0.860360 0.709076 0.018847
C52   C     C_R   0.758824 0.379215 0.610989 0.544501
C53   C     C_R   0.391714 0.876582 0.705380 -0.163267
C54   C     C_R   0.388794 0.884868 0.780195 -0.154169
C55   C     C_3   0.118643 0.786772 0.792765 -0.276888
C56   C     C_R   0.050536 0.645650 0.365992 -0.100576
C57   C     C_3   0.124772 0.771162 0.711845 -0.265112
C58   C     C_R   0.300587 0.846686 0.670307 0.026252
C59   C     C_R   0.982817 0.284162 0.117064 0.573475
C60   C     C_R   0.328097 0.290711 0.094197 0.556264
C61   C     C_R   0.312240 0.883701 0.098776 0.582180
C62   C     C_R   0.881736 0.310505 0.906033 0.593283
C63   C     C_R   0.297129 0.290166 0.887055 0.557688
C64   C     C_R   0.799092 0.813733 0.141767 -0.102174
C65   C     C_R   0.272891 0.900656 0.896404 0.546447
C66   C     C_R   0.820702 0.877826 0.198854 -0.114712
C67   C     C_R   0.914874 0.720992 0.393792 -0.154838
C68   C     C_R   0.704562 0.991678 0.229293 -0.111878
C69   C     C_2   0.087519 0.313839 0.384457 0.247717
C70   C     C_2   0.735668 0.190400 0.150438 0.259930
C71   C     C_2   0.902701 0.043689 0.334923 0.221426
C72   C     C_2   0.649195 0.807515 0.051123 0.209955
C73   C     C_2   0.565299 0.522163 0.111198 0.566261
C74   C     C_2   0.443963 0.981770 0.208283 0.537649
C75   C     C_R   0.547902 0.978705 0.157239 0.139492
C76   C     C_R   0.661201 0.856832 0.122720 -0.015961
Cr1   Cr    Cr6+3 0.601740 0.606840 0.505840 1.009367
Cr2   Cr    Cr6+3 0.291500 0.601560 0.495070 0.988367
Cr3   Cr    Cr6+3 0.606780 0.291630 0.499130 1.008858
Cr4   Cr    Cr6+3 0.062440 0.063060 0.008240 1.082756
Cr5   Cr    Cr6+3 0.062950 0.375000 0.998920 1.056494
Cr6   Cr    Cr6+3 0.374550 0.061770 0.992470 1.004649
H1    H     H_    0.499716 0.135557 0.318992 0.178276
H2    H     H_    0.696061 0.595300 0.155319 0.162909
H3    H     H_    0.571274 0.470353 0.252498 0.138692
H4    H     H_    0.703297 0.521914 0.272075 0.126691
H5    H     H_    0.120705 0.491973 0.669053 0.120534
H6    H     H_    0.095464 0.484419 0.799714 0.127277
H7    H     H_    0.545189 0.044133 0.810125 0.153045
H8    H     H_    0.662678 0.113452 0.818701 0.142703
H9    H     H_    0.677423 0.112345 0.690415 0.148636
H10   H     H_    0.894111 0.779653 0.442993 0.097073
H11   H     H_    0.551379 0.052470 0.683741 0.131693
H12   H     H_    0.699201 0.789673 0.376408 0.170589
H13   H     H_    0.869632 0.135292 0.687104 0.122645
H14   H     H_    0.895396 0.112589 0.817858 0.139259
H15   H     H_    0.869596 0.556309 0.829584 0.161004
H16   H     H_    0.675830 0.673179 0.836036 0.147154
H17   H     H_    0.668911 0.684944 0.707771 0.147548
H18   H     H_    0.861412 0.558470 0.703334 0.134282
H19   H     H_    0.472943 0.880101 0.675944 0.115417
H20   H     H_    0.466762 0.897653 0.806685 0.124192
H21   H     H_    0.009948 0.847444 0.814022 0.136232
H22   H     H_    0.888349 0.728154 0.114842 0.144024
H23   H     H_    0.745099 0.684040 0.256698 0.148758
H24   H     H_    0.189761 0.688392 0.821592 0.149800
H25   H     H_    0.200199 0.663829 0.694041 0.173116
H26   H     H_    0.019693 0.821523 0.686342 0.128763
H27   H     H_    0.923281 0.834295 0.222646 0.117530
H28   H     H_    0.709996 0.010182 0.284821 0.094354
H29   H     H_    0.121293 0.664264 0.392803 0.193819
H30   H     H_    0.174519 0.526587 0.165902 0.132582
H31   H     H_    0.041840 0.390277 0.427088 0.117904
H32   H     H_    0.632769 0.279802 0.159530 0.136293
H33   H     H_    0.864842 0.992878 0.369022 0.101085
H34   H     H_    0.980552 0.539994 0.210231 0.113517
H35   H     H_    0.584583 0.880349 0.010088 0.158824
H36   H     H_    0.427624 0.476251 0.071593 0.334806
H37   H     H_    0.406934 0.957389 0.311821 0.376729
H38   H     H_    0.139093 0.294620 0.237310 0.168327
H39   H     H_    0.947912 0.050555 0.193675 0.175467
H40   H     H_    0.689234 0.204055 0.296992 0.094218
H41   H     H_    0.172487 0.761622 0.300549 0.158494
H42   H     H_    0.144253 0.822790 0.179821 0.129063
O1    O     O_R   0.748670 0.497520 0.427970 -0.536339
O2    O     O_R   0.417470 0.174910 0.067830 -0.515162
O3    O     O_R   0.375160 0.946380 0.070880 -0.523872
O4    O     O_R   0.476470 0.723930 0.429450 -0.475113
O5    O     O_R   0.160500 0.919670 0.926690 -0.516766
O6    O     O_R   0.933140 0.190380 0.936050 -0.486943
O7    O     O_R   0.909010 0.403210 0.925030 -0.486922
O8    O     O_R   0.179590 0.361290 0.918480 -0.514475
O9    O     O_R   0.391360 0.170840 0.907510 -0.533460
O10   O     O_R   0.350950 0.942600 0.922260 -0.531736
O11   O     O_3   0.166650 0.166610 0.999880 -0.296493
O12   O     O_R   0.300170 0.471020 0.567120 -0.513459
O13   O     O_R   0.264730 0.744140 0.416740 -0.517290
O14   O     O_R   0.309440 0.472410 0.418220 -0.554027
O15   O     O_R   0.501630 0.260530 0.414310 -0.530344
O16   O     O_R   0.727920 0.305730 0.428950 -0.499207
O17   O     O_R   0.738670 0.496020 0.588600 -0.522323
O18   O     O_R   0.467190 0.722540 0.578350 -0.499920
O19   O     O_R   0.254720 0.742640 0.577370 -0.521013
O20   O     O_2   0.209507 0.219713 0.388805 -0.502419
O21   O     O_2   0.760311 0.125535 0.094398 -0.472826
O22   O     O_2   0.025792 0.008139 0.338328 -0.487152
O23   O     O_R   0.491630 0.259030 0.574940 -0.512503
O24   O     O_2   0.721214 0.685368 0.034899 -0.496143
O25   O     O_2   0.642420 0.471250 0.059166 -0.440119
O26   O     O_R   0.442406 0.519663 0.115600 -0.740187
O27   O     O_2   0.318764 0.058394 0.196892 -0.534536
O28   O     O_R   0.488122 0.929024 0.277662 -0.745998
O29   O     O_R   0.718640 0.304340 0.577850 -0.506147
O30   O     O_3   0.500010 0.500010 0.500020 -0.287706
O31   O     O_R   0.186620 0.923750 0.087000 -0.530486
O32   O     O_R   0.957350 0.194160 0.084660 -0.435124
O33   O     O_R   0.935120 0.407280 0.085350 -0.465061
O34   O     O_R   0.203800 0.365060 0.067090 -0.530053

loop_
_geom_bond_atom_site_label_1
_geom_bond_atom_site_label_2
_ccdc_geom_bond_type
C36   H7    S    
C66   C68   A    
C21   C26   S    
C75   C76   A    
C23   C45   A    
C22   C29   A    
C73   O26   S    
C59   O33   A    
C41   C42   A    
C62   O6    A    
Cr3   O15   S    
C1    O4    A    
C5    C67   A    
C8    C56   A    
C5    H12   S    
Cr1   O1    S    
C7    C8    A    
C39   C41   A    
C53   C54   A    
C70   H32   S    
C69   O20   D    
C12   C68   A    
C69   H31   S    
C26   C27   S    
Cr4   O11   S    
C49   C65   S    
C13   C18   S    
C3    C9    A    
C63   O9    A    
C36   C37   S    
C60   O34   A    
C10   C15   A    
C30   C31   A    
Cr5   O7    S    
C20   C25   A    
C49   C54   A    
C55   H21   S    
Cr6   O11   S    
C26   C73   S    
C47   H17   S    
C15   H38   S    
H36   O26   S    
C20   C61   S    
C27   H3    S    
Cr1   O18   S    
Cr6   O2    S    
C24   C29   A    
C53   H19   S    
C72   H35   S    
C43   H13   S    
C41   C46   S    
Cr5   O11   S    
C51   C57   S    
C32   C38   A    
C16   O1    A    
C56   H29   S    
C65   O10   A    
C72   C76   S    
Cr3   O16   S    
C46   H16   S    
C17   C70   S    
C21   C22   A    
C74   O28   S    
C16   O16   A    
C61   O31   A    
C52   O17   A    
Cr4   O32   S    
C23   C60   S    
Cr4   O6    S    
C74   C75   S    
C37   H9    S    
C55   H24   S    
C71   H33   S    
Cr5   O33   S    
C24   C25   A    
C3    C8    S    
C70   O21   D    
C13   C19   A    
Cr2   O30   S    
Cr5   O8    S    
C42   C48   A    
C52   O29   A    
C63   O8    A    
C24   H41   S    
C47   H18   S    
C64   C66   A    
C7    H34   S    
Cr6   O10   S    
C27   H4    S    
C43   C44   A    
C44   H14   S    
Cr1   O30   S    
Cr3   O29   S    
C40   O12   A    
C35   H6    S    
H37   O28   S    
C65   O5    A    
C31   C32   A    
C53   C58   A    
C2    H30   S    
C71   O22   D    
C1    C29   S    
C50   C51   A    
C64   C76   A    
C37   H11   S    
C61   O3    A    
C51   C58   A    
C68   H28   S    
C32   C37   S    
C6    C7    A    
Cr1   O4    S    
C34   C45   A    
C18   H40   S    
C30   C35   A    
C17   H39   S    
C57   H25   S    
C46   H15   S    
C22   C27   S    
C55   C57   S    
C9    C34   A    
C14   C69   S    
C74   O27   D    
C28   O18   A    
C34   H1    S    
Cr2   O13   S    
C1    O13   A    
Cr4   O31   S    
C43   C48   A    
C36   H8    S    
C18   C71   S    
C64   H22   S    
C39   C62   S    
C46   C47   S    
C11   C17   S    
C26   H2    S    
Cr5   O34   S    
C40   O23   A    
C73   O25   D    
C31   C36   S    
C14   C19   A    
C54   H20   S    
C33   C38   A    
C12   C45   S    
Cr3   O23   S    
C59   O32   A    
C39   C44   A    
C28   C58   S    
C56   C67   A    
C50   C55   S    
C17   C18   S    
Cr6   O9    S    
C60   O2    A    
C2    C3    A    
C33   H5    S    
C72   O24   D    
Cr2   O19   S    
Cr2   O14   S    
Cr3   O30   S    
C38   C40   S    
C11   C13   A    
C5    C6    A    
C28   O19   A    
C16   C19   S    
C67   H10   S    
C33   C35   A    
C6    H23   S    
C10   C59   S    
C42   C47   S    
C66   H27   S    
Cr4   O5    S    
C25   H42   S    
Cr1   O17   S    
Cr6   O3    S    
C10   C11   A    
C4    O14   A    
C48   C52   S    
C57   H26   S    
C20   C21   A    
C49   C50   A    
C12   C75   A    
C2    C23   A    
C14   C15   A    
C4    C9    S    
C30   C63   S    
Cr2   O12   S    
C62   O7    A    
C4    O15   A    
