data_mof_unit_16397.cif
_audit_creation_date              2012-12-11T16:05:12-0500
_audit_creation_method            fapswitch 2.2
_symmetry_space_group_name_H-M    P1
_symmetry_Int_Tables_number       1
_space_group_crystal_system       triclinic
_cell_length_a                    10.641091
_cell_length_b                    10.653658
_cell_length_c                    16.909401
_cell_angle_alpha                 98.739962
_cell_angle_beta                  98.593567
_cell_angle_gamma                 61.493429
_cell_volume                      1658.45239976

loop_
_atom_site_label
_atom_site_type_symbol
_atom_type_description
_atom_site_fract_x
_atom_site_fract_y
_atom_site_fract_z
_atom_type_partial_charge
C1    C     C_R   0.354924 0.775018 0.398537 0.572044
C2    C     C_3   0.414064 0.684030 0.252011 -0.146816
C3    C     C_3   0.349209 0.808216 0.318081 0.096990
C4    C     C_R   0.371382 0.347259 0.358527 0.557489
C5    C     C_3   0.411418 0.889623 0.285480 0.238548
C6    C     C_3   0.271166 0.964796 0.233228 -0.103961
C7    C     C_3   0.208818 0.879669 0.265495 -0.154550
C8    C     C_3   0.271992 0.756709 0.198683 -0.131598
C9    C     C_3   0.334062 0.841017 0.166818 0.021552
C10   C     C_3   0.459819 0.251536 0.773244 -0.109450
C11   C     C_3   0.407255 0.392512 0.735158 -0.113728
C12   C     C_3   0.762960 0.290885 0.248644 -0.119141
C13   C     C_3   0.336341 0.334636 0.663179 0.052834
C14   C     C_3   0.389002 0.194468 0.700663 -0.111020
C15   C     C_3   0.247010 0.264035 0.740900 -0.108186
C16   C     C_R   0.776904 0.376945 0.401822 0.544277
C17   C     C_3   0.194626 0.405252 0.702203 -0.119230
C18   C     C_3   0.265362 0.462006 0.775727 -0.127457
C19   C     C_3   0.318706 0.321167 0.812751 0.052856
C20   C     C_1   0.817236 0.341969 0.709626 -0.046018
C21   C     C_1   0.843559 0.314941 0.778119 -0.048128
C22   C     C_1   0.357448 0.765547 0.714351 -0.047984
C23   C     C_3   0.831386 0.342748 0.324029 0.055876
C24   C     C_1   0.326230 0.811830 0.781997 -0.048702
C25   C     C_R   0.958168 0.284780 0.102358 0.556148
C26   C     C_R   0.319904 0.300501 0.119869 0.533986
C27   C     C_R   0.298249 0.884986 0.086243 0.534609
C28   C     C_R   0.379291 0.716208 0.631623 0.549656
C29   C     C_R   0.884573 0.299529 0.860970 0.552486
C30   C     C_R   0.308389 0.294031 0.891875 0.545295
C31   C     C_R   0.282365 0.880368 0.859715 0.543859
C32   C     C_R   0.366420 0.345565 0.584950 0.544281
C33   C     C_R   0.774049 0.379634 0.629615 0.535177
C34   C     C_3   0.982413 0.237203 0.301940 -0.148364
C35   C     C_1   0.346186 0.337717 0.274687 -0.067441
C36   C     C_1   0.333865 0.328192 0.203436 -0.069019
C37   C     C_3   0.915355 0.184293 0.224783 -0.124877
C38   C     C_3   0.980661 0.353990 0.256675 -0.135469
C39   C     C_3   0.828309 0.460132 0.279777 -0.102724
C40   C     C_3   0.761571 0.406996 0.203630 -0.115306
C41   C     C_3   0.913328 0.301533 0.181452 0.054919
C42   C     C_3   0.476775 0.768724 0.218609 -0.128167
Cr1   Cr    Cr6+3 0.608340 0.611040 0.520430 1.044589
Cr2   Cr    Cr6+3 0.287650 0.601120 0.489350 1.025958
Cr3   Cr    Cr6+3 0.604040 0.287870 0.490280 1.044878
Cr4   Cr    Cr6+3 0.054020 0.052700 0.970850 1.022644
Cr5   Cr    Cr6+3 0.059230 0.375120 0.993390 1.019713
Cr6   Cr    Cr6+3 0.374950 0.061200 0.992340 1.022903
H1    H     H_    0.672925 0.265392 0.247460 0.127834
H2    H     H_    0.216784 0.570550 0.808527 0.130216
H3    H     H_    0.946482 0.073669 0.196749 0.133839
H4    H     H_    0.069983 0.170887 0.345368 0.123761
H5    H     H_    0.068861 0.381571 0.257920 0.119749
H6    H     H_    0.792140 0.574092 0.303292 0.146100
H7    H     H_    0.673288 0.473062 0.160482 0.121854
H8    H     H_    0.471445 0.568633 0.262462 0.110589
H9    H     H_    0.584915 0.727080 0.197884 0.111527
H10   H     H_    0.514609 0.998000 0.295759 0.331352
H11   H     H_    0.220195 0.079569 0.222500 0.106740
H12   H     H_    0.102562 0.920462 0.288459 0.124107
H13   H     H_    0.216026 0.700218 0.161146 0.135900
H14   H     H_    0.474157 0.445034 0.730791 0.101778
H15   H     H_    0.568395 0.190716 0.803972 0.133572
H16   H     H_    0.437728 0.085579 0.668235 0.140805
H17   H     H_    0.180611 0.211100 0.745596 0.120141
H18   H     H_    0.086693 0.466048 0.670832 0.135915
O1    O     O_R   0.751220 0.499230 0.435170 -0.517008
O2    O     O_R   0.412990 0.180750 0.091610 -0.509411
O3    O     O_R   0.366620 0.943130 0.065760 -0.504337
O4    O     O_R   0.477220 0.727600 0.436870 -0.470678
O5    O     O_R   0.160510 0.906330 0.879210 -0.509879
O6    O     O_R   0.930190 0.179050 0.889450 -0.490256
O7    O     O_R   0.909140 0.398170 0.896710 -0.503705
O8    O     O_R   0.186190 0.363460 0.918830 -0.500582
O9    O     O_R   0.401670 0.173200 0.913310 -0.513522
O10   O     O_R   0.356120 0.936130 0.900470 -0.491411
O11   O     O_3   0.162740 0.163010 0.985530 -0.276078
O12   O     O_R   0.297880 0.469080 0.560050 -0.516155
O13   O     O_R   0.258650 0.745120 0.411470 -0.524912
O14   O     O_R   0.297070 0.467240 0.395960 -0.501564
O15   O     O_R   0.488830 0.252610 0.387790 -0.488128
O16   O     O_R   0.724400 0.302390 0.420980 -0.504250
O17   O     O_R   0.752100 0.501210 0.612190 -0.516952
O18   O     O_R   0.478040 0.729440 0.600970 -0.491804
O19   O     O_R   0.259530 0.747110 0.588490 -0.499467
O20   O     O_3   0.482076 0.959489 0.333729 -0.679681
O21   O     O_R   0.489720 0.254590 0.564810 -0.502031
O22   O     O_R   0.725220 0.304230 0.585080 -0.496215
O23   O     O_3   0.500010 0.500010 0.500020 -0.286837
O24   O     O_R   0.171830 0.913880 0.057510 -0.525915
O25   O     O_R   0.940690 0.186050 0.054730 -0.499641
O26   O     O_R   0.920470 0.405720 0.075010 -0.514304
O27   O     O_R   0.196690 0.370460 0.084120 -0.517290

loop_
_geom_bond_atom_site_label_1
_geom_bond_atom_site_label_2
_ccdc_geom_bond_type
C5    C42   S    
C11   C18   S    
C28   O18   A    
C34   C37   S    
Cr1   O17   S    
Cr5   O26   S    
Cr6   O10   S    
C13   C32   S    
Cr3   O16   S    
Cr6   O3    S    
C11   H14   S    
C6    C9    S    
C12   H1    S    
C7    C8    S    
C15   C19   S    
C12   C23   S    
C9    C27   S    
C9    C42   S    
Cr1   O23   S    
Cr3   O21   S    
C33   O22   A    
C4    O14   A    
C3    C7    S    
C38   C39   S    
C30   O8    A    
C23   C39   S    
C39   H6    S    
C29   O7    A    
C15   H17   S    
C27   O24   A    
C18   C19   S    
C12   C37   S    
C4    O15   A    
C10   H15   S    
C8    C9    S    
Cr3   O23   S    
Cr4   O6    S    
C27   O3    A    
C8    H13   S    
C29   O6    A    
C40   H7    S    
C26   O27   A    
C31   O5    A    
C4    C35   S    
C22   C28   S    
C13   C14   S    
C37   C41   S    
Cr1   O18   S    
Cr6   O9    S    
H10   O20   S    
C42   H9    S    
C2    C8    S    
C25   O25   A    
Cr2   O14   S    
Cr3   O22   S    
Cr5   O7    S    
C38   C41   S    
C10   C14   S    
C25   C41   S    
C39   C40   S    
Cr4   O25   S    
C32   O21   A    
C21   C29   S    
C1    C3    S    
C35   C36   T    
Cr6   O11   S    
C12   C40   S    
C10   C19   S    
C23   C34   S    
C14   H16   S    
C16   O16   A    
C17   C18   S    
Cr5   O27   S    
C16   O1    A    
Cr6   O2    S    
C33   O17   A    
Cr4   O5    S    
C5    O20   S    
C26   C36   S    
C40   C41   S    
C16   C23   S    
C1    O13   A    
C22   C24   T    
C20   C33   S    
Cr2   O19   S    
C7    H12   S    
C18   H2    S    
C15   C17   S    
C25   O26   A    
C34   C38   S    
C6    H11   S    
Cr2   O13   S    
Cr3   O15   S    
Cr5   O8    S    
C3    C5    S    
Cr4   O11   S    
C6    C7    S    
Cr4   O24   S    
Cr1   O4    S    
C34   H4    S    
C1    O4    A    
C13   C17   S    
C26   O2    A    
Cr2   O12   S    
C2    C3    S    
C24   C31   S    
C2    H8    S    
C30   O9    A    
C11   C13   S    
C31   O10   A    
C5    C6    S    
C38   H5    S    
C2    C42   S    
C37   H3    S    
C17   H18   S    
C10   C11   S    
C32   O12   A    
C20   C21   T    
Cr1   O1    S    
C28   O19   A    
Cr5   O11   S    
C14   C15   S    
C19   C30   S    
Cr2   O23   S    
