data_mof_unit_63689.cif
_audit_creation_date              2012-12-10T16:36:38-0500
_audit_creation_method            fapswitch 2.2
_symmetry_space_group_name_H-M    P1
_symmetry_Int_Tables_number       1
_space_group_crystal_system       triclinic
_cell_length_a                    14.120523
_cell_length_b                    16.492706
_cell_length_c                    15.099459
_cell_angle_alpha                 90.000049
_cell_angle_beta                  92.236912
_cell_angle_gamma                 90.0
_cell_volume                      3513.76747919

loop_
_atom_site_label
_atom_site_type_symbol
_atom_type_description
_atom_site_fract_x
_atom_site_fract_y
_atom_site_fract_z
_atom_type_partial_charge
C1    C     C_R   0.680633 0.845347 0.520845 0.501757
C2    C     C_R   0.962568 0.470004 0.109306 -0.124094
C3    C     C_R   0.594474 0.935545 0.128103 -0.020231
C4    C     C_R   0.094473 0.564456 0.128103 -0.020231
C5    C     C_R   0.594285 0.924284 0.036384 -0.132617
C6    C     C_R   0.094284 0.575717 0.036384 -0.132618
C7    C     C_2   0.246504 0.218268 0.471757 -0.030761
C8    C     C_2   0.246436 0.781777 0.471789 -0.027828
C9    C     C_2   0.746436 0.718222 0.471789 -0.027827
C10   C     C_2   0.746504 0.281731 0.471757 -0.030760
C11   C     C_2   0.751247 0.782435 0.526078 -0.106300
C12   C     C_R   0.680645 0.154644 0.520876 0.501341
C13   C     C_2   0.751236 0.217581 0.526143 -0.108616
C14   C     C_2   0.251237 0.282419 0.526143 -0.108616
C15   C     C_2   0.251247 0.717565 0.526078 -0.106300
C16   C     C_R   0.319613 0.156058 0.480105 0.499927
C17   C     C_R   0.319609 0.843941 0.480099 0.502421
C18   C     C_R   0.819609 0.656058 0.480099 0.502421
C19   C     C_R   0.819613 0.343941 0.480105 0.499928
C20   C     C_R   0.520467 0.998144 0.260643 0.512180
C21   C     C_R   0.020467 0.501856 0.260643 0.512180
C22   C     C_R   0.478393 0.000224 0.738752 0.496864
C23   C     C_R   0.180645 0.345356 0.520876 0.501341
C24   C     C_R   0.978393 0.499776 0.738752 0.496864
C25   C     C_R   0.527739 0.988596 0.164829 0.016716
C26   C     C_R   0.027739 0.511404 0.164829 0.016716
C27   C     C_R   0.469142 0.002249 0.834212 0.035543
C28   C     C_R   0.969142 0.497750 0.834212 0.035542
C29   C     C_R   0.400822 0.064101 0.962301 -0.124411
C30   C     C_R   0.900823 0.435899 0.962301 -0.124411
C31   C     C_R   0.404639 0.056131 0.870823 -0.119151
C32   C     C_R   0.904640 0.443869 0.870823 -0.119151
C33   C     C_R   0.530175 0.956149 0.889101 -0.117058
C34   C     C_R   0.180633 0.654653 0.520845 0.501757
C35   C     C_R   0.030175 0.543852 0.889101 -0.117059
C36   C     C_1   0.660991 0.889330 0.182933 0.234390
C37   C     C_1   0.160990 0.610671 0.182934 0.234390
C38   C     C_1   0.670218 0.708949 0.405171 0.244706
C39   C     C_1   0.670482 0.290849 0.404923 0.229333
C40   C     C_1   0.170481 0.209150 0.404924 0.229333
C41   C     C_1   0.170217 0.791051 0.405172 0.244706
C42   C     C_R   0.529302 0.966069 0.980960 0.032717
C43   C     C_R   0.029302 0.533931 0.980960 0.032717
C44   C     C_R   0.463634 0.020041 0.017757 0.042669
C45   C     C_R   0.963634 0.479959 0.017757 0.042669
C46   C     C_R   0.462567 0.029996 0.109307 -0.124093
H1    H     H_    0.411531 0.070752 0.137591 0.129866
H2    H     H_    0.081036 0.584302 0.860127 0.115130
H3    H     H_    0.308307 0.289459 0.575895 0.118583
H4    H     H_    0.308478 0.710397 0.575644 0.118519
H5    H     H_    0.808478 0.789603 0.575644 0.118519
H6    H     H_    0.808306 0.210542 0.575897 0.118583
H7    H     H_    0.911532 0.429247 0.137591 0.129866
H8    H     H_    0.350395 0.105914 0.989536 0.119145
H9    H     H_    0.850397 0.394085 0.989536 0.119146
H10   H     H_    0.644830 0.882996 0.008225 0.117884
H11   H     H_    0.144828 0.617005 0.008225 0.117885
H12   H     H_    0.357599 0.092309 0.828409 0.126811
H13   H     H_    0.857600 0.407690 0.828409 0.126811
H14   H     H_    0.581038 0.915699 0.860127 0.115130
N1    N     N_1   0.714298 0.852297 0.226807 -0.250860
N2    N     N_1   0.214296 0.647703 0.226807 -0.250860
N3    N     N_1   0.609441 0.701596 0.352110 -0.260690
N4    N     N_1   0.609871 0.298075 0.351676 -0.279761
N5    N     N_1   0.109868 0.201923 0.351679 -0.279761
N6    N     N_1   0.109441 0.798405 0.352111 -0.260690
O1    O     O_3   0.500000 0.000000 0.500000 -0.452889
O2    O     O_R   0.885830 0.337110 0.539910 -0.546376
O3    O     O_R   0.692160 0.095230 0.468550 -0.526942
O4    O     O_R   0.692160 0.904770 0.468550 -0.518364
O5    O     O_R   0.192160 0.595230 0.468550 -0.518363
O6    O     O_R   0.192160 0.404770 0.468550 -0.526942
O7    O     O_R   0.316720 0.904790 0.427870 -0.524239
O8    O     O_R   0.316720 0.095210 0.427870 -0.527147
O9    O     O_R   0.816720 0.404790 0.427870 -0.527147
O10   O     O_R   0.816720 0.595210 0.427870 -0.524239
O11   O     O_R   0.594900 0.000000 0.310900 -0.523047
O12   O     O_3   0.000000 0.500000 0.500000 -0.452889
O13   O     O_R   0.094900 0.500000 0.310900 -0.523047
O14   O     O_R   0.483090 0.932320 0.697550 -0.542996
O15   O     O_R   0.483090 0.067680 0.697550 -0.543673
O16   O     O_R   0.983090 0.432320 0.697550 -0.543673
O17   O     O_R   0.983090 0.567680 0.697550 -0.542996
O18   O     O_R   0.438930 0.000000 0.294000 -0.536979
O19   O     O_R   0.938930 0.500000 0.294000 -0.536978
O20   O     O_R   0.605310 0.837110 0.563680 -0.534819
O21   O     O_R   0.605310 0.162890 0.563680 -0.531433
O22   O     O_R   0.105310 0.337110 0.563680 -0.531433
O23   O     O_R   0.105310 0.662890 0.563680 -0.534819
O24   O     O_R   0.385830 0.162890 0.539910 -0.546376
O25   O     O_R   0.385830 0.837110 0.539910 -0.544487
O26   O     O_R   0.885830 0.662890 0.539910 -0.544487
Zn1   Zn    Zn3+2 0.493670 0.096680 0.574000 0.945945
Zn2   Zn    Zn3+2 0.493670 0.903320 0.574000 0.948026
Zn3   Zn    Zn3+2 0.993670 0.596680 0.574000 0.948026
Zn4   Zn    Zn3+2 0.993670 0.403320 0.574000 0.945945
Zn5   Zn    Zn3+2 0.617760 0.000000 0.438070 0.985489
Zn6   Zn    Zn3+2 0.117760 0.500000 0.438070 0.985489
Zn7   Zn    Zn3+2 0.394920 0.000000 0.413930 0.979806
Zn8   Zn    Zn3+2 0.894920 0.500000 0.413930 0.979806

loop_
_geom_bond_atom_site_label_1
_geom_bond_atom_site_label_2
_ccdc_geom_bond_type
C5    C42   A    
O22   Zn4   S    
C16   O24   A    
C5    H10   S    
C17   O25   A    
C21   C26   S    
C37   N2    T    
O6    Zn6   S    
C27   C33   A    
C39   N4    T    
O2    Zn4   S    
C20   O11   A    
C16   O8    A    
C33   C42   A    
C31   H12   S    
C24   O17   A    
O20   Zn2   S    
C14   H3    S    
C20   C25   S    
C34   O5    A    
C15   H4    S    
C24   O16   A    
O9    Zn8   S    
C30   C45   A    
C7    C14   D    
C28   C35   A    
O12   Zn4   S    
C1    C11   S    
O12   Zn6   S    
O1    Zn2   S    
C7    C40   S    
O11   Zn5   S    
C35   C43   A    
C10   C19   S    
C15   C34   S    
O4    Zn5   S    
O1    Zn7   S    
C17   O7    A    
C6    H11   S    
C42   C44   A    
C35   H2    S    
C44   C46   A    
C2    C45   A    
O5    Zn6   S    
C21   O19   A    
O16   Zn4   S    
C27   C31   A    
C22   O15   A    
C28   C32   A    
C8    C41   S    
C4    C6    A    
C10   C13   D    
O26   Zn3   S    
C10   C39   S    
C14   C23   S    
O23   Zn3   S    
C13   H6    S    
O15   Zn1   S    
C3    C25   A    
O12   Zn3   S    
O17   Zn3   S    
C21   O13   A    
C19   O2    A    
C2    C26   A    
C4    C37   S    
C43   C45   A    
C9    C11   D    
O8    Zn7   S    
C7    C16   S    
C12   O3    A    
C8    C15   D    
C40   N5    T    
C20   O18   A    
C29   C44   A    
O12   Zn8   S    
O10   Zn8   S    
O14   Zn2   S    
C36   N1    T    
O24   Zn1   S    
C38   N3    T    
C1    O20   A    
O7    Zn7   S    
C46   H1    S    
C18   O10   A    
C12   O21   A    
O18   Zn7   S    
C23   O6    A    
C24   C28   S    
C3    C5    A    
C2    H7    S    
C23   O22   A    
C4    C26   A    
C41   N6    T    
C33   H14   S    
C30   H9    S    
C1    O4    A    
C22   C27   S    
C18   O26   A    
C19   O9    A    
C34   O23   A    
C22   O14   A    
C29   C31   A    
O19   Zn8   S    
C8    C17   S    
C30   C32   A    
C3    C36   S    
O21   Zn1   S    
C9    C38   S    
C11   H5    S    
O1    Zn5   S    
C9    C18   S    
C12   C13   S    
C29   H8    S    
O1    Zn1   S    
C6    C43   A    
O13   Zn6   S    
C32   H13   S    
C25   C46   A    
O25   Zn2   S    
O3    Zn5   S    
