data_mof_unit_32648.cif
_audit_creation_date              2012-12-10T16:51:29-0500
_audit_creation_method            fapswitch 2.2
_symmetry_space_group_name_H-M    P1
_symmetry_Int_Tables_number       1
_space_group_crystal_system       triclinic
_cell_length_a                    7.813829
_cell_length_b                    8.572406
_cell_length_c                    12.526229
_cell_angle_alpha                 92.503635
_cell_angle_beta                  102.481448
_cell_angle_gamma                 93.915917
_cell_volume                      815.833374943

loop_
_atom_site_label
_atom_site_type_symbol
_atom_type_description
_atom_site_fract_x
_atom_site_fract_y
_atom_site_fract_z
_atom_type_partial_charge
C1    C     C_R   0.044306 0.794601 0.497087 0.952396
C2    C     C_R   0.190277 0.593755 0.821338 -0.130854
C3    C     C_2   0.067420 0.958138 0.495350 -0.364977
C4    C     C_R   0.114646 0.533545 0.707213 0.863980
C5    C     C_2   0.932423 0.041833 0.504291 -0.374623
C6    C     C_R   0.955630 0.205401 0.502769 0.977697
C7    C     C_R   0.889833 0.484319 0.291379 0.877853
C8    C     C_R   0.844229 0.395253 0.989321 -0.226540
C9    C     C_R   0.828151 0.474232 0.173764 -0.152929
C10   C     C_R   0.082628 0.652549 0.886955 -0.213647
C11   C     C_R   0.147810 0.683050 0.999030 -0.116096
C12   C     C_R   0.430944 0.593411 0.981737 0.081254
C13   C     C_R   0.317453 0.646715 0.047363 -0.144912
C14   C     C_2   0.065643 0.301126 0.136970 0.918630
C15   C     C_R   0.371830 0.588411 0.867413 0.093541
C16   C     C_R   0.598627 0.538813 0.023537 0.088440
C17   C     C_R   0.694635 0.473775 0.950675 0.136070
C18   C     C_R   0.645778 0.497507 0.840338 -0.260571
C19   C     C_R   0.496969 0.573097 0.802973 -0.179102
C20   C     C_R   0.672642 0.544165 0.134341 -0.231484
C21   C     C_R   0.912060 0.392915 0.101210 -0.024776
H1    H     H_    0.805074 0.990847 0.512822 0.178052
H2    H     H_    0.480151 0.617886 0.723512 0.165797
H3    H     H_    0.194756 0.009114 0.486788 0.179991
H4    H     H_    0.163378 0.089312 0.137504 0.338114
H5    H     H_    0.471279 0.365061 0.427073 0.210283
H6    H     H_    0.528907 0.642435 0.564495 0.171154
H7    H     H_    0.725987 0.464187 0.784142 0.186111
H8    H     H_    0.911331 0.339974 0.932163 0.159296
H9    H     H_    0.612438 0.605616 0.191586 0.170357
H10   H     H_    0.948215 0.674173 0.851821 0.168730
H11   H     H_    0.354405 0.660344 0.135435 0.157253
H12   H     H_    0.063068 0.726562 0.049566 0.166636
N1    N     N_2   0.434800 0.456690 0.470850 -0.156341
N2    N     N_2   0.565200 0.543310 0.529150 -0.186588
O1    O     O_R   0.893060 0.738880 0.507150 -0.617144
O2    O     O_R   0.049412 0.139810 0.110995 -0.812800
O3    O     O_R   0.172250 0.711130 0.488470 -0.637075
O4    O     O_R   0.944700 0.520730 0.667600 -0.632517
O5    O     O_R   0.223890 0.492980 0.648920 -0.623922
O6    O     O_R   0.827750 0.288870 0.511530 -0.628167
O7    O     O_R   0.106940 0.261120 0.492850 -0.607054
O8    O     O_R   0.776110 0.507020 0.351080 -0.618003
O9    O     O_R   0.055300 0.479270 0.332400 -0.578996
O10   O     O_2   0.207801 0.366456 0.183495 -0.628799
Zn1   Zn    Zn3+2 0.813580 0.518530 0.512470 0.937433
Zn2   Zn    Zn3+2 0.186420 0.481470 0.487530 0.968845

loop_
_geom_bond_atom_site_label_1
_geom_bond_atom_site_label_2
_ccdc_geom_bond_type
O5    Zn2   S    
C2    C4    S    
O6    Zn1   S    
C4    O4    A    
O1    Zn1   S    
C7    O8    A    
C14   O10   D    
C13   H11   S    
C19   H2    S    
C8    C17   A    
O9    Zn2   S    
C16   C20   A    
H6    N2    S    
C3    C5    D    
C8    C21   A    
C3    H3    S    
C20   H9    S    
C7    O9    A    
C14   O2    S    
C15   C19   A    
C2    C15   A    
C11   C13   A    
C9    C21   A    
O3    Zn2   S    
C1    O3    A    
O4    Zn1   S    
C8    H8    S    
C14   C21   S    
C17   C18   A    
C12   C15   A    
O7    Zn2   S    
C5    C6    S    
N1    N2    D    
O8    Zn1   S    
C10   C11   A    
C2    C10   A    
C12   C16   A    
C11   H12   S    
C18   H7    S    
C12   C13   A    
C18   C19   A    
C6    O7    A    
C7    C9    S    
N1    Zn2   S    
C9    C20   A    
H4    O2    S    
N2    Zn1   S    
C10   H10   S    
H5    N1    S    
C5    H1    S    
C4    O5    A    
C1    O1    A    
C16   C17   A    
C1    C3    S    
C6    O6    A    
