data_mof_unit_24050.cif
_audit_creation_date              2012-10-26T21:08:05-0400
_audit_creation_method            fapswitch 2.2
_symmetry_space_group_name_H-M    P1
_symmetry_Int_Tables_number       1
_space_group_crystal_system       triclinic
_cell_length_a                    15.861353
_cell_length_b                    10.85821
_cell_length_c                    9.579457
_cell_angle_alpha                 90.898606
_cell_angle_beta                  89.903846
_cell_angle_gamma                 92.871711
_cell_volume                      1647.55547898

loop_
_atom_site_label
_atom_site_type_symbol
_atom_type_description
_atom_site_fract_x
_atom_site_fract_y
_atom_site_fract_z
_atom_type_partial_charge
C1    C     C_R   0.506960 0.263365 0.499553 0.545644
C2    C     C_R   0.568959 0.075383 0.874969 0.002883
C3    C     C_R   0.528353 0.959328 0.888996 -0.121200
C4    C     C_R   0.339865 0.499344 0.500101 0.558086
C5    C     C_R   0.498881 0.893477 0.771266 -0.117974
C6    C     C_R   0.509045 0.942457 0.635471 0.020376
C7    C     C_R   0.533088 0.068577 0.625967 0.012378
C8    C     C_R   0.515831 0.130095 0.500499 -0.008936
C9    C     C_R   0.495104 0.062019 0.379309 -0.166400
C10   C     C_R   0.488996 0.934789 0.382147 -0.163554
C11   C     C_R   0.495269 0.873005 0.508782 -0.003091
C12   C     C_3   0.082687 0.497792 0.501092 0.004919
C13   C     C_R   0.613695 0.663081 0.146519 -0.093669
C14   C     C_R   0.669501 0.742107 0.075230 -0.178634
C15   C     C_R   0.669690 0.741557 0.931426 -0.156219
C16   C     C_R   0.496764 0.737936 0.502249 0.537134
C17   C     C_R   0.613706 0.662523 0.858065 -0.086591
C18   C     C_R   0.555927 0.579936 0.926322 0.142008
C19   C     C_R   0.555909 0.580029 0.076015 0.150694
C20   C     C_R   0.447104 0.423456 0.072739 -0.016718
C21   C     C_R   0.447115 0.423506 0.924717 -0.012537
C22   C     C_R   0.660067 0.500104 0.499882 0.532294
C23   C     C_3   0.974258 0.580635 0.591604 0.420637
C24   C     C_3   0.967411 0.384552 0.533738 -0.142342
C25   C     C_3   0.025564 0.413545 0.406560 -0.136157
C26   C     C_1   0.250070 0.498705 0.500518 -0.030840
C27   C     C_1   0.749689 0.499278 0.499370 -0.026073
C28   C     C_3   0.025605 0.469261 0.627134 0.033914
C29   C     C_3   0.056784 0.437807 0.772517 -0.238650
C30   C     C_3   0.982834 0.409860 0.872266 -0.286110
C31   C     C_3   0.014171 0.378356 0.017223 -0.462509
C32   C     C_3   0.603900 0.145442 0.001150 -0.256453
C33   C     C_3   0.700271 0.163850 0.994154 -0.298305
C34   C     C_3   0.916758 0.497416 0.498542 0.045396
C35   C     C_3   0.734370 0.236875 0.121233 -0.437247
C36   C     C_3   0.031970 0.610555 0.465652 -0.080268
C37   C     C_3   0.973344 0.526168 0.371337 -0.158909
C38   C     C_1   0.174459 0.498172 0.500932 -0.061668
C39   C     C_1   0.825187 0.498416 0.498778 -0.026031
C40   C     C_R   0.571208 0.129583 0.743412 -0.084719
Cu1   Cu    Cu3+1 0.499990 0.499990 0.640660 0.911607
Cu2   Cu    Cu3+1 0.500010 0.500010 0.359340 0.916057
F1    F     F_    0.946463 0.666839 0.686620 -0.648890
H1    H     H_    0.048167 0.344606 0.330265 0.120794
H2    H     H_    0.403898 0.360671 0.868328 0.123672
H3    H     H_    0.939891 0.292075 0.561280 0.110042
H4    H     H_    0.950329 0.549443 0.266085 0.120664
H5    H     H_    0.059219 0.703324 0.438712 0.120729
H6    H     H_    0.482541 0.107136 0.282046 0.127737
H7    H     H_    0.603110 0.219446 0.734206 0.142830
H8    H     H_    0.052722 0.295785 0.011655 0.154880
H9    H     H_    0.052822 0.457230 0.062533 0.159921
H10   H     H_    0.959313 0.358173 0.086804 0.139075
H11   H     H_    0.943290 0.491249 0.881423 0.217769
H12   H     H_    0.520466 0.918435 0.990937 0.112490
H13   H     H_    0.942831 0.330586 0.830917 0.154962
H14   H     H_    0.096066 0.356138 0.763383 0.138055
H15   H     H_    0.096818 0.517046 0.813760 0.163366
H16   H     H_    0.707709 0.329584 0.125617 0.173246
H17   H     H_    0.717767 0.187159 0.218767 0.156812
H18   H     H_    0.804177 0.248674 0.113962 0.138655
H19   H     H_    0.728935 0.072455 0.990438 0.166858
H20   H     H_    0.719304 0.214810 0.898502 0.159445
H21   H     H_    0.574955 0.236480 0.007780 0.154320
H22   H     H_    0.586849 0.094981 0.098030 0.138359
H23   H     H_    0.464527 0.807530 0.791257 0.156759
H24   H     H_    0.476873 0.884850 0.284842 0.136564
H25   H     H_    0.403899 0.360581 0.127107 0.116404
H26   H     H_    0.618857 0.671692 0.256638 0.187049
H27   H     H_    0.712684 0.804713 0.132300 0.124165
H28   H     H_    0.712725 0.804121 0.875988 0.141713
H29   H     H_    0.617622 0.671978 0.748178 0.190641
N1    N     N_R   0.500800 0.501210 0.147910 -0.243709
N2    N     N_R   0.500830 0.501290 0.852040 -0.248921
O1    O     O_R   0.499990 0.319640 0.618810 -0.509074
O2    O     O_R   0.500000 0.319660 0.381240 -0.505157
O3    O     O_R   0.379070 0.499980 0.618770 -0.492975
O4    O     O_R   0.379080 0.500000 0.381190 -0.489817
O5    O     O_R   0.500000 0.680340 0.618760 -0.534633
O6    O     O_R   0.500010 0.680360 0.381190 -0.521049
O7    O     O_R   0.620920 0.500000 0.618810 -0.516679
O8    O     O_R   0.620930 0.500020 0.381230 -0.519293

loop_
_geom_bond_atom_site_label_1
_geom_bond_atom_site_label_2
_ccdc_geom_bond_type
Cu2   O6    S    
C34   C37   S    
Cu1   Cu2   S    
Cu2   O8    S    
C31   H9    S    
C7    C8    A    
C10   H24   S    
C30   H11   S    
C12   C28   S    
C22   O8    A    
C2    C32   S    
C36   C37   S    
C33   H19   S    
Cu1   O3    S    
C30   C31   S    
C1    C8    S    
C23   F1    S    
C35   H16   S    
C18   C19   A    
C25   C37   S    
Cu1   N2    S    
C3    H12   S    
C27   C39   T    
C8    C9    A    
C7    C40   A    
C37   H4    S    
C9    C10   A    
C18   N2    A    
C13   C14   A    
C14   H27   S    
C25   H1    S    
C21   H2    S    
C13   C19   A    
C34   C39   S    
C1    O1    A    
C22   O7    A    
C19   N1    A    
C9    H6    S    
C24   C25   S    
C32   H21   S    
C6    C11   A    
C26   C38   T    
C30   H13   S    
C21   N2    A    
C24   C34   S    
C35   H17   S    
C16   O6    A    
C4    O4    A    
C29   C30   S    
Cu1   O1    S    
C11   C16   S    
C33   H20   S    
C23   C34   S    
Cu1   O7    S    
C17   C18   A    
C35   H18   S    
C23   C28   S    
C31   H10   S    
C29   H14   S    
Cu2   O4    S    
C22   C27   S    
C12   C36   S    
C29   H15   S    
C15   C17   A    
C28   C29   S    
Cu2   N1    S    
C1    O2    A    
C20   H25   S    
C24   C28   S    
C31   H8    S    
C5    H23   S    
C3    C5    A    
Cu1   O5    S    
C4    C26   S    
C6    C7    A    
C15   H28   S    
Cu2   O2    S    
C12   C25   S    
C16   O5    A    
C24   H3    S    
C32   C33   S    
C2    C3    A    
C4    O3    A    
C5    C6    A    
C13   H26   S    
C40   H7    S    
C33   C35   S    
C20   N1    A    
C36   H5    S    
C12   C38   S    
C10   C11   A    
C2    C40   A    
C20   C21   A    
C17   H29   S    
C23   C36   S    
C14   C15   A    
C32   H22   S    
