data_mof_unit_65745.cif
_audit_creation_date              2012-12-10T16:43:20-0500
_audit_creation_method            fapswitch 2.2
_symmetry_space_group_name_H-M    P1
_symmetry_Int_Tables_number       1
_space_group_crystal_system       triclinic
_cell_length_a                    30.20004
_cell_length_b                    31.046012
_cell_length_c                    21.56368
_cell_angle_alpha                 89.799246
_cell_angle_beta                  133.811996
_cell_angle_gamma                 90.382364
_cell_volume                      14589.2094383

loop_
_atom_site_label
_atom_site_type_symbol
_atom_type_description
_atom_site_fract_x
_atom_site_fract_y
_atom_site_fract_z
_atom_type_partial_charge
C1    C     C_R   0.689344 0.808535 0.882461 0.903756
C2    C     C_R   0.311253 0.808756 0.117454 0.878381
C3    C     C_R   0.189343 0.308535 0.882461 0.903810
C4    C     C_R   0.811253 0.308756 0.117454 0.878359
C5    C     C_R   0.454912 0.787704 0.002918 -0.013896
C6    C     C_R   0.553150 0.787116 0.013235 -0.012887
C7    C     C_R   0.954914 0.287704 0.002921 -0.013920
C8    C     C_R   0.053153 0.287116 0.013239 -0.012892
C9    C     C_R   0.464068 0.670254 0.973642 0.137105
C10   C     C_R   0.521139 0.669054 0.999935 0.136139
C11   C     C_R   0.964088 0.170251 0.973680 0.137069
C12   C     C_R   0.021158 0.169054 0.999972 0.136161
C13   C     C_R   0.535071 0.825565 0.024728 0.145792
C14   C     C_R   0.481208 0.826498 0.006830 0.142172
C15   C     C_R   0.035071 0.325566 0.024728 0.145796
C16   C     C_R   0.981208 0.326498 0.006829 0.142172
C17   C     C_2   0.565572 0.871901 0.676429 0.158440
C18   C     C_2   0.442105 0.872608 0.321784 0.160455
C19   C     C_2   0.065573 0.371900 0.676427 0.158526
C20   C     C_2   0.942107 0.372612 0.321774 0.160523
C21   C     C_2   0.591307 0.909976 0.686198 -0.312290
C22   C     C_2   0.412733 0.902749 0.327037 -0.336625
C23   C     C_2   0.091307 0.409976 0.686197 -0.312338
C24   C     C_2   0.912737 0.402746 0.327043 -0.336756
C25   C     C_2   0.594544 0.842514 0.750325 -0.052419
C26   C     C_2   0.407162 0.835850 0.261395 -0.047886
C27   C     C_2   0.094543 0.342512 0.750322 -0.052456
C28   C     C_2   0.907166 0.335852 0.261388 -0.047907
C29   C     C_2   0.656597 0.840676 0.814522 -0.360107
C30   C     C_2   0.350333 0.842444 0.182510 -0.383328
C31   C     C_2   0.156596 0.340676 0.814523 -0.360124
C32   C     C_2   0.850332 0.342444 0.182509 -0.383332
C33   C     C_R   0.126750 0.731645 0.071742 0.127579
C34   C     C_R   0.870476 0.758635 0.925904 0.105893
C35   C     C_R   0.626709 0.231594 0.071672 0.127552
C36   C     C_R   0.370486 0.258710 0.925932 0.105863
C37   C     C_R   0.114999 0.749526 0.001155 -0.181921
C38   C     C_R   0.884900 0.746896 0.001169 -0.156202
C39   C     C_R   0.614992 0.249528 0.001146 -0.181771
C40   C     C_R   0.384891 0.246905 0.001156 -0.156104
C41   C     C_R   0.055016 0.763954 0.928827 0.154001
C42   C     C_R   0.941996 0.728245 0.071036 0.121590
C43   C     C_R   0.555033 0.264021 0.928863 0.153825
C44   C     C_R   0.441956 0.228197 0.070959 0.121490
C45   C     C_R   0.665004 0.749454 0.001228 0.843147
C46   C     C_R   0.334768 0.749611 0.998610 0.857972
C47   C     C_R   0.165004 0.249454 0.001227 0.843176
C48   C     C_R   0.834768 0.249611 0.998610 0.857852
C49   C     C_R   0.005528 0.752077 0.919484 -0.025241
C50   C     C_R   0.983924 0.718829 0.063361 -0.018990
C51   C     C_R   0.505521 0.252156 0.919478 -0.025072
C52   C     C_R   0.483867 0.218786 0.063251 -0.018927
C53   C     C_R   0.017892 0.734950 0.990759 -0.028861
C54   C     C_R   0.970978 0.733934 0.990296 -0.027471
C55   C     C_R   0.517857 0.234966 0.990695 -0.028807
C56   C     C_R   0.470944 0.233953 0.990235 -0.027471
C57   C     C_R   0.077470 0.721011 0.064086 -0.016689
C58   C     C_R   0.911935 0.749355 0.917712 -0.006570
C59   C     C_R   0.577411 0.220964 0.063975 -0.016660
C60   C     C_R   0.411928 0.249438 0.917707 -0.006568
C61   C     C_R   0.943574 0.754607 0.840010 0.145917
C62   C     C_R   0.036604 0.692733 0.122433 0.146356
C63   C     C_R   0.443569 0.254767 0.840016 0.145929
C64   C     C_R   0.536504 0.192642 0.122236 0.146377
C65   C     C_R   0.896274 0.752590 0.838939 0.151874
C66   C     C_R   0.084128 0.694336 0.123603 0.144909
C67   C     C_R   0.396269 0.252743 0.838945 0.151947
C68   C     C_R   0.584026 0.194241 0.123404 0.144897
C69   C     C_2   0.859029 0.586117 0.237598 -0.149381
C70   C     C_2   0.063047 0.619524 0.697624 -0.115383
C71   C     C_2   0.358934 0.086121 0.237624 -0.149435
C72   C     C_2   0.563234 0.119320 0.698062 -0.115524
C73   C     C_2   0.913731 0.591985 0.319056 -0.056675
C74   C     C_2   0.083756 0.600177 0.665400 -0.034059
C75   C     C_2   0.413712 0.091967 0.319013 -0.056652
C76   C     C_2   0.583688 0.100182 0.665332 -0.034090
C77   C     C_2   0.840530 0.617369 0.172041 -0.055233
C78   C     C_2   0.092116 0.659802 0.746600 -0.078394
C79   C     C_2   0.340378 0.117343 0.171995 -0.055203
C80   C     C_2   0.592157 0.159657 0.746845 -0.078339
C81   C     C_2   0.831713 0.658361 0.181218 -0.288172
C82   C     C_2   0.150992 0.656778 0.821826 -0.345035
C83   C     C_2   0.331687 0.158364 0.181225 -0.288083
C84   C     C_2   0.651135 0.156757 0.821854 -0.344904
C85   C     C_R   0.057153 0.560341 0.614338 0.809061
C86   C     C_R   0.942298 0.558723 0.383429 0.868867
C87   C     C_R   0.557157 0.060329 0.614352 0.809851
C88   C     C_R   0.442295 0.058721 0.383423 0.868703
C89   C     C_R   0.807434 0.691298 0.116985 0.909357
C90   C     C_R   0.188484 0.691298 0.883427 0.913062
C91   C     C_R   0.307427 0.191297 0.116986 0.909222
C92   C     C_R   0.688519 0.191295 0.883430 0.913408
C93   C     C_R   0.558438 0.941465 0.617474 0.859928
C94   C     C_R   0.443053 0.939509 0.386047 0.911734
C95   C     C_R   0.058438 0.441465 0.617474 0.859734
C96   C     C_R   0.943055 0.439508 0.386050 0.911804
C97   C     C_R   0.836361 0.749108 0.001299 0.860152
C98   C     C_R   0.164809 0.750830 0.001953 0.839630
C99   C     C_R   0.336359 0.249109 0.001296 0.860082
C100  C     C_R   0.664809 0.250832 0.001955 0.839867
C101  C     C_R   0.411990 0.787269 0.009853 0.139236
C102  C     C_R   0.595341 0.787401 0.004954 0.136720
C103  C     C_R   0.911990 0.287270 0.009853 0.139258
C104  C     C_R   0.095343 0.287402 0.004957 0.136716
C105  C     C_R   0.381262 0.748867 0.995026 -0.168959
C106  C     C_R   0.618338 0.748283 0.004876 -0.185581
C107  C     C_R   0.881264 0.248867 0.995028 -0.168933
C108  C     C_R   0.118339 0.248283 0.004877 -0.185593
C109  C     C_R   0.396856 0.709609 0.981670 -0.078432
C110  C     C_R   0.595661 0.708426 0.005313 -0.087582
C111  C     C_R   0.896863 0.209608 0.981681 -0.078405
C112  C     C_R   0.095664 0.208427 0.005319 -0.087616
C113  C     C_R   0.444478 0.708838 0.983202 -0.026760
C114  C     C_R   0.548114 0.707844 0.004014 -0.029752
C115  C     C_R   0.944489 0.208836 0.983221 -0.026759
C116  C     C_R   0.048123 0.207845 0.004033 -0.029754
C117  C     C_R   0.475237 0.747960 0.997737 -0.003058
C118  C     C_R   0.525046 0.747636 0.003851 -0.004313
C119  C     C_R   0.975244 0.247960 0.997749 -0.003061
C120  C     C_R   0.025052 0.247637 0.003863 -0.004312
Cu1   Cu    Cu3+1 0.719490 0.719480 0.938970 1.104704
Cu2   Cu    Cu3+1 0.280510 0.719480 0.061030 1.097176
Cu3   Cu    Cu3+1 0.219490 0.219480 0.938970 1.104645
Cu4   Cu    Cu3+1 0.780510 0.219480 0.061030 1.097226
Cu5   Cu    Cu3+1 0.780480 0.780500 0.060980 1.085460
Cu6   Cu    Cu3+1 0.219520 0.780500 0.939020 1.096394
Cu7   Cu    Cu3+1 0.280480 0.280500 0.060980 1.085393
Cu8   Cu    Cu3+1 0.719520 0.280500 0.939020 1.096436
Cu9   Cu    Cu3+1 0.455530 0.999980 0.499990 1.083091
Cu10  Cu    Cu3+1 0.544470 0.999980 0.500010 1.104877
Cu11  Cu    Cu3+1 0.955530 0.499980 0.499990 1.083105
Cu12  Cu    Cu3+1 0.044470 0.499980 0.500010 1.104916
H1    H     H_    0.838983 0.667412 0.236411 0.179973
H2    H     H_    0.172596 0.625226 0.842258 0.172552
H3    H     H_    0.339068 0.167452 0.236494 0.179949
H4    H     H_    0.672904 0.125265 0.842215 0.172334
H5    H     H_    0.634598 0.920484 0.747924 0.138595
H6    H     H_    0.364275 0.898507 0.290442 0.150978
H7    H     H_    0.134595 0.420485 0.747926 0.138544
H8    H     H_    0.864282 0.398498 0.290462 0.150966
H9    H     H_    0.685481 0.861042 0.813698 0.165225
H10   H     H_    0.332471 0.875012 0.162733 0.175834
H11   H     H_    0.185480 0.361044 0.813702 0.165263
H12   H     H_    0.832466 0.375011 0.162736 0.175806
O1    O     O_R   0.679710 0.768740 0.859430 -0.523395
O2    O     O_R   0.320290 0.768740 0.140570 -0.557088
O3    O     O_R   0.179710 0.268740 0.859430 -0.523409
O4    O     O_R   0.820290 0.268740 0.140570 -0.557098
O5    O     O_R   0.082020 0.544510 0.588970 -0.558592
O6    O     O_R   0.917980 0.544510 0.411030 -0.569291
O7    O     O_R   0.582020 0.044510 0.588970 -0.558760
O8    O     O_R   0.417980 0.044510 0.411030 -0.569426
O9    O     O_R   0.506970 0.955460 0.589020 -0.555867
O10   O     O_R   0.493030 0.955460 0.410980 -0.554293
O11   O     O_R   0.006970 0.455460 0.589020 -0.555930
O12   O     O_R   0.993030 0.455460 0.410980 -0.554266
O13   O     O_R   0.582050 0.955480 0.588990 -0.569994
O14   O     O_R   0.417950 0.955480 0.411010 -0.563913
O15   O     O_R   0.082050 0.455480 0.588990 -0.569935
O16   O     O_R   0.917950 0.455480 0.411010 -0.563874
O17   O     O_R   0.731220 0.820270 0.962460 -0.573705
O18   O     O_R   0.268780 0.820270 0.037540 -0.570686
O19   O     O_R   0.231220 0.320270 0.962460 -0.573689
O20   O     O_R   0.768780 0.320270 0.037540 -0.570690
O21   O     O_R   0.659370 0.724200 0.948480 -0.559469
O22   O     O_R   0.340630 0.724200 0.051520 -0.555080
O23   O     O_R   0.159370 0.224200 0.948480 -0.559476
O24   O     O_R   0.840630 0.224200 0.051520 -0.555086
O25   O     O_R   0.710880 0.775730 0.051510 -0.566060
O26   O     O_R   0.289120 0.775730 0.948490 -0.565759
O27   O     O_R   0.210880 0.275730 0.051510 -0.566071
O28   O     O_R   0.789120 0.275730 0.948490 -0.565799
O29   O     O_R   0.768760 0.679710 0.037490 -0.569453
O30   O     O_R   0.231240 0.679710 0.962510 -0.588171
O31   O     O_R   0.268760 0.179710 0.037490 -0.569487
O32   O     O_R   0.731240 0.179710 0.962510 -0.588238
O33   O     O_R   0.820270 0.731240 0.140520 -0.571077
O34   O     O_R   0.179730 0.731240 0.859480 -0.544788
O35   O     O_R   0.320270 0.231240 0.140520 -0.571133
O36   O     O_R   0.679730 0.231240 0.859480 -0.544582
O37   O     O_R   0.789100 0.724240 0.948440 -0.563919
O38   O     O_R   0.210900 0.724240 0.051560 -0.568362
O39   O     O_R   0.289100 0.224240 0.948440 -0.563947
O40   O     O_R   0.710900 0.224240 0.051560 -0.568328
O41   O     O_R   0.840600 0.775770 0.051470 -0.563539
O42   O     O_R   0.159400 0.775770 0.948530 -0.546277
O43   O     O_R   0.340600 0.275770 0.051470 -0.563523
O44   O     O_R   0.659400 0.275770 0.948530 -0.546249
O45   O     O_R   0.006940 0.544490 0.589000 -0.573013
O46   O     O_R   0.993060 0.544490 0.411000 -0.557233
O47   O     O_R   0.506940 0.044490 0.589000 -0.572966
O48   O     O_R   0.493060 0.044490 0.411000 -0.557174
I1    I     I_    0.411027 0.837908 0.077078 -0.200992
I2    I     I_    0.605782 0.843925 0.957386 -0.223438
I3    I     I_    0.911021 0.337911 0.077068 -0.200958
I4    I     I_    0.105782 0.343925 0.957385 -0.223408
I5    I     I_    0.043727 0.821380 0.862875 -0.202567
I6    I     I_    0.969714 0.729087 0.193535 -0.165149
I7    I     I_    0.543861 0.321508 0.863131 -0.202708
I8    I     I_    0.469676 0.228955 0.193459 -0.165241
I9    I     I_    0.921365 0.747215 0.721936 -0.142606
I10   I     I_    0.033927 0.639580 0.184126 -0.140907
I11   I     I_    0.421314 0.247517 0.721888 -0.142783
I12   I     I_    0.533751 0.139448 0.183782 -0.140736
I13   I     I_    0.804164 0.738434 0.719936 -0.143975
I14   I     I_    0.154632 0.646131 0.193646 -0.145799
I15   I     I_    0.304134 0.238675 0.719906 -0.143881
I16   I     I_    0.654450 0.145977 0.193283 -0.145771
C121  C     C_2   0.818251 0.547989 0.208374 0.929162
O49   O     O_2   0.762968 0.551569 0.146630 -0.542561
O50   O     O_R   0.842385 0.507934 0.248124 -0.765908
H13   H     H_    0.809593 0.484843 0.220964 0.338625
C122  C     C_2   0.019622 0.599048 0.699930 0.894409
O51   O     O_2   0.976885 0.619829 0.679341 -0.539208
O52   O     O_R   0.029772 0.556966 0.730572 -0.734917
H14   H     H_    0.997657 0.546919 0.730362 0.352551
C123  C     C_2   0.318137 0.048026 0.208531 0.929259
O53   O     O_2   0.262823 0.051659 0.147024 -0.542479
O54   O     O_R   0.342282 0.007940 0.248113 -0.765839
H15   H     H_    0.309474 0.984873 0.221066 0.338665
C124  C     C_2   0.520454 0.098519 0.701332 0.894485
O55   O     O_2   0.478026 0.119145 0.681987 -0.539443
O56   O     O_R   0.530913 0.056302 0.731530 -0.735453
H16   H     H_    0.499259 0.046041 0.732105 0.352660
I17   I     I_    0.976357 0.643294 0.357037 -0.182957
I18   I     I_    0.149763 0.631499 0.670062 -0.181673
I19   I     I_    0.476371 0.143207 0.356786 -0.182994
I20   I     I_    0.649043 0.131860 0.669028 -0.181544
C125  C     C_2   0.840369 0.603167 0.105857 0.935308
O57   O     O_2   0.826640 0.566013 0.079683 -0.549425
O58   O     O_R   0.859276 0.631443 0.077161 -0.738172
H17   H     H_    0.858221 0.617720 0.033557 0.350066
C126  C     C_2   0.054120 0.699222 0.714370 0.967180
O59   O     O_2   0.013335 0.705322 0.636907 -0.528578
O60   O     O_R   0.062506 0.728203 0.771204 -0.741355
H18   H     H_    0.034670 0.754115 0.740667 0.360595
C127  C     C_2   0.340059 0.103076 0.105689 0.935140
O61   O     O_2   0.326090 0.065950 0.079374 -0.549523
O62   O     O_R   0.359083 0.131252 0.077033 -0.737915
H19   H     H_    0.357896 0.117493 0.033330 0.350097
C128  C     C_2   0.553954 0.198961 0.714721 0.967166
O63   O     O_2   0.512771 0.204899 0.637260 -0.528776
O64   O     O_R   0.562629 0.228026 0.771682 -0.741600
H20   H     H_    0.534666 0.253880 0.741186 0.360577
C129  C     C_2   0.368821 0.669438 0.979099 0.904676
O65   O     O_2   0.400613 0.643300 0.037534 -0.534735
O66   O     O_R   0.305826 0.662253 0.911049 -0.749556
H21   H     H_    0.292037 0.633829 0.916476 0.342783
C130  C     C_2   0.616548 0.668387 0.995142 0.914151
O67   O     O_2   0.580771 0.647482 0.928659 -0.529926
O68   O     O_R   0.677614 0.655519 0.060522 -0.756172
H22   H     H_    0.686624 0.628066 0.045716 0.365430
C131  C     C_2   0.868825 0.169439 0.979107 0.904649
O69   O     O_2   0.900610 0.143309 0.037559 -0.534717
O70   O     O_R   0.805837 0.162243 0.911029 -0.749731
H23   H     H_    0.792048 0.133818 0.916452 0.342641
C132  C     C_2   0.116542 0.168387 0.995133 0.914171
O71   O     O_2   0.080754 0.147480 0.928655 -0.529946
O72   O     O_R   0.177610 0.155519 0.060495 -0.756087
H24   H     H_    0.186613 0.128067 0.045678 0.365436
I21   I     I_    0.404564 0.616581 0.895718 -0.133017
I22   I     I_    0.569674 0.609354 0.057913 -0.125055
I23   I     I_    0.904604 0.116564 0.895791 -0.133200
I24   I     I_    0.069714 0.109365 0.057985 -0.124877
I25   I     I_    0.598256 0.877000 0.104783 -0.139976
I26   I     I_    0.430095 0.884974 0.949274 -0.144359
I27   I     I_    0.098254 0.377002 0.104781 -0.139986
I28   I     I_    0.930092 0.384972 0.949264 -0.144359
I29   I     I_    0.482791 0.850548 0.551844 -0.172908
I30   I     I_    0.539543 0.872663 0.401846 -0.151856
I31   I     I_    0.982797 0.350545 0.551838 -0.172939
I32   I     I_    0.039541 0.372681 0.401799 -0.151811
C133  C     C_2   0.552546 0.817687 0.751556 0.912031
O73   O     O_2   0.504148 0.833925 0.720850 -0.530767
O74   O     O_R   0.567036 0.776349 0.786477 -0.732078
H25   H     H_    0.534558 0.763730 0.783529 0.347431
C134  C     C_2   0.438490 0.793518 0.289498 0.949292
O75   O     O_2   0.441516 0.773507 0.243779 -0.553859
O76   O     O_R   0.467153 0.777675 0.370606 -0.713380
H26   H     H_    0.487916 0.748991 0.383504 0.354510
C135  C     C_2   0.052543 0.317685 0.751549 0.912038
O77   O     O_2   0.004140 0.333921 0.720829 -0.530755
O78   O     O_R   0.067039 0.276351 0.786485 -0.732096
H27   H     H_    0.034559 0.263731 0.783533 0.347428
C136  C     C_2   0.938502 0.293524 0.289486 0.949273
O79   O     O_2   0.941507 0.273510 0.243746 -0.553863
O80   O     O_R   0.967200 0.277687 0.370612 -0.713393
H28   H     H_    0.987967 0.249006 0.383506 0.354512
I33   I     I_    0.216297 0.743667 0.196999 -0.207448
I34   I     I_    0.798621 0.805174 0.844882 -0.259673
I35   I     I_    0.716260 0.243530 0.196980 -0.207425
I36   I     I_    0.298708 0.305317 0.845073 -0.259769

loop_
_geom_bond_atom_site_label_1
_geom_bond_atom_site_label_2
_ccdc_geom_bond_type
C111  C131  S    
Cu9   O9    S    
C55   C56   A    
C90   O34   A    
C129  O66   S    
C3    O3    A    
Cu2   O22   S    
C55   C59   A    
C76   I20   S    
C22   C94   S    
O58   H17   S    
C1    O1    A    
O74   H25   S    
C18   C26   S    
C21   H5    S    
C57   C66   A    
C72   C76   D    
C2    O18   A    
C40   C99   S    
C71   C79   S    
C45   O21   A    
C67   I15   S    
O68   H22   S    
C105  C109  A    
C122  O51   D    
C92   O32   A    
C97   O41   A    
Cu4   O4    S    
C8    C120  A    
C130  O67   D    
C50   C54   A    
C63   I11   S    
C23   C95   S    
Cu10  O13   S    
C95   O15   A    
C64   C68   A    
Cu5   O41   S    
C100  O44   A    
O62   H19   S    
Cu4   O40   S    
C15   I27   S    
C86   O6    A    
Cu3   O3    S    
C131  O69   D    
C66   I14   S    
C116  C120  A    
C33   I33   S    
C48   C107  S    
C70   C78   S    
Cu7   O27   S    
O64   H20   S    
C4    O4    A    
C46   C105  S    
O70   H23   S    
Cu8   O20   S    
C80   C128  S    
C132  O72   S    
C35   C59   A    
C128  O63   D    
C12   I24   S    
C4    C32   S    
C62   I10   S    
Cu3   O39   S    
C92   O36   A    
C81   H1    S    
Cu12  O12   S    
Cu1   Cu5   S    
Cu4   O24   S    
C69   C77   S    
C28   C32   D    
Cu1   O29   S    
C20   C24   D    
C60   C67   A    
C101  I1    S    
Cu3   O31   S    
C91   O35   A    
C68   I16   S    
C25   C133  S    
O60   H18   S    
C4    O20   A    
C69   C73   D    
C99   O43   A    
Cu8   O36   S    
C47   C108  S    
C11   I23   S    
Cu5   O25   S    
C126  O59   D    
C110  C114  A    
C40   C44   A    
C99   O39   A    
C10   C114  A    
C109  C113  A    
Cu4   Cu8   S    
Cu3   O23   S    
Cu2   Cu6   S    
C44   C52   A    
C95   O11   A    
C122  O52   S    
C64   I12   S    
C109  C129  S    
C81   C89   S    
C94   O14   A    
C124  O56   S    
C87   O7    A    
C13   C14   A    
C25   C29   D    
Cu12  O5    S    
C88   O8    A    
C103  I3    S    
C38   C97   S    
C102  I2    S    
C9    C10   A    
C41   C49   A    
Cu9   O14   S    
C125  O57   D    
Cu10  O48   S    
C121  O49   D    
C63   C67   A    
Cu11  O45   S    
C110  C130  S    
C101  C105  A    
C127  O62   S    
C73   C86   S    
C42   I6    S    
C35   I35   S    
C86   O46   A    
Cu12  O15   S    
C49   C61   A    
C15   C16   A    
C62   C66   A    
Cu1   O37   S    
C27   C31   D    
C80   C84   D    
C7    C119  A    
C36   C40   A    
C51   C63   A    
C12   C116  A    
O56   H16   S    
C17   I29   S    
C9    I21   S    
C52   C64   A    
O54   H15   S    
C131  O70   S    
C59   C68   A    
C53   C57   A    
C136  O80   S    
Cu2   O2    S    
C19   I31   S    
C20   C28   S    
C135  O77   D    
Cu2   O30   S    
C93   O9    A    
C31   H11   S    
C33   C37   A    
C46   O26   A    
C5    C117  A    
C128  O64   S    
C44   I8    S    
C34   C38   A    
C82   H2    S    
C19   C23   D    
O52   H14   S    
C70   C74   D    
C136  O79   D    
C98   O42   A    
C61   C65   A    
C11   C115  A    
C124  O55   D    
C47   O23   A    
C78   C82   D    
C58   C65   A    
Cu7   O43   S    
O50   H13   S    
C48   O24   A    
C88   O48   A    
Cu6   O42   S    
C89   O29   A    
C94   O10   A    
C29   H9    S    
C132  O71   D    
C1    C29   S    
C133  O73   D    
C104  I4    S    
C91   O31   A    
Cu10  O10   S    
C16   I28   S    
C82   C90   S    
C119  C120  A    
C93   O13   A    
C8    C104  A    
C76   C87   S    
C5    C14   A    
C114  C118  A    
C130  O68   S    
Cu9   O8    S    
C113  C117  A    
C3    C31   S    
C111  C115  A    
C41   I5    S    
C28   C136  S    
C96   O16   A    
C42   C50   A    
C13   I25   S    
Cu8   O28   S    
C8    C15   A    
C115  C119  A    
C89   O33   A    
C134  O76   S    
O80   H28   S    
Cu5   O33   S    
C50   C62   A    
C134  O75   D    
Cu1   O1    S    
C75   I19   S    
C135  O78   S    
C79   C127  S    
C53   C54   A    
O72   H24   S    
C24   H8    S    
C43   I7    S    
Cu12  O46   S    
Cu3   Cu7   S    
C104  C108  A    
C19   C27   S    
C45   C106  S    
C48   O28   A    
C87   O47   A    
Cu9   Cu10  S    
C106  C110  A    
C108  C112  A    
C10   I22   S    
C36   I36   S    
C20   I32   S    
C7    C16   A    
Cu7   O19   S    
C46   O22   A    
C23   H7    S    
Cu8   O44   S    
C70   C122  S    
C107  C111  A    
C83   H3    S    
Cu5   O17   S    
C71   C75   D    
C129  O65   D    
C36   C60   A    
Cu11  Cu12  S    
C30   H10   S    
C27   C135  S    
C47   O27   A    
C11   C12   A    
C112  C116  A    
C125  O58   S    
C97   O37   A    
Cu4   O32   S    
C33   C57   A    
C98   O38   A    
C2    O2    A    
C83   C91   S    
C22   H6    S    
C77   C125  S    
C54   C58   A    
C71   C123  S    
C5    C101  A    
C2    C30   S    
C103  C107  A    
C18   I30   S    
C3    O19   A    
O78   H27   S    
C18   C22   D    
C123  O53   D    
O76   H26   S    
C17   C25   S    
C74   I18   S    
Cu6   O18   S    
C117  C118  A    
C56   C60   A    
C6    C13   A    
C79   C83   D    
C43   C51   A    
C39   C100  S    
C96   O12   A    
C21   C93   S    
C78   C126  S    
C49   C53   A    
C72   C124  S    
Cu9   O47   S    
Cu11  O11   S    
C133  O74   S    
Cu1   O21   S    
Cu6   O34   S    
C69   C121  S    
C51   C55   A    
C6    C102  A    
C74   C85   S    
C37   C41   A    
Cu11  O16   S    
C100  O40   A    
C123  O54   S    
C85   O5    A    
C9    C113  A    
C73   I17   S    
C90   O30   A    
C32   H12   S    
C1    O17   A    
Cu7   O35   S    
C38   C42   A    
C14   I26   S    
C75   C88   S    
Cu2   O38   S    
C35   C39   A    
C65   I13   S    
C37   C98   S    
C72   C80   S    
C77   C81   D    
C102  C106  A    
C126  O60   S    
Cu10  O7    S    
C34   C58   A    
C112  C132  S    
C121  O50   S    
Cu11  O6    S    
C7    C103  A    
Cu6   O26   S    
C84   C92   S    
C24   C96   S    
C127  O61   D    
C85   O45   A    
C39   C43   A    
C6    C118  A    
C26   C134  S    
C34   I34   S    
C45   O25   A    
C52   C56   A    
O66   H21   S    
C61   I9    S    
C84   H4    S    
C26   C30   D    
C17   C21   D    
