data_mof_unit_8116.cif
_audit_creation_date              2012-10-26T18:59:38-0400
_audit_creation_method            fapswitch 2.2
_symmetry_space_group_name_H-M    P1
_symmetry_Int_Tables_number       1
_space_group_crystal_system       triclinic
_cell_length_a                    23.350131
_cell_length_b                    10.915333
_cell_length_c                    9.700159
_cell_angle_alpha                 91.566192
_cell_angle_beta                  88.144775
_cell_angle_gamma                 87.916338
_cell_volume                      2468.38686948

loop_
_atom_site_label
_atom_site_type_symbol
_atom_type_description
_atom_site_fract_x
_atom_site_fract_y
_atom_site_fract_z
_atom_type_partial_charge
C1    C     C_R   0.501875 0.263577 0.498317 0.581050
C2    C     C_R   0.116217 0.605241 0.594607 0.437011
C3    C     C_R   0.238615 0.616596 0.447384 0.147833
C4    C     C_R   0.391234 0.503569 0.501651 0.593419
C5    C     C_R   0.298872 0.614973 0.452105 0.266891
C6    C     C_R   0.328286 0.510298 0.504094 0.016248
C7    C     C_R   0.296903 0.410160 0.552114 0.069753
C8    C     C_R   0.237174 0.419402 0.557590 -0.005149
C9    C     C_R   0.207925 0.521248 0.506294 0.152214
C10   C     C_R   0.769063 0.444721 0.507138 -0.084450
C11   C     C_R   0.710806 0.421117 0.514187 0.197977
C12   C     C_R   0.971907 0.402322 0.292420 0.234086
C13   C     C_R   0.670576 0.517607 0.492883 -0.021608
C14   C     C_R   0.689668 0.634556 0.462814 -0.207727
C15   C     C_R   0.748222 0.656723 0.449863 0.247691
C16   C     C_R   0.500283 0.737444 0.501250 0.592930
C17   C     C_R   0.788321 0.560632 0.474201 0.172226
C18   C     C_R   0.515088 0.066819 0.612220 -0.023297
C19   C     C_R   0.505114 0.131506 0.494669 0.025653
C20   C     C_R   0.495892 0.063747 0.373462 -0.111920
C21   C     C_R   0.493284 0.935416 0.375085 0.077306
C22   C     C_R   0.500672 0.871566 0.500367 0.076666
C23   C     C_R   0.032282 0.405433 0.287295 0.236353
C24   C     C_R   0.510087 0.943697 0.618501 -0.011777
C25   C     C_3   0.520540 0.947658 0.771374 0.169123
C26   C     C_3   0.526630 0.086885 0.760240 -0.019733
C27   C     C_R   0.550120 0.506512 0.068974 0.100172
C28   C     C_R   0.608697 0.501241 0.498043 0.584473
C29   C     C_R   0.452406 0.471979 0.074116 0.344735
C30   C     C_R   0.450262 0.501379 0.933107 0.338537
C31   C     C_R   0.550295 0.502041 0.922070 0.135069
C32   C     C_3   0.592686 0.601776 0.914896 0.017459
C33   C     C_3   0.592929 0.605409 0.072735 -0.029059
C34   C     C_R   0.060317 0.468168 0.394857 -0.001770
C35   C     C_R   0.875226 0.639066 0.567369 0.479469
C36   C     C_R   0.880315 0.510480 0.365319 0.472720
C37   C     C_R   0.939877 0.489759 0.377387 0.001422
C38   C     C_R   0.967922 0.560238 0.477779 -0.105855
C39   C     C_R   0.935634 0.642339 0.568272 -0.017220
C40   C     C_R   0.027987 0.547603 0.488733 -0.107375
C41   C     C_R   0.055621 0.613399 0.594386 0.007775
C42   C     C_R   0.022216 0.690098 0.689948 0.239873
C43   C     C_R   0.964246 0.717893 0.662808 0.179404
C44   C     C_R   0.119559 0.451197 0.415619 0.448780
Cu1   Cu    Cu3+1 0.500000 0.499980 0.640670 1.098780
Cu2   Cu    Cu3+1 0.500000 0.500020 0.359330 1.108281
H1    H     H_    0.658518 0.708477 0.446669 0.124890
H2    H     H_    0.734727 0.266538 0.745317 0.369124
H3    H     H_    0.727682 0.901026 0.577334 0.347278
H4    H     H_    0.441208 0.905531 0.218253 0.296115
H5    H     H_    0.512519 0.892973 0.175191 0.261923
H6    H     H_    0.439426 0.775618 0.019023 0.399076
H7    H     H_    0.614038 0.078388 0.715617 0.292404
H8    H     H_    0.586227 0.218347 0.765595 0.308898
H9    H     H_    0.378153 0.232966 0.275256 0.368095
H10   H     H_    0.147746 0.398008 0.021020 0.396369
H11   H     H_    0.351649 0.711845 0.754777 0.390827
H12   H     H_    0.489849 0.109194 0.277022 0.206047
H13   H     H_    0.677920 0.623566 0.866434 0.275900
H14   H     H_    0.660948 0.474731 0.882324 0.294994
H15   H     H_    0.661455 0.631861 0.195632 0.264610
H16   H     H_    0.646050 0.482238 0.175309 0.278780
H17   H     H_    0.113157 0.661367 0.987263 0.393556
H18   H     H_    0.913909 0.925827 0.519617 0.360201
H19   H     H_    0.181655 0.762150 0.447210 0.282783
H20   H     H_    0.183800 0.672011 0.301506 0.261390
H21   H     H_    0.319611 0.928259 0.325850 0.376177
H22   H     H_    0.368144 0.293023 0.572911 0.244988
H23   H     H_    0.560293 0.896388 0.799283 0.108407
H24   H     H_    0.315705 0.283952 0.695118 0.302433
H25   H     H_    0.493240 0.147348 0.814493 0.223039
H26   H     H_    0.574786 0.686967 0.870209 0.169151
H27   H     H_    0.575266 0.693087 0.121035 0.157949
H28   H     H_    0.213037 0.344364 0.597378 0.188638
H29   H     H_    0.800319 0.371792 0.526056 0.190301
H30   H     H_    0.864194 0.167042 0.269687 0.406482
N1    N     N_R   0.849178 0.575887 0.465266 -0.387098
N2    N     N_3   0.323780 0.295527 0.589792 -0.567012
N3    N     N_R   0.146291 0.524898 0.506903 -0.420988
N4    N     N_R   0.500360 0.500930 0.147930 -0.285235
N5    N     N_R   0.500360 0.500890 0.852020 -0.283128
N6    N     N_3   0.481120 0.872157 0.249296 -0.549528
N7    N     N_3   0.584901 0.124753 0.784794 -0.579137
N8    N     N_3   0.646897 0.559525 0.845516 -0.578123
N9    N     N_3   0.648634 0.565355 0.124967 -0.601605
N10   N     N_3   0.208705 0.712042 0.376971 -0.476043
O1    O     O_R   0.500000 0.319640 0.618810 -0.527823
O2    O     O_R   0.582120 0.500020 0.618760 -0.469464
O3    O     O_R   0.582120 0.500060 0.381180 -0.528755
O4    O     O_2   0.842674 0.692254 0.671204 -0.363980
O5    O     O_2   0.916481 0.304191 0.078661 -0.155892
O6    O     O_2   0.979414 0.164025 0.202829 -0.172104
O7    O     O_3   0.882739 0.233592 0.321127 -0.483481
O8    O     O_2   0.632798 0.244129 0.503904 -0.292547
O9    O     O_2   0.733980 0.179816 0.480735 -0.193124
O10   O     O_3   0.694317 0.253210 0.722746 -0.520863
O11   O     O_2   0.827721 0.799642 0.334300 -0.185806
O12   O     O_2   0.853263 0.467715 0.254210 -0.366778
O13   O     O_2   0.726879 0.856083 0.301671 -0.254894
O14   O     O_3   0.768120 0.896850 0.542794 -0.376746
O15   O     O_2   0.452299 0.012874 0.992135 -0.304477
O16   O     O_2   0.405941 0.922213 0.793643 -0.178804
O17   O     O_3   0.469241 0.779224 0.944731 -0.541031
O18   O     O_2   0.344442 0.448509 0.180646 -0.205664
O19   O     O_2   0.379915 0.296631 0.007471 -0.232265
O20   O     O_3   0.413939 0.275124 0.252178 -0.528272
O21   O     O_2   0.092764 0.221122 0.152967 -0.153198
O22   O     O_2   0.032491 0.353260 0.012235 -0.174187
O23   O     O_2   0.150408 0.359863 0.348785 -0.376261
O24   O     O_3   0.126519 0.439431 0.100288 -0.484152
O25   O     O_2   0.344951 0.475266 0.831213 -0.268941
O26   O     O_2   0.353611 0.632307 0.010224 -0.203866
O27   O     O_3   0.391267 0.680408 0.769429 -0.412742
O28   O     O_2   0.080894 0.849841 0.841963 -0.164227
O29   O     O_2   0.000039 0.754892 0.959382 -0.179591
O30   O     O_3   0.092301 0.622143 0.911521 -0.449655
O31   O     O_2   0.897173 0.844141 0.853383 -0.108618
O32   O     O_2   0.976819 0.953641 0.751054 -0.177474
O33   O     O_3   0.888797 0.918247 0.602997 -0.389946
O34   O     O_2   0.145549 0.679861 0.677173 -0.396365
O35   O     O_2   0.373527 0.788208 0.511507 -0.288490
O36   O     O_2   0.375137 0.708816 0.273901 -0.229940
O37   O     O_3   0.293518 0.863218 0.354115 -0.433842
O38   O     O_R   0.500010 0.319680 0.381230 -0.453383
O39   O     O_R   0.417880 0.499940 0.618820 -0.442864
O40   O     O_R   0.417880 0.499980 0.381240 -0.412163
O41   O     O_R   0.499990 0.680320 0.618770 -0.461900
O42   O     O_R   0.500000 0.680360 0.381190 -0.467235
S1    S     S_3+6 0.938135 0.272744 0.218116 0.148061
S2    S     S_3+6 0.337029 0.745035 0.396827 0.078989
S3    S     S_3+6 0.691787 0.270122 0.551358 0.023479
S4    S     S_3+6 0.768731 0.804297 0.401355 0.108823
S5    S     S_3+6 0.458984 0.917662 0.877255 0.036857
S6    S     S_3+6 0.396455 0.373301 0.130000 0.112321
S7    S     S_3+6 0.070702 0.350470 0.133927 0.151174
S8    S     S_3+6 0.383343 0.571256 0.885715 0.115199
S9    S     S_3+6 0.048462 0.733939 0.854619 0.151478
S10   S     S_3+6 0.932060 0.861504 0.722909 0.168059

loop_
_geom_bond_atom_site_label_1
_geom_bond_atom_site_label_2
_ccdc_geom_bond_type
C1    O1    A    
C38   C40   A    
H6    O17   S    
C26   N7    S    
H24   N2    S    
C11   C13   A    
C41   C42   A    
O31   S10   D    
C18   C26   S    
O35   S2    D    
C7    C8    A    
C32   H26   S    
Cu2   O3    S    
Cu1   Cu2   S    
C27   C33   S    
C12   C23   A    
C37   C38   A    
H18   O33   S    
O18   S6    D    
O13   S4    D    
C34   C40   A    
Cu2   O42   S    
C36   C37   A    
Cu1   O1    S    
C36   N1    A    
C38   C39   A    
O25   S8    D    
C10   C17   A    
C43   S10   S    
C18   C19   A    
C9    N3    S    
O28   S9    D    
C12   C37   A    
C33   N9    S    
O21   S7    D    
C2    N3    A    
C15   S4    S    
O29   S9    D    
Cu1   O39   S    
C8    C9    A    
O27   S8    S    
C28   O2    A    
C13   C28   S    
C28   O3    A    
C13   C14   A    
C25   S5    S    
C44   O23   S    
C29   S6    S    
C21   C22   A    
C3    N10   S    
O9    S3    D    
C26   H25   S    
Cu2   O38   S    
O24   S7    S    
O26   S8    D    
O7    S1    S    
H10   O24   S    
H8    N7    S    
H22   N2    S    
C32   N8    S    
H16   N9    S    
C1    C19   S    
C12   S1    S    
H9    O20   S    
C27   C31   A    
H19   N10   S    
Cu1   O2    S    
C34   C44   A    
H13   N8    S    
O22   S7    D    
C4    C6    S    
C27   N4    A    
C2    O34   S    
H11   O27   S    
C25   C26   S    
C35   N1    A    
C11   S3    S    
C35   C39   A    
C29   C30   A    
C3    C9    A    
C21   N6    S    
H30   O7    S    
C10   H29   S    
C31   C32   S    
C23   C34   A    
C8    H28   S    
C23   S7    S    
C24   C25   S    
C16   O42   A    
H5    N6    S    
C6    C7    A    
H15   N9    S    
O10   S3    S    
H17   O30   S    
C4    O39   A    
C33   H27   S    
C5    S2    S    
C30   S8    S    
C7    N2    S    
O37   S2    S    
C18   C24   A    
C25   H23   S    
C42   C43   A    
C20   H12   S    
H4    N6    S    
O30   S9    S    
C15   C17   A    
C40   C41   A    
C16   C22   S    
H2    O10   S    
O33   S10   S    
Cu2   O40   S    
C44   N3    A    
Cu1   N5    S    
O11   S4    D    
C3    C5    A    
H21   O37   S    
H20   N10   S    
C39   C43   A    
O14   S4    S    
C14   H1    S    
O5    S1    D    
O15   S5    D    
O8    S3    D    
C31   N5    A    
C4    O40   A    
H7    N7    S    
C32   C33   S    
C19   C20   A    
O6    S1    D    
O17   S5    S    
C1    O38   A    
H3    O14   S    
Cu2   N4    S    
C17   N1    S    
H14   N8    S    
C5    C6    A    
C29   N4    A    
Cu1   O41   S    
C22   C24   A    
C16   O41   A    
O16   S5    D    
C10   C11   A    
C35   O4    S    
O20   S6    S    
C20   C21   A    
C14   C15   A    
C36   O12   S    
C2    C41   A    
O32   S10   D    
O36   S2    D    
C30   N5    A    
O19   S6    D    
C42   S9    S    
