data_mof_unit_63942.cif
_audit_creation_date              2012-12-10T17:36:21-0500
_audit_creation_method            fapswitch 2.2
_symmetry_space_group_name_H-M    P1
_symmetry_Int_Tables_number       1
_space_group_crystal_system       triclinic
_cell_length_a                    24.532013
_cell_length_b                    24.520633
_cell_length_c                    32.79363
_cell_angle_alpha                 90.011832
_cell_angle_beta                  89.993583
_cell_angle_gamma                 90.056898
_cell_volume                      19726.6859071

loop_
_atom_site_label
_atom_site_type_symbol
_atom_type_description
_atom_site_fract_x
_atom_site_fract_y
_atom_site_fract_z
_atom_type_partial_charge
C1    C     C_1   0.499937 0.000011 0.981185 0.002106
C2    C     C_R   0.839200 0.200827 0.238027 -0.118407
C3    C     C_R   0.168891 0.332093 0.786983 0.068601
C4    C     C_R   0.296422 0.866192 0.244061 0.066334
C5    C     C_R   0.703636 0.133752 0.755777 0.064927
C6    C     C_R   0.174846 0.337635 0.213280 0.053545
C7    C     C_R   0.866598 0.703812 0.747491 0.054048
C8    C     C_R   0.331163 0.168904 0.787379 0.063392
C9    C     C_R   0.703777 0.866300 0.244787 0.067367
C10   C     C_R   0.165692 0.671715 0.787267 0.066340
C11   C     C_R   0.866170 0.296379 0.244082 0.066383
C12   C     C_R   0.703796 0.866662 0.747566 0.055252
C13   C     C_R   0.270107 0.230345 0.824068 -0.104424
C14   C     C_R   0.337664 0.174857 0.213280 0.053488
C15   C     C_R   0.866182 0.296364 0.755792 0.065947
C16   C     C_R   0.133798 0.703654 0.244118 0.067214
C17   C     C_R   0.148415 0.648474 0.749998 0.034001
C18   C     C_R   0.851544 0.351562 0.250018 0.033577
C19   C     C_R   0.351610 0.148656 0.749991 0.031359
C20   C     C_R   0.648470 0.851514 0.249974 0.032911
C21   C     C_R   0.851538 0.351565 0.749987 0.032788
C22   C     C_R   0.148428 0.648468 0.250018 0.033506
C23   C     C_R   0.648526 0.851494 0.750030 0.088856
C24   C     C_R   0.799395 0.839512 0.239467 -0.118096
C25   C     C_R   0.351488 0.148532 0.249999 0.087107
C26   C     C_R   0.851530 0.648486 0.250026 0.032910
C27   C     C_R   0.148633 0.351728 0.749605 0.060855
C28   C     C_R   0.648456 0.148438 0.249982 0.033574
C29   C     C_R   0.351585 0.851527 0.750002 0.033438
C30   C     C_R   0.148512 0.351468 0.250001 0.087102
C31   C     C_R   0.851474 0.648505 0.749970 0.088958
C32   C     C_R   0.351572 0.851531 0.249982 0.033515
C33   C     C_R   0.648459 0.148436 0.750010 0.033024
C34   C     C_R   0.206183 0.712322 0.787235 0.049789
C35   C     C_R   0.839237 0.200794 0.761696 -0.118610
C36   C     C_R   0.825588 0.255876 0.244002 0.050332
C37   C     C_R   0.290840 0.209621 0.787293 0.051009
C38   C     C_R   0.744249 0.825731 0.244710 0.050287
C39   C     C_R   0.825602 0.255861 0.755865 0.050569
C40   C     C_R   0.174398 0.744144 0.244023 0.050264
C41   C     C_R   0.744540 0.826101 0.747434 0.014049
C42   C     C_R   0.297147 0.215628 0.213195 0.013212
C43   C     C_R   0.825707 0.744289 0.244741 0.050284
C44   C     C_R   0.209606 0.291435 0.787266 0.013318
C45   C     C_R   0.744104 0.174369 0.243987 0.050328
C46   C     C_R   0.160801 0.799192 0.238062 -0.118175
C47   C     C_R   0.287729 0.793783 0.787238 0.050008
C48   C     C_R   0.215625 0.297127 0.213195 0.013223
C49   C     C_R   0.826050 0.744562 0.747389 0.013294
C50   C     C_R   0.255915 0.825616 0.243996 0.050272
C51   C     C_R   0.744127 0.174350 0.755859 0.050459
C52   C     C_R   0.674412 0.244124 0.255998 0.050330
C53   C     C_R   0.293816 0.787680 0.712765 0.049840
C54   C     C_R   0.755751 0.674268 0.255290 0.050283
C55   C     C_R   0.209789 0.291199 0.712455 0.050717
C56   C     C_R   0.325602 0.755856 0.255977 0.050261
C57   C     C_R   0.799984 0.840040 0.744922 -0.128659
C58   C     C_R   0.674393 0.244140 0.744129 0.050535
C59   C     C_R   0.202853 0.284372 0.286805 0.013148
C60   C     C_R   0.755460 0.673899 0.752566 0.014027
C61   C     C_R   0.291297 0.209883 0.712588 0.048772
C62   C     C_R   0.674293 0.755711 0.255259 0.050281
C63   C     C_R   0.212270 0.706218 0.712761 0.049942
C64   C     C_R   0.755896 0.325630 0.256013 0.050321
C65   C     C_R   0.673950 0.755438 0.752611 0.013305
C66   C     C_R   0.284374 0.202873 0.286805 0.013155
C67   C     C_R   0.755869 0.325651 0.744137 0.050520
C68   C     C_R   0.282624 0.242624 0.177028 -0.129437
C69   C     C_R   0.244085 0.674384 0.256004 0.050263
C70   C     C_R   0.229569 0.729591 0.749999 0.001286
C71   C     C_R   0.770416 0.270421 0.250006 0.001649
C72   C     C_R   0.270787 0.230120 0.749930 0.004498
C73   C     C_R   0.729590 0.770406 0.249992 0.001590
C74   C     C_R   0.770412 0.270423 0.749997 0.001982
C75   C     C_R   0.229576 0.729587 0.250005 0.001593
C76   C     C_R   0.729581 0.770427 0.750011 0.024743
C77   C     C_R   0.270423 0.229583 0.250000 0.024964
C78   C     C_R   0.770410 0.729594 0.250008 0.001591
C79   C     C_R   0.839451 0.799463 0.239482 -0.118104
C80   C     C_R   0.230012 0.270990 0.749898 0.010498
C81   C     C_R   0.729584 0.229579 0.249994 0.001651
C82   C     C_R   0.270430 0.770410 0.750001 0.001337
C83   C     C_R   0.229577 0.270417 0.250000 0.024956
C84   C     C_R   0.770419 0.729573 0.749989 0.024733
C85   C     C_R   0.270424 0.770413 0.249995 0.001593
C86   C     C_R   0.729584 0.229578 0.749997 0.001898
C87   C     C_R   0.230259 0.270587 0.824074 -0.143520
C88   C     C_R   0.799122 0.160737 0.238021 -0.118059
C89   C     C_1   0.499943 0.000006 0.018813 0.001982
C90   C     C_R   0.263957 0.776146 0.823907 -0.118794
C91   C     C_R   0.242635 0.282602 0.177028 -0.129453
C92   C     C_R   0.839966 0.800043 0.744897 -0.129035
C93   C     C_R   0.200897 0.839264 0.238046 -0.118517
C94   C     C_R   0.799164 0.160701 0.761690 -0.119314
C95   C     C_R   0.660800 0.299173 0.261973 -0.118372
C96   C     C_R   0.276152 0.763921 0.676094 -0.118839
C97   C     C_R   0.700604 0.660488 0.260533 -0.118086
C98   C     C_R   0.230758 0.270653 0.675686 -0.118629
C99   C     C_R   0.339199 0.700808 0.261938 -0.118165
C100  C     C_1   0.000024 0.499990 0.981184 0.001700
C101  C     C_R   0.660759 0.299207 0.738297 -0.118553
C102  C     C_R   0.217376 0.257376 0.322972 -0.129261
C103  C     C_R   0.700016 0.659959 0.755078 -0.128651
C104  C     C_R   0.270876 0.230714 0.675751 -0.119566
C105  C     C_R   0.660548 0.700536 0.260518 -0.118095
C106  C     C_R   0.236041 0.723855 0.676092 -0.118711
C107  C     C_R   0.700878 0.339263 0.261978 -0.118036
C108  C     C_R   0.660033 0.699956 0.755103 -0.129023
C109  C     C_R   0.257365 0.217398 0.322972 -0.129263
C110  C     C_R   0.700832 0.339300 0.738305 -0.119284
C111  C     C_1   0.000026 0.499987 0.018814 0.001678
C112  C     C_R   0.299103 0.660735 0.261954 -0.118509
C113  C     C_1   0.499954 0.000014 0.899099 -0.005311
C114  C     C_1   0.499973 0.999993 0.100899 -0.003494
C115  C     C_1   0.000006 0.499998 0.899096 -0.003648
C116  C     C_1   0.000015 0.499989 0.100903 -0.003563
C117  C     C_1   0.000027 0.500007 0.399101 -0.003366
C118  C     C_1   0.000046 0.499986 0.600901 -0.004833
C119  C     C_1   0.499985 0.000012 0.399098 -0.003313
C120  C     C_1   0.499992 0.000007 0.600904 -0.005097
C121  C     C_1   0.499941 0.000015 0.936728 -0.033246
C122  C     C_1   0.000057 0.499994 0.481187 0.002198
C123  C     C_1   0.499957 0.999998 0.063269 -0.032980
C124  C     C_1   0.000016 0.499995 0.936727 -0.033146
C125  C     C_1   0.000022 0.499986 0.063272 -0.033155
C126  C     C_1   0.000043 0.500001 0.436731 -0.032799
C127  C     C_1   0.000060 0.499985 0.563272 -0.033042
C128  C     C_1   0.499977 0.000016 0.436728 -0.032780
C129  C     C_1   0.499982 0.000011 0.563274 -0.033011
C130  C     C_R   0.499999 0.000002 0.646127 0.486527
C131  C     C_R   0.499996 0.000005 0.353874 0.489890
C132  C     C_R   0.000021 0.499995 0.646122 0.485708
C133  C     C_1   0.000063 0.499989 0.518815 0.002301
C134  C     C_R   0.000007 0.500004 0.353879 0.490024
C135  C     C_R   0.000004 0.499996 0.146126 0.489817
C136  C     C_R   0.000000 0.500001 0.853873 0.489340
C137  C     C_R   0.499993 0.999996 0.146121 0.489980
C138  C     C_R   0.499979 0.000005 0.853878 0.486538
C139  C     C_R   0.606166 0.893845 0.750012 0.577764
C140  C     C_R   0.393840 0.106166 0.249999 0.575719
C141  C     C_R   0.106115 0.606136 0.750001 0.505968
C142  C     C_R   0.893866 0.393880 0.250012 0.506447
C143  C     C_R   0.393844 0.106170 0.750021 0.507453
C144  C     C_1   0.499972 0.000017 0.481186 0.002195
C145  C     C_R   0.606142 0.893849 0.249992 0.507181
C146  C     C_R   0.893862 0.393878 0.749987 0.509069
C147  C     C_R   0.106117 0.606142 0.249999 0.506508
C148  C     C_R   0.393883 0.893858 0.250001 0.506498
C149  C     C_R   0.606136 0.106122 0.750012 0.508209
C150  C     C_R   0.893858 0.606151 0.250008 0.507184
C151  C     C_R   0.106262 0.393989 0.749787 0.545044
C152  C     C_R   0.606134 0.106120 0.249988 0.506459
C153  C     C_R   0.393885 0.893865 0.749999 0.508184
C154  C     C_R   0.106160 0.393834 0.250001 0.575711
C155  C     C_1   0.499974 0.000015 0.518816 0.002334
C156  C     C_R   0.893834 0.606155 0.749988 0.577543
C157  C     C_R   0.171636 0.665756 0.712727 0.065859
C158  C     C_R   0.796390 0.366226 0.255933 0.067313
C159  C     C_R   0.331689 0.169250 0.712574 0.065668
C160  C     C_R   0.633718 0.796178 0.255162 0.067328
C161  C     C_R   0.796360 0.366250 0.744221 0.064873
C162  C     C_R   0.203578 0.633807 0.255939 0.066319
C163  C     C_R   0.633402 0.796188 0.752509 0.054048
C164  C     C_R   0.325154 0.162365 0.286720 0.053480
C165  C     C_R   0.796223 0.633700 0.255213 0.067365
C166  C     C_R   0.223846 0.736081 0.823905 -0.118924
C167  C     C_R   0.169020 0.331417 0.712276 0.052943
C168  C     C_R   0.633830 0.203621 0.255918 0.066379
C169  C     C_R   0.334306 0.828286 0.712733 0.066104
C170  C     C_R   0.162336 0.325143 0.286720 0.053453
C171  C     C_R   0.796204 0.633338 0.752434 0.055273
C172  C     C_R   0.366202 0.796346 0.255882 0.067217
C173  C     C_R   0.633814 0.203637 0.744202 0.066380
C174  C     C_R   0.703610 0.133773 0.244067 0.067314
C175  C     C_R   0.328364 0.834244 0.787273 0.065766
C176  C     C_R   0.866282 0.703822 0.244838 0.067329
H1    H     H_    0.206852 0.723821 0.852971 0.159463
H2    H     H_    0.215913 0.284997 0.853336 0.112324
H3    H     H_    0.811704 0.118882 0.233355 0.160060
H4    H     H_    0.276238 0.793132 0.852974 0.159527
H5    H     H_    0.233316 0.301914 0.148218 0.112552
H6    H     H_    0.881916 0.813369 0.742864 0.113245
H7    H     H_    0.188327 0.881120 0.233388 0.159072
H8    H     H_    0.811764 0.118833 0.766242 0.156600
H9    H     H_    0.618968 0.311771 0.266636 0.159132
H10   H     H_    0.293147 0.776181 0.647029 0.159556
H11   H     H_    0.687901 0.618542 0.264633 0.160076
H12   H     H_    0.881032 0.188228 0.233364 0.159087
H13   H     H_    0.216234 0.285219 0.646477 0.159379
H14   H     H_    0.381028 0.688198 0.266586 0.160055
H15   H     H_    0.618912 0.311818 0.733741 0.158728
H16   H     H_    0.198053 0.266697 0.351782 0.113069
H17   H     H_    0.686714 0.617983 0.757091 0.113846
H18   H     H_    0.285611 0.216158 0.646592 0.158892
H19   H     H_    0.618626 0.687804 0.264607 0.160061
H20   H     H_    0.223761 0.706869 0.647025 0.159620
H21   H     H_    0.688296 0.381118 0.266645 0.160087
H22   H     H_    0.618084 0.686631 0.757135 0.113255
H23   H     H_    0.284606 0.215669 0.853254 0.157987
H24   H     H_    0.266684 0.198086 0.351782 0.113053
H25   H     H_    0.688233 0.381169 0.733754 0.156677
H26   H     H_    0.311673 0.618879 0.266612 0.159097
H27   H     H_    0.159711 0.599138 0.676807 0.233545
H28   H     H_    0.114509 0.650882 0.669189 0.262281
H29   H     H_    0.789465 0.444788 0.236771 0.257893
H30   H     H_    0.803915 0.437477 0.287320 0.233822
H31   H     H_    0.395656 0.154384 0.674617 0.236148
H32   H     H_    0.342853 0.109374 0.670455 0.262977
H33   H     H_    0.555570 0.789312 0.235099 0.257957
H34   H     H_    0.812099 0.881458 0.235367 0.160060
H35   H     H_    0.561901 0.803038 0.285854 0.234572
H36   H     H_    0.789469 0.444796 0.763520 0.267787
H37   H     H_    0.803763 0.437573 0.712929 0.239195
H38   H     H_    0.210457 0.555162 0.236913 0.262222
H39   H     H_    0.196033 0.562710 0.287460 0.235938
H40   H     H_    0.568579 0.760798 0.780721 0.236854
H41   H     H_    0.567236 0.757567 0.728711 0.224983
H42   H     H_    0.355445 0.165188 0.344420 0.225265
H43   H     H_    0.307818 0.115534 0.336228 0.235992
H44   H     H_    0.789391 0.555499 0.235163 0.257987
H45   H     H_    0.881084 0.188182 0.766252 0.158567
H46   H     H_    0.803116 0.561874 0.285914 0.234572
H47   H     H_    0.153767 0.394886 0.673953 0.233642
H48   H     H_    0.108806 0.341983 0.670402 0.262204
H49   H     H_    0.555231 0.210531 0.236899 0.262235
H50   H     H_    0.562754 0.196116 0.287445 0.235974
H51   H     H_    0.400932 0.840118 0.676843 0.236554
H52   H     H_    0.349265 0.885385 0.669176 0.261702
H53   H     H_    0.165111 0.355472 0.344421 0.225255
H54   H     H_    0.115516 0.307787 0.336227 0.236031
H55   H     H_    0.760865 0.568401 0.780594 0.235570
H56   H     H_    0.118972 0.811801 0.233414 0.160036
H57   H     H_    0.757667 0.567100 0.728584 0.227840
H58   H     H_    0.444722 0.789390 0.236693 0.257865
H59   H     H_    0.437427 0.803832 0.287250 0.233798
H60   H     H_    0.555270 0.210528 0.763372 0.261611
H61   H     H_    0.562641 0.196207 0.712791 0.234438
H62   H     H_    0.710535 0.055212 0.263229 0.257929
H63   H     H_    0.696085 0.062523 0.212680 0.233772
H64   H     H_    0.340290 0.900862 0.823193 0.233980
H65   H     H_    0.385491 0.849117 0.830810 0.262147
H66   H     H_    0.944429 0.710688 0.264901 0.257984
H67   H     H_    0.813286 0.882017 0.742909 0.113832
H68   H     H_    0.938099 0.696961 0.214146 0.234539
H69   H     H_    0.177886 0.370703 0.841420 0.235963
H70   H     H_    0.129258 0.320885 0.840787 0.224607
H71   H     H_    0.289543 0.944838 0.263087 0.262284
H72   H     H_    0.303967 0.937290 0.212540 0.235857
H73   H     H_    0.710529 0.055204 0.736482 0.267865
H74   H     H_    0.696233 0.062432 0.787072 0.239227
H75   H     H_    0.144555 0.334811 0.155580 0.224909
H76   H     H_    0.192182 0.384466 0.163772 0.235803
H77   H     H_    0.931421 0.739202 0.719279 0.236963
H78   H     H_    0.301947 0.233302 0.148218 0.112695
H79   H     H_    0.932764 0.742433 0.771289 0.224860
H80   H     H_    0.345571 0.104949 0.825450 0.236573
H81   H     H_    0.390907 0.157487 0.829523 0.262689
H82   H     H_    0.710609 0.944500 0.264837 0.258014
H83   H     H_    0.696884 0.938126 0.214086 0.234536
H84   H     H_    0.099065 0.659885 0.823156 0.236142
H85   H     H_    0.150732 0.614618 0.830824 0.261973
H86   H     H_    0.944769 0.289469 0.263101 0.262286
H87   H     H_    0.937246 0.303884 0.212555 0.235855
H88   H     H_    0.739135 0.931599 0.719406 0.235644
H89   H     H_    0.881374 0.812196 0.235393 0.160046
H90   H     H_    0.742333 0.932900 0.771415 0.227765
H91   H     H_    0.334889 0.144528 0.155579 0.225060
H92   H     H_    0.384484 0.192213 0.163773 0.235927
H93   H     H_    0.944723 0.289472 0.736617 0.262046
H94   H     H_    0.937357 0.303788 0.787199 0.236797
H95   H     H_    0.055278 0.710610 0.263307 0.257900
H96   H     H_    0.062573 0.696168 0.212750 0.233750
N1    N     N_3   0.155362 0.641461 0.674722 -0.645130
N2    N     N_3   0.149823 0.352423 0.673959 -0.646955
N3    N     N_3   0.578070 0.218906 0.263047 -0.644992
N4    N     N_3   0.358635 0.844509 0.674733 -0.644825
N5    N     N_3   0.135738 0.341466 0.323822 -0.610429
N6    N     N_3   0.782263 0.576398 0.753678 -0.619708
N7    N     N_3   0.421986 0.781038 0.262895 -0.643841
N8    N     N_3   0.578035 0.218943 0.737194 -0.645503
N9    N     N_3   0.718883 0.077958 0.237031 -0.643803
N10   N     N_3   0.344638 0.858539 0.825278 -0.645192
N11   N     N_3   0.922187 0.719347 0.238531 -0.643704
N12   N     N_3   0.781117 0.422042 0.262969 -0.643777
N13   N     N_3   0.146511 0.353073 0.824326 -0.611049
N14   N     N_3   0.281173 0.921984 0.236937 -0.645097
N15   N     N_3   0.718940 0.077918 0.762693 -0.646859
N16   N     N_3   0.158527 0.364217 0.176178 -0.610661
N17   N     N_3   0.923494 0.717795 0.746204 -0.612017
N18   N     N_3   0.349855 0.147378 0.825677 -0.646308
N19   N     N_3   0.719268 0.922234 0.238467 -0.643674
N20   N     N_3   0.141362 0.655494 0.825267 -0.644951
N21   N     N_3   0.921930 0.281094 0.236953 -0.645069
N22   N     N_3   0.717737 0.923602 0.746322 -0.619724
N23   N     N_3   0.353220 0.150378 0.674316 -0.644620
N24   N     N_3   0.364262 0.158534 0.176178 -0.610534
N25   N     N_3   0.921961 0.281055 0.762796 -0.644912
N26   N     N_3   0.078014 0.718962 0.237105 -0.643862
N27   N     N_3   0.577812 0.780652 0.261469 -0.643687
N28   N     N_3   0.781057 0.422084 0.737308 -0.646851
N29   N     N_3   0.218827 0.578015 0.263062 -0.645061
N30   N     N_3   0.576506 0.782205 0.753796 -0.611999
N31   N     N_3   0.341473 0.135783 0.323822 -0.610444
N32   N     N_3   0.780732 0.577766 0.261533 -0.643656
O1    O     O_3   0.500000 0.000000 0.750000 -0.421754
O2    O     O_R   0.454070 0.000000 0.333910 -0.523925
O3    O     O_R   0.000000 0.545930 0.666090 -0.533326
O4    O     O_R   1.000000 0.454070 0.333910 -0.523801
O5    O     O_R   0.954070 0.500000 0.166090 -0.528627
O6    O     O_R   0.045930 0.500000 0.833910 -0.527103
O7    O     O_R   0.500000 0.954070 0.166090 -0.528759
O8    O     O_R   0.500000 0.045930 0.833910 -0.531647
O9    O     O_R   0.045930 0.500000 0.166090 -0.524042
O10   O     O_R   0.954070 0.500000 0.833910 -0.530013
O11   O     O_R   0.500000 0.045930 0.166090 -0.523862
O12   O     O_3   0.500000 0.000000 0.250000 -0.422946
O13   O     O_R   0.500000 0.954070 0.833910 -0.532981
O14   O     O_R   0.610280 0.935490 0.728060 -0.516694
O15   O     O_R   0.389720 0.064510 0.271940 -0.516664
O16   O     O_R   0.064510 0.610280 0.728060 -0.540550
O17   O     O_R   0.935490 0.389720 0.271940 -0.545570
O18   O     O_R   0.389720 0.064510 0.728060 -0.544415
O19   O     O_R   0.610280 0.935490 0.271940 -0.546830
O20   O     O_R   0.935490 0.389720 0.728060 -0.544262
O21   O     O_R   0.064510 0.610280 0.271940 -0.547260
O22   O     O_R   0.389720 0.935490 0.271940 -0.545513
O23   O     O_3   1.000000 0.500000 0.750000 -0.426104
O24   O     O_R   0.610280 0.064510 0.728060 -0.540885
O25   O     O_R   0.935490 0.610280 0.271940 -0.546958
O26   O     O_R   0.064510 0.389720 0.728060 -0.558272
O27   O     O_R   0.610280 0.064510 0.271940 -0.547170
O28   O     O_R   0.389720 0.935490 0.728060 -0.545240
O29   O     O_R   0.064510 0.389720 0.271940 -0.516676
O30   O     O_R   0.935490 0.610280 0.728060 -0.513183
O31   O     O_R   0.110280 0.435490 0.228060 -0.516691
O32   O     O_R   0.889720 0.564510 0.771940 -0.517212
O33   O     O_R   0.564510 0.110280 0.228060 -0.545608
O34   O     O_3   1.000000 0.500000 0.250000 -0.422931
O35   O     O_R   0.435490 0.889720 0.771940 -0.539688
O36   O     O_R   0.889720 0.564510 0.228060 -0.546845
O37   O     O_R   0.110280 0.435490 0.771940 -0.506386
O38   O     O_R   0.435490 0.889720 0.228060 -0.547302
O39   O     O_R   0.564510 0.110280 0.771940 -0.545021
O40   O     O_R   0.889720 0.435490 0.771940 -0.540548
O41   O     O_R   0.110280 0.564510 0.228060 -0.545557
O42   O     O_R   0.435490 0.110280 0.771940 -0.548555
O43   O     O_R   0.564510 0.889720 0.228060 -0.546979
O44   O     O_R   0.110280 0.564510 0.771940 -0.548021
O45   O     O_R   0.454070 0.000000 0.666090 -0.535920
O46   O     O_R   0.889720 0.435490 0.228060 -0.547218
O47   O     O_R   0.564510 0.889720 0.771940 -0.513169
O48   O     O_R   0.435490 0.110280 0.228060 -0.516685
O49   O     O_R   0.545930 0.000000 0.333910 -0.528628
O50   O     O_R   1.000000 0.454070 0.666090 -0.533113
O51   O     O_R   1.000000 0.545930 0.333910 -0.528743
O52   O     O_R   0.545930 0.000000 0.666090 -0.528563
Zn1   Zn    Zn3+2 0.500000 0.934510 0.781550 0.952466
Zn2   Zn    Zn3+2 0.000000 0.565490 0.718450 0.949623
Zn3   Zn    Zn3+2 0.565490 0.000000 0.281550 0.929843
Zn4   Zn    Zn3+2 0.434510 0.000000 0.718450 0.928218
Zn5   Zn    Zn3+2 1.000000 0.565490 0.281550 0.929773
Zn6   Zn    Zn3+2 0.000000 0.434510 0.718450 0.930519
Zn7   Zn    Zn3+2 0.434510 0.000000 0.281550 0.951535
Zn8   Zn    Zn3+2 0.565490 0.000000 0.718450 0.952361
Zn9   Zn    Zn3+2 0.500000 0.065490 0.218450 0.951536
Zn10  Zn    Zn3+2 0.065490 0.500000 0.781550 0.949171
Zn11  Zn    Zn3+2 0.934510 0.500000 0.218450 0.929757
Zn12  Zn    Zn3+2 0.500000 0.065490 0.781550 0.928438
Zn13  Zn    Zn3+2 0.500000 0.934510 0.218450 0.929695
Zn14  Zn    Zn3+2 0.934510 0.500000 0.781550 0.953720
Zn15  Zn    Zn3+2 0.065490 0.500000 0.218450 0.951360
Zn16  Zn    Zn3+2 1.000000 0.434510 0.281550 0.951615

loop_
_geom_bond_atom_site_label_1
_geom_bond_atom_site_label_2
_ccdc_geom_bond_type
H82   N19   S    
O28   Zn4   S    
O30   Zn2   S    
C112  H26   S    
C134  O51   A    
H27   N1    S    
C143  O42   A    
C40   C46   A    
H63   N9    S    
C12   C23   A    
O38   Zn13  S    
C176  N11   S    
C159  N23   S    
C19   C143  S    
C35   H45   S    
C115  C136  S    
C25   C164  A    
C151  O37   A    
C114  C137  S    
C174  N9    S    
C150  O25   A    
C48   C91   A    
O21   Zn5   S    
C111  C125  S    
C27   C151  S    
C115  C124  T    
O42   Zn12  S    
C60   C103  A    
C117  C126  T    
C65   C108  A    
C36   C71   A    
C97   C105  A    
C119  C128  T    
C158  N12   S    
C32   C172  A    
C143  O18   A    
H30   N12   S    
H41   N30   S    
C29   C175  A    
H76   N16   S    
O4    Zn16  S    
O51   Zn5   S    
O36   Zn11  S    
H69   N13   S    
C61   C104  A    
C7    C31   A    
C9    N19   S    
C10   N20   S    
O7    Zn13  S    
C137  O11   A    
C101  C110  A    
O43   Zn13  S    
C53   C82   A    
C100  C124  S    
O26   Zn6   S    
H86   N21   S    
C58   C101  A    
C141  O16   A    
C148  O22   A    
C4    C32   A    
C16   C40   A    
C32   C148  S    
C6    C30   A    
C131  O2    A    
O32   Zn14  S    
C166  H1    S    
O17   Zn16  S    
C145  O19   A    
H50   N3    S    
C132  O3    A    
O15   Zn7   S    
C88   H3    S    
C97   H11   S    
C66   C77   A    
C59   C102  A    
C142  O17   A    
C45   C81   A    
C101  H15   S    
H59   N7    S    
C21   C146  S    
C33   C149  S    
C41   C76   A    
C55   C80   A    
C93   H7    S    
H52   N4    S    
C55   C98   A    
H53   N5    S    
H33   N27   S    
C70   C82   A    
C147  O21   A    
C28   C168  A    
C30   C154  S    
C15   N25   S    
C100  C111  T    
C20   C160  A    
C5    C51   A    
C102  C109  A    
C92   H6    S    
C29   C169  A    
O8    Zn12  S    
C87   H2    S    
H84   N20   S    
C11   C18   A    
C57   C92   A    
C153  O28   A    
C31   C156  S    
C116  C135  S    
C49   C84   A    
C39   C74   A    
O14   Zn8   S    
H85   N20   S    
C16   N26   S    
H40   N30   S    
O34   Zn5   S    
C153  O35   A    
C24   C79   A    
C134  O4    A    
C135  O9    A    
C140  O48   A    
C5    C33   A    
C119  C131  S    
C62   C73   A    
O29   Zn16  S    
C17   C157  A    
C168  N3    S    
C173  N8    S    
C14   C25   A    
H64   N10   S    
H49   N3    S    
C13   C87   A    
O12   Zn13  S    
C169  N4    S    
O20   Zn6   S    
C58   C86   A    
O45   Zn4   S    
C90   H4    S    
C3    C44   A    
C8    C19   A    
C146  O20   A    
C120  C129  T    
C69   C162  A    
C135  O5    A    
O39   Zn12  S    
H46   N32   S    
C148  O38   A    
H92   N24   S    
C67   C110  A    
C26   C176  A    
C65   C163  A    
C66   C164  A    
O49   Zn3   S    
C114  C123  T    
O23   Zn2   S    
C116  C125  T    
C47   C90   A    
C62   C160  A    
C118  C127  T    
C63   C157  A    
O12   Zn3   S    
H96   N26   S    
C35   C94   A    
C11   N21   S    
C13   H23   S    
H60   N8    S    
C60   C171  A    
C46   H56   S    
C146  O40   A    
H95   N26   S    
C99   H14   S    
C152  O33   A    
H48   N2    S    
O48   Zn9   S    
C131  O49   A    
O50   Zn6   S    
C48   C83   A    
H31   N23   S    
O34   Zn11  S    
C3    C27   A    
H35   N27   S    
C72   C80   A    
C28   C174  A    
C31   C171  A    
C9    C38   A    
C141  O44   A    
C52   C81   A    
C1    C121  S    
H37   N28   S    
C118  C132  S    
C151  O26   A    
C113  C121  T    
C42   C77   A    
C4    N14   S    
O23   Zn6   S    
C64   C158  A    
C104  H18   S    
C56   C99   A    
C161  N28   S    
H42   N31   S    
C56   C172  A    
C71   C81   A    
O41   Zn15  S    
C26   C165  A    
O31   Zn15  S    
C55   C167  A    
H65   N10   S    
C76   C84   A    
O1    Zn4   S    
C43   C78   A    
O16   Zn2   S    
H57   N6    S    
C65   C76   A    
C94   H8    S    
C160  N27   S    
C59   C83   A    
O34   Zn15  S    
O22   Zn7   S    
C98   H13   S    
C157  N1    S    
C22   C162  A    
C69   C112  A    
C2    C36   A    
O46   Zn11  S    
O6    Zn10  S    
C52   C95   A    
C17   C141  S    
C64   C71   A    
C30   C170  A    
C50   C85   A    
C163  N30   S    
C75   C85   A    
O24   Zn8   S    
C102  H16   S    
H74   N15   S    
C149  O39   A    
C54   C97   A    
C175  N10   S    
C132  O50   A    
C44   C87   A    
C34   C70   A    
C53   C169  A    
C90   C166  A    
C53   C96   A    
O27   Zn3   S    
H88   N22   S    
H71   N14   S    
C117  C134  S    
C51   C86   A    
H93   N25   S    
O1    Zn8   S    
C12   N22   S    
H39   N29   S    
H43   N31   S    
C96   H10   S    
C44   C80   A    
C45   C88   A    
O37   Zn10  S    
C129  C155  S    
C24   H34   S    
C136  O10   A    
C14   N24   S    
C167  N2    S    
C4    C50   A    
C5    N15   S    
C35   C39   A    
H51   N4    S    
C12   C41   A    
C18   C158  A    
C156  O30   A    
C43   C176  A    
C67   C161  A    
C9    C20   A    
O25   Zn5   S    
C26   C150  S    
C25   C140  S    
H87   N21   S    
C130  O52   A    
C20   C145  S    
C63   C106  A    
C171  N6    S    
C95   C107  A    
H94   N25   S    
C61   C72   A    
C91   H5    S    
H29   N12   S    
O2    Zn7   S    
C58   C173  A    
H75   N16   S    
C49   C92   A    
H66   N11   S    
C95   H9    S    
C107  H21   S    
C3    N13   S    
C140  O15   A    
H68   N11   S    
C16   C22   A    
H58   N7    S    
O35   Zn1   S    
C127  C133  S    
H36   N28   S    
C106  H20   S    
C147  O41   A    
C40   C75   A    
H90   N22   S    
C19   C159  A    
C41   C57   A    
C57   H67   S    
H62   N9    S    
C45   C174  A    
C165  N32   S    
H72   N14   S    
C7    N17   S    
C56   C85   A    
H47   N2    S    
O11   Zn9   S    
C69   C75   A    
C66   C109  A    
C108  H22   S    
C2    H12   S    
C68   H78   S    
C22   C147  S    
H79   N17   S    
C37   C72   A    
C139  O47   A    
C113  C138  S    
C109  H24   S    
C103  H17   S    
C34   C166  A    
C130  O45   A    
C54   C78   A    
C152  O27   A    
C6    N16   S    
C154  O31   A    
H80   N18   S    
O19   Zn3   S    
O9    Zn15  S    
C62   C105  A    
C8    N18   S    
H44   N32   S    
O3    Zn2   S    
C6    C48   A    
C110  H25   S    
C120  C130  S    
C23   C139  S    
C11   C36   A    
C61   C159  A    
O1    Zn1   S    
C156  O32   A    
C77   C83   A    
C10   C17   A    
C43   C79   A    
O23   Zn10  S    
C68   C91   A    
C138  O8    A    
C47   C82   A    
C170  N5    S    
O12   Zn9   S    
C142  O46   A    
C24   C38   A    
C73   C78   A    
C2    C88   A    
C103  C108  A    
C59   C170  A    
C33   C173  A    
H32   N23   S    
C13   C37   A    
C14   C42   A    
C139  O14   A    
O5    Zn11  S    
C42   C68   A    
H81   N18   S    
C23   C163  A    
O52   Zn8   S    
C21   C161  A    
C8    C37   A    
H54   N5    S    
C172  N7    S    
O18   Zn4   S    
C18   C142  S    
H61   N8    S    
C7    C49   A    
C164  N31   S    
C67   C74   A    
C89   C123  S    
O23   Zn14  S    
C122  C126  S    
O13   Zn1   S    
C122  C133  T    
C137  O7    A    
C128  C144  S    
C63   C70   A    
H83   N19   S    
C15   C39   A    
C10   C34   A    
C74   C86   A    
O12   Zn7   S    
O1    Zn12  S    
O33   Zn9   S    
H28   N1    S    
C28   C152  S    
C154  O29   A    
C149  O24   A    
C64   C107  A    
C29   C153  S    
C136  O6    A    
C105  H19   S    
C96   C106  A    
C1    C89   T    
H55   N6    S    
H77   N17   S    
C150  O36   A    
C50   C93   A    
C145  O43   A    
H38   N29   S    
C144  C155  T    
O34   Zn16  S    
C162  N29   S    
C52   C168  A    
C60   C84   A    
O44   Zn10  S    
C46   C93   A    
C98   C104  A    
C99   C112  A    
C79   H89   S    
O40   Zn14  S    
H91   N24   S    
C47   C175  A    
C138  O13   A    
C51   C94   A    
C15   C21   A    
H73   N15   S    
O10   Zn14  S    
H70   N13   S    
C54   C165  A    
O47   Zn1   S    
C27   C167  A    
C38   C73   A    
