data_mof_unit_54418.cif
_audit_creation_date              2012-12-11T17:25:05-0500
_audit_creation_method            fapswitch 2.2
_symmetry_space_group_name_H-M    P1
_symmetry_Int_Tables_number       1
_space_group_crystal_system       triclinic
_cell_length_a                    6.951533
_cell_length_b                    20.517259
_cell_length_c                    24.516805
_cell_angle_alpha                 90.082482
_cell_angle_beta                  90.273812
_cell_angle_gamma                 89.277636
_cell_volume                      3496.42255338

loop_
_atom_site_label
_atom_site_type_symbol
_atom_type_description
_atom_site_fract_x
_atom_site_fract_y
_atom_site_fract_z
_atom_type_partial_charge
O1    O     O_R   0.507280 0.423750 0.460310 -0.536455
O2    O     O_R   0.171030 0.555650 0.437630 -0.537127
O3    O     O_R   0.004080 0.576250 0.539690 -0.536497
C1    C     C_R   0.339095 0.575628 0.421768 0.726245
O4    O     O_R   0.177330 0.422980 0.453960 -0.539193
O5    O     O_R   0.010420 0.442640 0.556140 -0.533695
C2    C     C_R   0.347283 0.399587 0.442456 0.708947
O6    O     O_R   0.500930 0.557360 0.443860 -0.534537
O7    O     O_3   0.340310 0.506600 0.533500 -0.366656
V1    V     V_3+5 0.064140 0.498780 0.493780 1.418977
O8    O     O_R   0.680890 0.444350 0.562370 -0.538448
C3    C     C_R   0.850607 0.424490 0.578204 0.728826
O9    O     O_R   0.674590 0.577020 0.546040 -0.539869
C4    C     C_R   0.842375 0.600791 0.556708 0.725915
V2    V     V_3+5 0.564550 0.501220 0.506220 1.419823
O10   O     O_3   0.838250 0.493400 0.466500 -0.368036
C5    C     C_R   0.977339 0.838631 0.910483 -0.056037
C6    C     C_R   0.847338 0.660043 0.590771 -0.085004
C7    C     C_R   0.054957 0.723554 0.902857 -0.179662
C8    C     C_R   0.025167 0.778529 0.935398 0.116169
C9    C     C_R   0.949089 0.841867 0.852976 0.061450
C10   C     C_R   0.946019 0.782677 0.821584 0.084164
C11   C     C_R   0.020348 0.725455 0.846678 0.071933
C12   C     C_R   0.879891 0.777679 0.766031 0.028168
C13   C     C_R   0.919822 0.720402 0.734835 0.066589
C14   C     C_R   0.029892 0.670415 0.759485 -0.178667
C15   C     C_R   0.067163 0.670915 0.815111 -0.187678
C16   C     C_R   0.761235 0.825501 0.742099 -0.207444
C17   C     C_R   0.726869 0.827097 0.685804 0.156502
C18   C     C_R   0.797324 0.775197 0.652500 0.067136
C19   C     C_R   0.858597 0.716593 0.678974 0.004267
C20   C     C_R   0.802915 0.777670 0.594330 0.181948
C21   C     C_R   0.833228 0.720098 0.564718 -0.223690
C22   C     C_R   0.852161 0.657120 0.648321 0.109159
H1    H     H_    0.835537 0.721494 0.520493 0.117727
H2    H     H_    0.087350 0.629955 0.736305 0.147497
C23   C     C_R   0.747114 0.287151 0.743763 -0.163713
H3    H     H_    0.615405 0.315563 0.739712 0.128485
C24   C     C_R   0.896662 0.294947 0.706260 0.096004
C25   C     C_R   0.065831 0.257527 0.712435 -0.155393
H4    H     H_    0.181731 0.263515 0.683513 0.117513
C26   C     C_R   0.086287 0.212340 0.755560 0.168010
C27   C     C_R   0.934601 0.204753 0.793235 0.124097
C28   C     C_R   0.766277 0.242638 0.786924 -0.199786
C29   C     C_1   0.877207 0.341143 0.661428 -0.048510
C30   C     C_1   0.949324 0.158761 0.838514 -0.041726
C31   C     C_1   0.961273 0.120619 0.876324 -0.188814
C32   C     C_1   0.863328 0.379380 0.623712 -0.191365
C33   C     C_R   0.586106 0.786705 0.247074 0.166359
C34   C     C_R   0.440568 0.795236 0.207030 0.123180
C35   C     C_R   0.271831 0.758528 0.211060 -0.197689
C36   C     C_R   0.246427 0.714315 0.254095 -0.164184
H5    H     H_    0.114573 0.686860 0.256206 0.129500
C37   C     C_R   0.389949 0.705552 0.293915 0.094995
C38   C     C_R   0.559419 0.741841 0.290058 -0.154283
C39   C     C_1   0.461249 0.841163 0.161773 -0.042676
C40   C     C_1   0.364985 0.659300 0.338568 -0.047869
C41   C     C_1   0.349142 0.620970 0.376191 -0.192896
C42   C     C_1   0.475411 0.879256 0.123938 -0.191361
C43   C     C_R   0.472235 0.162816 0.088165 -0.051242
C44   C     C_R   0.361863 0.338610 0.410035 -0.045227
C45   C     C_R   0.532482 0.278783 0.094484 -0.174195
C46   C     C_R   0.519147 0.222220 0.062809 0.160384
C47   C     C_R   0.440026 0.161650 0.144891 -0.278947
C48   C     C_R   0.471510 0.217467 0.178122 0.106776
C49   C     C_R   0.508371 0.276972 0.151222 0.105373
C50   C     C_R   0.463506 0.216814 0.236967 0.009358
C51   C     C_R   0.444367 0.277574 0.265459 0.018833
C52   C     C_R   0.492767 0.334740 0.237045 -0.168470
C53   C     C_R   0.525071 0.334352 0.181239 -0.198278
C54   C     C_R   0.491198 0.159095 0.268487 0.140141
C55   C     C_R   0.453989 0.159988 0.325256 0.146094
C56   C     C_R   0.422308 0.220072 0.352691 0.052917
C57   C     C_R   0.403783 0.279217 0.322808 0.034069
C58   C     C_R   0.418795 0.222355 0.410278 -0.149596
C59   C     C_R   0.399204 0.280964 0.438096 -0.214800
C60   C     C_R   0.347271 0.337425 0.352268 0.119155
H6    H     H_    0.561297 0.379686 0.161321 0.122081
H7    H     H_    0.564640 0.324581 0.074638 0.121324
H8    H     H_    0.391684 0.116580 0.162477 0.133842
H9    H     H_    0.516981 0.380154 0.258040 0.146647
O11   O     O_R   0.323320 0.942780 0.056240 -0.534781
O12   O     O_R   0.647300 0.077050 0.046060 -0.535288
O13   O     O_R   0.813840 0.057330 0.943840 -0.534205
C61   C     C_R   0.478015 0.100898 0.057062 0.705078
O14   O     O_R   0.653250 0.944380 0.062400 -0.537345
O15   O     O_R   0.819830 0.923720 0.960300 -0.537215
C62   C     C_R   0.485181 0.924426 0.078263 0.725804
O16   O     O_R   0.317330 0.076390 0.039790 -0.536645
O17   O     O_3   0.483830 0.993470 0.966560 -0.367125
V3    V     V_3+5 0.760140 0.001210 0.006210 1.423248
O18   O     O_R   0.149290 0.922840 0.953850 -0.538892
C63   C     C_R   0.981516 0.898922 0.943514 0.728707
O19   O     O_R   0.143340 0.055500 0.937510 -0.538364
C64   C     C_R   0.973652 0.075506 0.921801 0.730601
V4    V     V_3+5 0.259690 0.998600 0.993650 1.421711
O20   O     O_3   0.986130 0.006520 0.033440 -0.367362
H10   H     H_    0.139083 0.629017 0.833278 0.123859
C65   C     C_3   0.799454 0.840532 0.562393 -0.780953
H11   H     H_    0.857585 0.833481 0.520625 0.202017
H12   H     H_    0.650247 0.859308 0.557550 0.212950
H13   H     H_    0.892653 0.877024 0.582513 0.210474
H14   H     H_    0.649261 0.237811 0.815582 0.129961
C66   C     C_3   0.269187 0.172722 0.760915 -0.794994
H15   H     H_    0.374923 0.185376 0.728915 0.210002
H16   H     H_    0.336089 0.181815 0.801367 0.209507
H17   H     H_    0.236478 0.120070 0.757173 0.214607
H18   H     H_    0.670913 0.735182 0.320680 0.117605
C67   C     C_3   0.769165 0.824976 0.244393 -0.793399
H19   H     H_    0.869893 0.811746 0.278021 0.209873
H20   H     H_    0.842440 0.815145 0.205060 0.210211
H21   H     H_    0.735331 0.877889 0.247424 0.213904
H22   H     H_    0.159192 0.764057 0.180683 0.128083
C68   C     C_3   0.816007 0.591763 0.675018 -0.806195
H23   H     H_    0.945599 0.559845 0.671640 0.195632
H24   H     H_    0.771552 0.596668 0.718198 0.219319
H25   H     H_    0.693855 0.567163 0.654602 0.207962
C69   C     C_3   0.245318 0.394579 0.325201 -0.817440
H26   H     H_    0.340900 0.437515 0.324186 0.190808
H27   H     H_    0.192688 0.382619 0.283678 0.223005
H28   H     H_    0.114006 0.407946 0.348485 0.217439
H29   H     H_    0.408393 0.281055 0.482249 0.114853
C70   C     C_3   0.449842 0.096372 0.356954 -0.795132
H30   H     H_    0.317899 0.094705 0.382253 0.204611
H31   H     H_    0.443811 0.052742 0.330333 0.222142
H32   H     H_    0.579193 0.092139 0.383519 0.206568
C71   C     C_3   0.554253 0.227883 0.002301 -0.790929
H33   H     H_    0.532495 0.181559 0.979922 0.201350
H34   H     H_    0.453754 0.264759 0.984614 0.204996
H35   H     H_    0.704204 0.243778 0.995275 0.208679
C72   C     C_3   0.606602 0.101580 0.246169 -0.789331
H36   H     H_    0.510290 0.060687 0.235521 0.199568
H37   H     H_    0.695440 0.115137 0.210600 0.214470
H38   H     H_    0.713182 0.084103 0.276912 0.220653
H39   H     H_    0.441348 0.179259 0.434911 0.135033
C73   C     C_3   0.592809 0.880009 0.664823 -0.774466
H40   H     H_    0.674285 0.918370 0.643574 0.212054
H41   H     H_    0.481725 0.858695 0.637718 0.214743
H42   H     H_    0.513689 0.904580 0.698501 0.201379
H43   H     H_    0.105066 0.678606 0.921738 0.129113
C74   C     C_3   0.057715 0.771414 0.996074 -0.782986
H44   H     H_    0.022048 0.816218 0.019435 0.197011
H45   H     H_    0.965786 0.731911 0.011962 0.206734
H46   H     H_    0.210819 0.758414 0.004060 0.209372
C75   C     C_3   0.959756 0.908427 0.826166 -0.809203
H47   H     H_    0.999823 0.905339 0.782544 0.221292
H48   H     H_    0.821454 0.935364 0.831228 0.203160
H49   H     H_    0.076053 0.937609 0.844967 0.200794
H50   H     H_    0.693599 0.862284 0.767326 0.154439

loop_
_geom_bond_atom_site_label_1
_geom_bond_atom_site_label_2
_ccdc_geom_bond_type
C13   C19   A    
C27   C30   S    
C15   H10   S    
O15   V3    S    
C53   H6    S    
C47   H8    S    
C56   C57   A    
C4    C6    S    
O2    C1    A    
C7    C8    A    
C1    O6    A    
C72   H38   S    
C66   H16   S    
C68   H23   S    
O17   V3    S    
C70   H30   S    
C14   C15   A    
C17   C18   A    
C43   C46   A    
C16   C17   A    
C23   H3    S    
O14   V3    S    
C67   H20   S    
O5    C3    A    
C18   C19   A    
C58   H39   S    
C70   H31   S    
C51   C57   A    
V2    O10   S    
O18   V4    S    
C5    C8    A    
C69   H26   S    
C2    C44   S    
C30   C31   T    
O8    V2    S    
C44   C60   A    
C7    H43   S    
C48   C50   A    
C57   C60   A    
O1    V2    S    
O13   V3    S    
C11   C15   A    
O7    V1    S    
C3    C32   S    
C24   C29   S    
C25   C26   A    
C16   H50   S    
C9    C10   A    
C56   C58   A    
C52   C53   A    
C74   H44   S    
C73   H42   S    
C66   H15   S    
C75   H48   S    
C28   H14   S    
C36   C37   A    
C75   H47   S    
C44   C59   A    
O11   V4    S    
C45   C49   A    
O14   C62   A    
C50   C51   A    
C45   H7    S    
C12   C13   A    
C55   C56   A    
C73   H41   S    
C60   C69   S    
C74   H46   S    
C24   C25   A    
O4    C2    A    
C61   O16   A    
C51   C52   A    
C70   H32   S    
C13   C14   A    
C33   C38   A    
C34   C39   S    
C35   C36   A    
C69   H28   S    
C9    C75   S    
C7    C11   A    
C58   C59   A    
C71   H34   S    
C45   C46   A    
C65   H11   S    
C43   C61   S    
V4    O20   S    
C65   H13   S    
C34   C35   A    
C19   C22   A    
C35   H22   S    
V3    O20   S    
O19   V4    S    
C6    C22   A    
O3    C4    A    
C14   H2    S    
C25   H4    S    
O12   C61   A    
C48   C49   A    
O6    V2    S    
O9    V2    S    
C27   C28   A    
C10   C12   A    
C67   H21   S    
C5    C63   S    
C26   C27   A    
C72   H36   S    
O2    V1    S    
C75   H49   S    
C36   H5    S    
C33   C67   S    
C29   C32   T    
C37   C38   A    
C42   C62   S    
C65   H12   S    
O1    C2    A    
C8    C74   S    
C12   C16   A    
C73   H40   S    
C72   H37   S    
C26   C66   S    
O5    V1    S    
C68   H24   S    
O8    C3    A    
C39   C42   T    
O17   V4    S    
C22   C68   S    
O12   V3    S    
C20   C65   S    
C38   H18   S    
C43   C47   A    
C59   H29   S    
C47   C48   A    
O16   V4    S    
C74   H45   S    
O7    V2    S    
C71   H35   S    
O4    V1    S    
C55   C70   S    
O3    V1    S    
V1    O10   S    
C67   H19   S    
C20   C21   A    
C18   C20   A    
C40   C41   T    
C49   C53   A    
C23   C28   A    
O11   C62   A    
O15   C63   A    
O18   C63   A    
C21   H1    S    
C50   C54   A    
O19   C64   A    
C6    C21   A    
C69   H27   S    
C68   H25   S    
C52   H9    S    
C54   C72   S    
C54   C55   A    
C17   C73   S    
C23   C24   A    
C33   C34   A    
C1    C41   S    
C31   C64   S    
C10   C11   A    
O9    C4    A    
O13   C64   A    
C66   H17   S    
C46   C71   S    
C71   H33   S    
C37   C40   S    
C5    C9    A    
