data_mof_unit_54914.cif
_audit_creation_date              2012-12-11T15:44:54-0500
_audit_creation_method            fapswitch 2.2
_symmetry_space_group_name_H-M    P1
_symmetry_Int_Tables_number       1
_space_group_crystal_system       triclinic
_cell_length_a                    19.088344
_cell_length_b                    11.032139
_cell_length_c                    18.740393
_cell_angle_alpha                 90.068239
_cell_angle_beta                  90.13507
_cell_angle_gamma                 90.180388
_cell_volume                      3946.41725384

loop_
_atom_site_label
_atom_site_type_symbol
_atom_type_description
_atom_site_fract_x
_atom_site_fract_y
_atom_site_fract_z
_atom_type_partial_charge
C1    C     C_R   0.761741 0.530401 0.645686 0.555552
C2    C     C_R   0.261678 0.981620 0.519365 -0.083423
C3    C     C_R   0.470380 0.946819 0.970305 0.045736
C4    C     C_R   0.007955 0.230486 0.958370 -0.171763
C5    C     C_R   0.009657 0.232051 0.032978 -0.170932
C6    C     C_R   0.490707 0.732177 0.966554 -0.172539
C7    C     C_R   0.492368 0.730288 0.041152 -0.169016
C8    C     C_3   0.998635 0.569761 0.036720 -0.272826
C9    C     C_3   0.994905 0.571410 0.956241 -0.269066
C10   C     C_3   0.505808 0.071268 0.044124 -0.268582
C11   C     C_3   0.502141 0.069865 0.963649 -0.273502
C12   C     C_R   0.761166 0.529613 0.853333 0.543439
C13   C     C_R   0.320270 0.587600 0.449998 -0.136881
C14   C     C_R   0.238110 0.526925 0.145724 0.554966
C15   C     C_R   0.261940 0.027068 0.854334 0.544797
C16   C     C_R   0.738877 0.029431 0.146708 0.554103
C17   C     C_R   0.772231 0.125681 0.852806 0.553115
C18   C     C_R   0.228161 0.124242 0.147701 0.551152
C19   C     C_R   0.271868 0.624523 0.852353 0.552487
C20   C     C_R   0.727805 0.625404 0.147246 0.551798
C21   C     C_R   0.971328 0.347140 0.852596 0.558510
C22   C     C_R   0.032368 0.347152 0.144845 0.548678
C23   C     C_R   0.467729 0.847358 0.855078 0.554106
C24   C     C_R   0.761675 0.481617 0.519364 -0.083294
C25   C     C_R   0.528738 0.846905 0.147345 0.552356
C26   C     C_R   0.753398 0.098945 0.419504 0.007464
C27   C     C_R   0.253970 0.067932 0.573759 0.046738
C28   C     C_R   0.253397 0.598942 0.419504 0.007462
C29   C     C_R   0.753972 0.567931 0.573758 0.046924
C30   C     C_R   0.698667 0.143157 0.461971 0.024257
C31   C     C_R   0.230795 0.183199 0.558437 0.047679
C32   C     C_R   0.198666 0.643150 0.461973 0.024180
C33   C     C_R   0.730799 0.683199 0.558436 0.047576
C34   C     C_R   0.709844 0.161921 0.534323 0.092534
C35   C     C_3   0.628039 0.087110 0.475160 -0.257721
C36   C     C_R   0.219010 0.215670 0.488213 -0.023565
C37   C     C_R   0.209843 0.661916 0.534325 0.092606
C38   C     C_R   0.719012 0.715669 0.488212 -0.023474
C39   C     C_2   0.045551 0.895045 0.426835 0.623261
C40   C     C_2   0.068187 0.918880 0.577658 0.604952
C41   C     C_2   0.545510 0.395055 0.426782 0.623271
C42   C     C_2   0.568164 0.418877 0.577605 0.604968
C43   C     C_2   0.966803 0.081808 0.350963 0.603803
C44   C     C_2   0.074670 0.160914 0.639043 0.605589
C45   C     C_2   0.466766 0.581846 0.350920 0.603654
C46   C     C_3   0.267249 0.298251 0.576477 -0.252391
C47   C     C_2   0.574671 0.660914 0.638984 0.605826
C48   C     C_3   0.128039 0.587099 0.475163 -0.257851
C49   C     C_3   0.767253 0.798253 0.576473 -0.252531
C50   C     C_3   0.642433 0.100896 0.554106 -0.246497
C51   C     C_3   0.257087 0.331968 0.499286 -0.286272
C52   C     C_3   0.142433 0.600890 0.554108 -0.246451
C53   C     C_R   0.238874 0.533270 0.353989 0.552263
C54   C     C_3   0.757088 0.831969 0.499283 -0.286176
C55   C     C_R   0.776205 0.144774 0.564539 -0.007519
C56   C     C_R   0.227925 0.132180 0.433237 0.019329
C57   C     C_R   0.276204 0.644768 0.564540 -0.007489
C58   C     C_R   0.727924 0.632177 0.433237 0.019290
C59   C     C_R   0.982959 0.327070 0.415898 0.018277
C60   C     C_R   0.986575 0.347068 0.565556 -0.001769
C61   C     C_R   0.482932 0.827075 0.415876 0.018523
C62   C     C_R   0.486536 0.847065 0.565536 -0.002102
C63   C     C_R   0.997117 0.104524 0.424714 0.011705
C64   C     C_R   0.261740 0.030403 0.645687 0.556029
C65   C     C_R   0.037516 0.138419 0.569764 0.030880
C66   C     C_R   0.497073 0.604534 0.424678 0.011831
C67   C     C_R   0.537486 0.638414 0.569725 0.030756
C68   C     C_R   0.026805 0.008615 0.463770 -0.010996
C69   C     C_R   0.044343 0.024251 0.536290 -0.001982
C70   C     C_R   0.526764 0.508619 0.463725 -0.010994
C71   C     C_R   0.544312 0.524250 0.536244 -0.002015
C72   C     C_R   0.005760 0.235593 0.531783 -0.077496
C73   C     C_R   0.993501 0.221544 0.457269 -0.062751
C74   C     C_R   0.505718 0.735589 0.531756 -0.077567
C75   C     C_R   0.738874 0.033269 0.353990 0.551798
C76   C     C_R   0.493457 0.721546 0.457243 -0.062566
C77   C     C_R   0.966374 0.448448 0.521517 -0.009380
C78   C     C_R   0.956162 0.430382 0.447900 -0.000429
C79   C     C_R   0.466335 0.948447 0.521496 -0.009495
C80   C     C_R   0.456134 0.930388 0.447875 -0.000290
C81   C     C_R   0.789754 0.167318 0.638920 0.543912
C82   C     C_R   0.210352 0.166550 0.361630 0.545244
C83   C     C_R   0.289753 0.667316 0.638920 0.543735
C84   C     C_R   0.710352 0.666549 0.361630 0.545414
C85   C     C_R   0.957485 0.569381 0.546622 -0.089556
C86   C     C_R   0.832188 0.114162 0.520940 -0.189311
C87   C     C_R   0.923032 0.519314 0.405904 -0.078021
C88   C     C_R   0.457441 0.069379 0.546602 -0.089726
C89   C     C_R   0.423018 0.019326 0.405873 -0.077953
C90   C     C_R   0.926671 0.658080 0.504162 -0.104822
C91   C     C_R   0.906310 0.631087 0.434865 -0.074339
C92   C     C_R   0.426646 0.158088 0.504133 -0.104893
C93   C     C_R   0.406300 0.131101 0.434830 -0.074295
C94   C     C_R   0.745800 0.059635 0.071719 0.020862
C95   C     C_R   0.257059 0.052383 0.930311 0.020177
C96   C     C_R   0.243125 0.552597 0.069831 0.019447
C97   C     C_R   0.247769 0.013176 0.449045 -0.078378
C98   C     C_R   0.754378 0.559527 0.928407 0.021382
C99   C     C_R   0.790384 0.987130 0.031251 0.040616
C100  C     C_R   0.211467 0.980835 0.970426 0.039133
C101  C     C_R   0.288145 0.480775 0.029437 0.038295
C102  C     C_R   0.709329 0.487129 0.968630 0.041524
C103  C     C_R   0.792827 0.995884 0.958128 0.021628
C104  C     C_R   0.208663 0.989546 0.043541 0.023471
C105  C     C_R   0.290877 0.489779 0.956333 0.023061
C106  C     C_R   0.706833 0.495589 0.041760 0.021999
C107  C     C_R   0.698915 0.141372 0.961397 -0.163041
C108  C     C_R   0.332187 0.614148 0.520941 -0.189361
C109  C     C_R   0.305675 0.129411 0.041522 -0.151275
C110  C     C_R   0.194929 0.630785 0.958948 -0.150922
C111  C     C_R   0.801691 0.640264 0.039030 -0.163059
C112  C     C_R   0.697038 0.132635 0.035954 -0.166282
C113  C     C_R   0.308300 0.119910 0.966901 -0.150658
C114  C     C_R   0.192376 0.620986 0.033539 -0.151303
C115  C     C_R   0.803605 0.631866 0.964447 -0.165407
C116  C     C_3   0.867768 0.973887 0.038464 -0.272550
C117  C     C_3   0.134255 0.965352 0.962774 -0.270699
C118  C     C_3   0.365271 0.464675 0.036886 -0.271654
C119  C     C_R   0.747763 0.513171 0.449045 -0.078451
C120  C     C_3   0.631894 0.474089 0.961268 -0.271643
C121  C     C_3   0.870800 0.980585 0.958194 -0.267126
C122  C     C_3   0.130859 0.970950 0.043211 -0.268216
C123  C     C_3   0.368567 0.470596 0.956466 -0.267031
C124  C     C_3   0.628794 0.480478 0.041564 -0.268421
C125  C     C_R   0.750823 0.080064 0.922299 0.015926
C126  C     C_R   0.250883 0.073825 0.079637 0.016533
C127  C     C_R   0.249127 0.574512 0.920517 0.017209
C128  C     C_R   0.749230 0.579442 0.077845 0.015439
C129  C     C_R   0.965545 0.348340 0.642738 0.570952
C130  C     C_R   0.820272 0.087607 0.449997 -0.136897
C131  C     C_R   0.025705 0.344239 0.350644 0.548539
C132  C     C_R   0.465525 0.848341 0.642727 0.571591
C133  C     C_R   0.525699 0.844241 0.350637 0.547555
C134  C     C_R   0.016581 0.342487 0.069404 0.021423
C135  C     C_R   0.007771 0.340122 0.920364 0.018382
C136  C     C_R   0.492502 0.839733 0.079453 0.021607
C137  C     C_R   0.483835 0.842716 0.930416 0.018821
C138  C     C_R   0.030140 0.446866 0.029748 0.046158
C139  C     C_R   0.026089 0.446608 0.956745 0.029381
C140  C     C_R   0.474376 0.946272 0.043307 0.029317
Cr1   Cr    Cr6+3 0.885860 0.491680 0.749630 1.009885
Cr2   Cr    Cr6+3 0.112430 0.179310 0.249850 1.067272
Cr3   Cr    Cr6+3 0.387570 0.679310 0.750150 1.058364
Cr4   Cr    Cr6+3 0.612430 0.679310 0.249850 1.066696
Cr5   Cr    Cr6+3 0.114140 0.491680 0.250370 1.027250
Cr6   Cr    Cr6+3 0.385860 0.991680 0.749630 1.013542
Cr7   Cr    Cr6+3 0.614140 0.991680 0.250370 1.023563
Cr8   Cr    Cr6+3 0.730490 0.332970 0.748720 1.045830
Cr9   Cr    Cr6+3 0.269510 0.332970 0.251280 1.027280
Cr10  Cr    Cr6+3 0.230490 0.832970 0.748720 1.045732
Cr11  Cr    Cr6+3 0.769510 0.832970 0.251280 1.027343
Cr12  Cr    Cr6+3 0.887570 0.179310 0.750150 1.057670
H1    H     H_    0.883706 0.098804 0.543256 0.149650
H2    H     H_    0.342344 0.188121 0.068533 0.122783
H3    H     H_    0.158732 0.690239 0.932236 0.123606
H4    H     H_    0.837147 0.701768 0.065610 0.127642
H5    H     H_    0.659566 0.185843 0.065607 0.118331
H6    H     H_    0.347968 0.169099 0.937799 0.120584
H7    H     H_    0.153168 0.670610 0.062862 0.120893
H8    H     H_    0.841466 0.684851 0.934999 0.117757
H9    H     H_    0.884133 0.884975 0.059970 0.133910
H10   H     H_    0.118565 0.876323 0.940671 0.133580
H11   H     H_    0.380423 0.375443 0.058690 0.131777
H12   H     H_    0.254022 0.946322 0.407167 0.160664
H13   H     H_    0.615167 0.385275 0.939488 0.136176
H14   H     H_    0.892088 0.053172 0.065555 0.138195
H15   H     H_    0.109702 0.044213 0.935972 0.140521
H16   H     H_    0.390380 0.543205 0.063878 0.142138
H17   H     H_    0.607963 0.553547 0.934371 0.136083
H18   H     H_    0.898323 0.062544 0.939559 0.165638
H19   H     H_    0.101970 0.050721 0.062473 0.167371
H20   H     H_    0.397953 0.550219 0.937411 0.168387
H21   H     H_    0.601620 0.562421 0.060414 0.164668
H22   H     H_    0.887440 0.894455 0.932651 0.131082
H23   H     H_    0.383703 0.598781 0.543258 0.149612
H24   H     H_    0.115275 0.883610 0.068095 0.127417
H25   H     H_    0.383560 0.383252 0.931297 0.128077
H26   H     H_    0.611745 0.394273 0.066839 0.130424
H27   H     H_    0.000373 0.145450 0.930954 0.119179
H28   H     H_    0.003076 0.148474 0.062115 0.114323
H29   H     H_    0.497153 0.648736 0.937192 0.115888
H30   H     H_    0.499853 0.645223 0.068346 0.117027
H31   H     H_    0.035420 0.637924 0.059031 0.135920
H32   H     H_    0.940320 0.573288 0.936599 0.168404
H33   H     H_    0.560394 0.073424 0.063791 0.168847
H34   H     H_    0.754011 0.446315 0.407167 0.160598
H35   H     H_    0.465533 0.137942 0.941474 0.135641
H36   H     H_    0.946420 0.567203 0.062783 0.140355
H37   H     H_    0.030370 0.639607 0.931716 0.127218
H38   H     H_    0.470465 0.139218 0.068792 0.126937
H39   H     H_    0.554370 0.067619 0.937619 0.140836
H40   H     H_    0.860465 0.038164 0.423256 0.176163
H41   H     H_    0.278792 0.890656 0.531476 0.122957
H42   H     H_    0.360464 0.538160 0.423255 0.176145
H43   H     H_    0.778787 0.390653 0.531476 0.123012
H44   H     H_    0.122866 0.491423 0.457482 0.136921
H45   H     H_    0.920795 0.749331 0.524334 0.142287
H46   H     H_    0.822787 0.785550 0.592277 0.145067
H47   H     H_    0.622865 0.991434 0.457477 0.137098
H48   H     H_    0.322782 0.285546 0.592282 0.145051
H49   H     H_    0.584434 0.145246 0.456580 0.201021
H50   H     H_    0.236405 0.355076 0.613864 0.185379
H51   H     H_    0.084434 0.645233 0.456581 0.201011
H52   H     H_    0.736410 0.855078 0.613861 0.185284
H53   H     H_    0.604656 0.160713 0.581252 0.175059
H54   H     H_    0.221363 0.408077 0.493177 0.141765
H55   H     H_    0.104656 0.660708 0.581253 0.175065
H56   H     H_    0.881908 0.699497 0.401972 0.169070
H57   H     H_    0.721363 0.908077 0.493174 0.141804
H58   H     H_    0.650448 0.012926 0.581710 0.145938
H59   H     H_    0.306646 0.337596 0.468579 0.147749
H60   H     H_    0.150448 0.512922 0.581715 0.145928
H61   H     H_    0.806646 0.837598 0.468575 0.147760
H62   H     H_    0.910812 0.502406 0.350260 0.136519
H63   H     H_    0.978202 0.601846 0.596548 0.160050
H64   H     H_    0.410811 0.002422 0.350225 0.136526
H65   H     H_    0.478145 0.101843 0.596533 0.159989
H66   H     H_    0.121132 0.801604 0.376272 0.336806
H67   H     H_    0.420773 0.249339 0.524302 0.142269
H68   H     H_    0.047290 0.799490 0.656401 0.320904
H69   H     H_    0.621100 0.301592 0.376247 0.336794
H70   H     H_    0.547284 0.299497 0.656355 0.320939
H71   H     H_    0.972469 0.993818 0.256509 0.321372
H72   H     H_    0.097241 0.104472 0.738889 0.333181
H73   H     H_    0.472464 0.493935 0.256443 0.321183
H74   H     H_    0.597366 0.604403 0.738788 0.333019
H75   H     H_    0.381910 0.199517 0.401932 0.169129
H76   H     H_    0.663891 0.203451 0.935086 0.128478
O1    O     O_R   0.957020 0.451640 0.669920 -0.533397
O2    O     O_R   0.168040 0.093290 0.169870 -0.515316
O3    O     O_R   0.331960 0.593290 0.830130 -0.516836
O4    O     O_R   0.668040 0.593290 0.169870 -0.514653
O5    O     O_R   0.945600 0.250580 0.824860 -0.499553
O6    O     O_R   0.054400 0.250580 0.175140 -0.502488
O7    O     O_R   0.445600 0.750580 0.824860 -0.498337
O8    O     O_R   0.554400 0.750580 0.175140 -0.503512
O9    O     O_3   0.834640 0.334650 0.749500 -0.286871
O10   O     O_3   0.165360 0.334650 0.250500 -0.282357
O11   O     O_3   0.334640 0.834650 0.749500 -0.288937
O12   O     O_R   0.042980 0.451640 0.330080 -0.519931
O13   O     O_3   0.665360 0.834650 0.250500 -0.280269
O14   O     O_R   0.821450 0.543440 0.674610 -0.522242
O15   O     O_R   0.178550 0.543440 0.325390 -0.505958
O16   O     O_R   0.321450 0.043440 0.674610 -0.522390
O17   O     O_R   0.678550 0.043440 0.325390 -0.505825
O18   O     O_R   0.715320 0.458650 0.668100 -0.457544
O19   O     O_R   0.284680 0.458650 0.331900 -0.507364
O20   O     O_R   0.215320 0.958650 0.668100 -0.457193
O21   O     O_R   0.784680 0.958650 0.331900 -0.507676
O22   O     O_R   0.737170 0.209590 0.674530 -0.488238
O23   O     O_R   0.457020 0.951640 0.669920 -0.533235
O24   O     O_R   0.262830 0.209590 0.325470 -0.523057
O25   O     O_R   0.237170 0.709590 0.674530 -0.488336
O26   O     O_R   0.762830 0.709590 0.325470 -0.522942
O27   O     O_R   0.832710 0.092740 0.669580 -0.505130
O28   O     O_R   0.167290 0.092740 0.330420 -0.460028
O29   O     O_R   0.332710 0.592740 0.669580 -0.505273
O30   O     O_R   0.667290 0.592740 0.330420 -0.459898
O31   O     O_R   0.946290 0.250060 0.676040 -0.487095
O32   O     O_R   0.053710 0.250060 0.323960 -0.487802
O33   O     O_R   0.446290 0.750060 0.676040 -0.486271
O34   O     O_R   0.542980 0.951640 0.330080 -0.519944
O35   O     O_R   0.553710 0.750060 0.323960 -0.488518
O36   O     O_R   0.956270 0.452200 0.830470 -0.520773
O37   O     O_R   0.043730 0.452200 0.169530 -0.517818
O38   O     O_R   0.456270 0.952200 0.830470 -0.513675
O39   O     O_R   0.543730 0.952200 0.169530 -0.524791
O40   O     O_R   0.820760 0.543950 0.823440 -0.506744
O41   O     O_R   0.179240 0.543950 0.176560 -0.503599
O42   O     O_R   0.320760 0.043950 0.823440 -0.504029
O43   O     O_R   0.679240 0.043950 0.176560 -0.506634
O44   O     O_R   0.714570 0.459210 0.828640 -0.519679
O45   O     O_R   0.736470 0.210100 0.823360 -0.505443
O46   O     O_R   0.285430 0.459210 0.171360 -0.510356
O47   O     O_R   0.214570 0.959210 0.828640 -0.520182
O48   O     O_R   0.785430 0.959210 0.171360 -0.510035
O49   O     O_2   0.999785 0.825749 0.406681 -0.547527
O50   O     O_R   0.115448 0.873151 0.409690 -0.659641
O51   O     O_2   0.125922 0.876610 0.566330 -0.504179
O52   O     O_R   0.024349 0.868353 0.629424 -0.688973
O53   O     O_2   0.499744 0.325780 0.406604 -0.547481
O54   O     O_R   0.615412 0.373141 0.409663 -0.659647
O55   O     O_2   0.625901 0.376626 0.566280 -0.504140
O56   O     O_R   0.263530 0.210100 0.176640 -0.505401
O57   O     O_R   0.524336 0.368342 0.629370 -0.688988
O58   O     O_2   0.918432 0.144302 0.329052 -0.545700
O59   O     O_R   0.996769 0.997101 0.304652 -0.643524
O60   O     O_2   0.108267 0.254453 0.647431 -0.565502
O61   O     O_R   0.070116 0.077621 0.695018 -0.640400
O62   O     O_2   0.418391 0.644337 0.329015 -0.545794
O63   O     O_R   0.496749 0.497177 0.304596 -0.643622
O64   O     O_2   0.608246 0.754477 0.647365 -0.565423
O65   O     O_R   0.570188 0.577581 0.694945 -0.640149
O66   O     O_R   0.236470 0.710100 0.823360 -0.505425
O67   O     O_R   0.763530 0.710100 0.176640 -0.505462
O68   O     O_R   0.831960 0.093290 0.830130 -0.516181

loop_
_geom_bond_atom_site_label_1
_geom_bond_atom_site_label_2
_ccdc_geom_bond_type
C99   C103  A    
C19   O66   A    
C87   C91   A    
C107  C112  A    
Cr8   O44   S    
C136  C140  A    
C91   H56   S    
C51   H54   S    
C61   C133  S    
C135  C139  A    
C48   H51   S    
C59   C131  S    
Cr11  O67   S    
H69   O54   S    
Cr12  O68   S    
C85   H63   S    
C60   C72   A    
C61   C80   A    
C29   C33   A    
C100  C104  A    
C10   H33   S    
C88   H65   S    
Cr5   O15   S    
C8    C138  S    
C22   O6    A    
C54   H57   S    
H68   O52   S    
C57   C83   S    
Cr11  O48   S    
C59   C73   A    
C26   C130  A    
C16   O48   A    
C49   H52   S    
C116  H14   S    
C5    C134  A    
C10   C140  S    
C9    H37   S    
C25   O39   A    
C130  H40   S    
C116  C121  S    
C27   C31   A    
Cr10  O66   S    
C62   C132  S    
C28   C32   A    
C18   O2    A    
C99   C116  S    
C30   C34   A    
C35   H49   S    
C24   H43   S    
C98   C102  A    
C53   O19   A    
H66   O50   S    
C97   H12   S    
C66   C76   A    
C1    C29   S    
C67   C74   A    
C15   O47   A    
C109  H2    S    
C107  C125  A    
C4    C135  A    
C13   H42   S    
C4    H27   S    
C103  C121  S    
C16   O43   A    
C33   C38   A    
C72   C73   A    
C17   O45   A    
C85   C90   A    
C6    C7    A    
C115  H8    S    
C16   C94   S    
Cr1   O14   S    
Cr6   O23   S    
C2    H41   S    
Cr9   O46   S    
C55   C86   A    
C119  H34   S    
C9    H32   S    
C66   C70   A    
C122  H24   S    
C58   C119  A    
C3    C11   S    
C27   C64   S    
C131  O32   A    
C48   C52   S    
Cr10  O11   S    
Cr6   O16   S    
C52   H60   S    
C20   O67   A    
C31   C36   A    
C100  C117  S    
Cr4   O35   S    
Cr1   O1    S    
C21   C135  S    
C37   C57   A    
C78   C87   A    
C42   O55   D    
C14   O41   A    
C35   H47   S    
Cr10  O20   S    
C105  C123  S    
C74   C76   A    
C101  C118  S    
C82   O24   A    
C120  H17   S    
Cr2   O2    S    
C104  C122  S    
Cr7   O13   S    
C108  H23   S    
Cr2   O28   S    
C14   O46   A    
C92   C93   A    
C110  H3    S    
Cr12  O9    S    
C40   O51   D    
C31   C46   S    
C55   C81   S    
C110  C114  A    
C123  H20   S    
C23   O7    A    
Cr9   O24   S    
C121  H18   S    
C77   C85   A    
C44   C65   S    
C56   C97   A    
C13   C108  A    
C59   C78   A    
C61   C76   A    
C44   O61   S    
C105  C127  A    
C116  H9    S    
C2    C97   A    
C41   O54   S    
C37   C52   S    
C86   C130  A    
C46   C51   S    
C92   H67   S    
C117  C122  S    
C12   O40   A    
Cr11  O13   S    
C93   H75   S    
C64   O20   A    
C131  O12   A    
Cr5   O10   S    
C26   C75   S    
C45   O63   S    
C32   C37   A    
C81   O27   A    
C70   C71   A    
C89   H64   S    
C8    H31   S    
C26   C30   A    
C106  C124  S    
C133  O35   A    
C63   C68   A    
C53   O15   A    
C129  O31   A    
C60   C129  S    
C56   C82   S    
C117  H10   S    
C65   C72   A    
C6    C137  A    
C7    C136  A    
C18   C126  S    
C39   O50   S    
C98   C115  A    
C94   C112  A    
C87   H62   S    
C11   H39   S    
C89   C93   A    
C47   O65   S    
C1    O14   A    
C109  C126  A    
C4    C5    A    
C57   C108  A    
C50   H58   S    
C122  H19   S    
C111  C128  A    
Cr5   O37   S    
Cr3   O3    S    
C132  O23   A    
C52   H55   S    
C39   C68   S    
Cr3   O29   S    
C81   O22   A    
C123  H25   S    
C96   C114  A    
C90   H45   S    
C77   C78   A    
C8    H36   S    
C15   C95   S    
C33   C49   S    
Cr5   O12   S    
C106  C128  A    
C80   C89   A    
C24   C29   A    
Cr7   O43   S    
C38   C58   A    
C21   O5    A    
C25   O8    A    
C68   C69   A    
H73   O63   S    
C13   C28   A    
C2    C27   A    
C3    C137  A    
C15   O42   A    
C12   C98   S    
C43   O58   D    
C34   C55   A    
C96   C101  A    
C32   C48   S    
C82   O28   A    
C47   O64   D    
C14   C96   S    
C79   C88   A    
C120  H13   S    
C118  H11   S    
C112  H5    S    
Cr4   O8    S    
Cr8   O9    S    
Cr1   O40   S    
Cr10  O47   S    
C95   C100  A    
Cr10  O25   S    
Cr12  O5    S    
C63   C73   A    
C5    H28   S    
C36   C56   A    
Cr3   O11   S    
C21   O36   A    
C121  H22   S    
C38   C54   S    
Cr6   O42   S    
Cr4   O13   S    
Cr8   O18   S    
Cr9   O10   S    
Cr11  O26   S    
C83   O25   A    
C102  C120  S    
Cr2   O10   S    
C24   C119  A    
Cr4   O4    S    
C12   O44   A    
Cr12  O27   S    
C28   C53   S    
C64   O16   A    
C9    C139  S    
C22   O37   A    
C90   C91   A    
C117  H15   S    
C65   C69   A    
C118  H16   S    
C42   C71   S    
C83   O29   A    
C67   C71   A    
C118  C123  S    
C42   O57   S    
C138  C139  A    
C46   H50   S    
C18   O56   A    
Cr6   O11   S    
C40   O52   S    
Cr8   O45   S    
C62   C74   A    
C75   O21   A    
C41   C70   S    
C54   H61   S    
C20   O4    A    
Cr12  O31   S    
Cr11  O21   S    
C10   H38   S    
C30   C35   S    
C22   C134  S    
C11   H35   S    
C84   O30   A    
C86   H1    S    
C20   C128  S    
H70   O57   S    
C41   O53   D    
C1    O18   A    
C49   C54   S    
C129  O1    A    
H72   O61   S    
Cr5   O41   S    
Cr3   O7    S    
Cr6   O38   S    
C25   C136  S    
C88   C92   A    
C8    C9    S    
C45   O62   D    
Cr3   O33   S    
C113  H6    S    
Cr4   O30   S    
C111  H4    S    
C124  H26   S    
C75   O17   A    
C109  C113  A    
C110  C127  A    
Cr9   O19   S    
C48   H44   S    
C103  C125  A    
C47   C67   S    
C43   O59   S    
C49   H46   S    
C101  C105  A    
C133  O34   A    
C44   O60   D    
C60   C77   A    
C34   C50   S    
H74   O65   S    
C40   C69   S    
C6    H29   S    
C62   C79   A    
Cr7   O39   S    
C10   C11   S    
C124  H21   S    
C58   C84   S    
C39   O49   D    
C46   H48   S    
C107  H76   S    
C35   C50   S    
Cr2   O32   S    
Cr7   O34   S    
C36   C51   S    
H71   O59   S    
C84   O26   A    
Cr1   O36   S    
Cr1   O9    S    
C7    H30   S    
C23   C137  S    
C134  C138  A    
C23   O38   A    
Cr8   O22   S    
C17   C125  S    
C94   C99   A    
C95   C113  A    
C19   C127  S    
Cr9   O56   S    
C102  C106  A    
C114  H7    S    
C79   C80   A    
C50   H53   S    
C51   H59   S    
Cr2   O6    S    
C104  C126  A    
Cr7   O17   S    
C43   C63   S    
C45   C66   S    
C111  C115  A    
C3    C140  A    
C19   O3    A    
C120  C124  S    
C132  O33   A    
C17   O68   A    
