data_mof_unit_67200.cif
_audit_creation_date              2012-12-11T18:15:17-0500
_audit_creation_method            fapswitch 2.2
_symmetry_space_group_name_H-M    P1
_symmetry_Int_Tables_number       1
_space_group_crystal_system       triclinic
_cell_length_a                    19.992141
_cell_length_b                    20.504254
_cell_length_c                    8.651234
_cell_angle_alpha                 89.965611
_cell_angle_beta                  92.198316
_cell_angle_gamma                 89.839174
_cell_volume                      3543.72309705

loop_
_atom_site_label
_atom_site_type_symbol
_atom_type_description
_atom_site_fract_x
_atom_site_fract_y
_atom_site_fract_z
_atom_type_partial_charge
Ba1   Ba    Ba6+2 0.999980 0.452130 0.155200 1.732196
Ba2   Ba    Ba6+2 0.999980 0.547870 0.655200 1.729972
Ba3   Ba    Ba6+2 0.499980 0.952130 0.155200 1.730914
Ba4   Ba    Ba6+2 0.499980 0.047870 0.655200 1.732160
C1    C     C_3   0.037123 0.111634 0.470697 -0.246912
C2    C     C_3   0.039675 0.884646 0.964258 -0.241917
C3    C     C_3   0.533166 0.612510 0.473435 -0.245707
C4    C     C_3   0.540889 0.385886 0.960010 -0.238813
C5    C     C_R   0.150538 0.349513 0.818136 0.102602
C6    C     C_R   0.147845 0.652148 0.320175 0.088994
C7    C     C_R   0.650478 0.849703 0.818001 0.103355
C8    C     C_R   0.647871 0.152085 0.320143 0.088710
C9    C     C_R   0.113878 0.341690 0.677138 -0.169801
C10   C     C_R   0.108399 0.662180 0.183051 -0.187160
C11   C     C_R   0.613881 0.842105 0.676843 -0.168073
C12   C     C_R   0.608429 0.162101 0.183032 -0.188615
C13   C     C_R   0.130418 0.292701 0.572241 0.053534
C14   C     C_R   0.122677 0.712838 0.079794 0.016402
C15   C     C_R   0.630754 0.793492 0.571386 0.054909
C16   C     C_R   0.622904 0.212590 0.079519 0.018048
C17   C     C_R   0.177418 0.245602 0.616257 -0.132918
C18   C     C_R   0.171484 0.758189 0.121475 -0.158204
C19   C     C_R   0.678118 0.746777 0.614594 -0.135403
C20   C     C_R   0.671853 0.257800 0.120874 -0.156042
C21   C     C_R   0.209811 0.247382 0.763666 0.019777
C22   C     C_R   0.206468 0.754682 0.265879 0.011012
C23   C     C_R   0.709991 0.747937 0.762590 0.021075
C24   C     C_R   0.706710 0.254411 0.265408 0.009993
C25   C     C_R   0.201380 0.302443 0.858835 -0.055342
C26   C     C_R   0.199181 0.698840 0.359386 -0.073881
C27   C     C_R   0.701282 0.802614 0.858610 -0.056455
C28   C     C_R   0.699324 0.198675 0.359122 -0.073890
C29   C     C_R   0.794012 0.699867 0.946647 -0.061376
C30   C     C_R   0.794120 0.299875 0.445292 -0.052212
C31   C     C_R   0.294344 0.199978 0.947242 -0.055197
C32   C     C_R   0.293854 0.800073 0.445944 -0.053459
C33   C     C_R   0.787750 0.757089 0.040348 0.001941
C34   C     C_R   0.788389 0.242056 0.537243 0.007606
C35   C     C_R   0.288341 0.257461 0.040070 0.000052
C36   C     C_R   0.288064 0.742294 0.537942 0.007642
C37   C     C_R   0.845660 0.652540 0.988728 0.072828
C38   C     C_R   0.847011 0.346109 0.485650 0.071004
C39   C     C_R   0.346114 0.152734 0.988858 0.068782
C40   C     C_R   0.346560 0.846429 0.486549 0.069172
C41   C     C_R   0.884738 0.663150 0.125611 -0.223630
C42   C     C_R   0.888526 0.332887 0.617599 -0.231259
C43   C     C_R   0.385858 0.163928 0.124464 -0.240254
C44   C     C_R   0.387778 0.833496 0.619091 -0.234101
C45   C     C_3   0.987729 0.183901 0.927543 0.683256
C46   C     C_3   0.008988 0.799386 0.413919 0.862031
C47   C     C_3   0.488104 0.684021 0.927765 0.681747
C48   C     C_3   0.509485 0.299278 0.414573 0.863468
C49   C     C_R   0.871288 0.713767 0.228933 -0.000252
C50   C     C_R   0.874764 0.282774 0.722320 -0.028909
C51   C     C_R   0.372367 0.214543 0.227883 -0.006548
C52   C     C_R   0.374305 0.783105 0.723249 -0.027031
C53   C     C_R   0.823899 0.762132 0.185174 0.005827
C54   C     C_R   0.825918 0.235717 0.680223 -0.017188
C55   C     C_R   0.324811 0.262800 0.184349 0.003896
C56   C     C_R   0.325574 0.735959 0.680967 -0.016519
C57   C     C_R   0.747265 0.693364 0.817762 0.080516
C58   C     C_R   0.745723 0.307959 0.319818 0.076184
C59   C     C_R   0.247202 0.192957 0.819521 0.082102
C60   C     C_R   0.245614 0.808164 0.320300 0.077483
C61   C     C_3   0.001130 0.115049 0.992774 0.586460
C62   C     C_3   0.015902 0.873225 0.386795 0.691198
C63   C     C_3   0.502191 0.615503 0.994360 0.585216
C64   C     C_3   0.515828 0.372990 0.385063 0.685769
C65   C     C_3   0.812873 0.456606 0.846786 0.624354
C66   C     C_3   0.808776 0.542046 0.348989 0.629028
C67   C     C_3   0.312291 0.956894 0.843452 0.620364
C68   C     C_3   0.310647 0.042654 0.340843 0.621303
C69   C     C_3   0.750351 0.413134 0.827351 -0.201794
C70   C     C_3   0.745789 0.584724 0.365337 -0.198683
C71   C     C_3   0.249431 0.913902 0.824262 -0.199456
C72   C     C_3   0.247291 0.085660 0.327555 -0.184535
C73   C     C_3   0.204066 0.536089 0.001598 0.892276
C74   C     C_3   0.209206 0.466139 0.499680 0.946110
C75   C     C_3   0.703937 0.036101 0.001735 0.891205
C76   C     C_3   0.709374 0.966241 0.499617 0.945567
C77   C     C_3   0.273499 0.560143 0.058161 0.292265
C78   C     C_3   0.280331 0.444351 0.550311 0.293760
C79   C     C_3   0.773321 0.060234 0.058317 0.292578
C80   C     C_3   0.780589 0.944449 0.549476 0.294001
C81   C     C_3   0.012725 0.181788 0.443526 0.676709
C82   C     C_3   0.003432 0.822591 0.910626 0.696538
C83   C     C_3   0.511385 0.683340 0.444570 0.675615
C84   C     C_3   0.504650 0.323254 0.910446 0.696617
C85   C     C_R   0.242099 0.307176 0.993513 -0.046632
C86   C     C_R   0.241261 0.693156 0.491958 -0.029212
C87   C     C_R   0.741714 0.806982 0.993796 -0.046220
C88   C     C_R   0.741464 0.192980 0.491557 -0.028919
H1    H     H_    0.764680 0.365032 0.780000 0.093525
H2    H     H_    0.760951 0.636120 0.386306 0.076929
H3    H     H_    0.263134 0.866180 0.773879 0.091604
H4    H     H_    0.259805 0.133407 0.275788 0.079857
H5    H     H_    0.729334 0.404224 0.941821 0.055190
H6    H     H_    0.718121 0.567328 0.465702 0.071426
H7    H     H_    0.229280 0.904031 0.939270 0.056051
H8    H     H_    0.229224 0.095467 0.444330 0.050155
H9    H     H_    0.268998 0.609910 0.107610 0.042929
H10   H     H_    0.278397 0.394713 0.602366 -0.023159
H11   H     H_    0.768771 0.109988 0.107799 0.043169
H12   H     H_    0.778743 0.894859 0.601804 -0.022751
H13   H     H_    0.306764 0.563091 0.958434 0.060254
H14   H     H_    0.311959 0.442581 0.447503 0.088710
H15   H     H_    0.806523 0.063222 0.958524 0.060809
H16   H     H_    0.811976 0.942575 0.446279 0.089650
H17   H     H_    0.008314 0.087971 0.562617 0.124270
H18   H     H_    0.007678 0.914262 0.039337 0.116726
H19   H     H_    0.502623 0.589934 0.563791 0.121499
H20   H     H_    0.509431 0.415754 0.035794 0.115715
H21   H     H_    0.031390 0.081965 0.363836 0.047998
H22   H     H_    0.052751 0.914893 0.863290 0.121233
H23   H     H_    0.527571 0.582865 0.366489 0.050966
H24   H     H_    0.552759 0.415587 0.857259 0.122534
H25   H     H_    0.075151 0.376523 0.644053 0.065634
H26   H     H_    0.069836 0.627360 0.150366 0.076727
H27   H     H_    0.574995 0.876827 0.644118 0.064755
H28   H     H_    0.569757 0.127368 0.150523 0.077209
H29   H     H_    0.187498 0.206488 0.536213 0.067725
H30   H     H_    0.182164 0.796671 0.040306 0.071792
H31   H     H_    0.688590 0.708250 0.533408 0.068243
H32   H     H_    0.682658 0.296147 0.039450 0.071840
H33   H     H_    0.923911 0.628636 0.157887 0.084426
H34   H     H_    0.929107 0.365941 0.647401 0.095407
H35   H     H_    0.425636 0.129956 0.155838 0.094255
H36   H     H_    0.428087 0.866793 0.649396 0.093731
H37   H     H_    0.238100 0.350643 0.061750 0.110338
H38   H     H_    0.237772 0.649419 0.559430 0.127136
H39   H     H_    0.737658 0.850313 0.062470 0.110546
H40   H     H_    0.737922 0.149278 0.559136 0.127084
H41   H     H_    0.090886 0.111638 0.507844 0.094639
H42   H     H_    0.086571 0.871866 0.029333 0.057256
H43   H     H_    0.586511 0.610884 0.513653 0.094370
H44   H     H_    0.588468 0.373825 0.023190 0.057322
H45   H     H_    0.966696 0.177641 0.808113 -0.011888
H46   H     H_    0.011123 0.774586 0.300958 -0.112504
H47   H     H_    0.466989 0.677244 0.808564 -0.010174
H48   H     H_    0.511922 0.273810 0.302513 -0.113541
H49   H     H_    0.024557 0.119621 0.110793 0.062187
H50   H     H_    0.057369 0.881020 0.306729 -0.148510
H51   H     H_    0.525390 0.620655 0.112493 0.064201
H52   H     H_    0.557484 0.380646 0.305390 -0.137269
H53   H     H_    0.843316 0.438362 0.946677 0.097523
H54   H     H_    0.847686 0.560271 0.432576 0.074343
H55   H     H_    0.343715 0.937183 0.940374 0.089895
H56   H     H_    0.344706 0.063708 0.431471 0.073569
O1    O     O_2   0.130070 0.404060 0.104920 -0.441792
O2    O     O_2   0.130070 0.595940 0.604920 -0.440847
O3    O     O_2   0.630070 0.904060 0.104920 -0.441679
O4    O     O_2   0.630070 0.095940 0.604920 -0.440857
O5    O     O_3   0.792810 0.477367 0.380329 -0.699291
O6    O     O_3   0.793877 0.521367 0.871257 -0.686822
O7    O     O_3   0.293540 0.978724 0.378685 -0.693646
O8    O     O_3   0.293802 0.021385 0.873401 -0.690769
O9    O     O_3   0.940609 0.215843 0.017482 -0.597815
O10   O     O_3   0.948281 0.787556 0.486502 -0.585869
O11   O     O_3   0.440757 0.715786 0.017404 -0.599427
O12   O     O_3   0.448877 0.287394 0.487690 -0.585702
O13   O     O_3   0.924190 0.533610 0.949240 -0.447336
O14   O     O_3   0.924190 0.466390 0.449240 -0.462832
O15   O     O_3   0.424190 0.033610 0.949240 -0.444641
O16   O     O_3   0.424190 0.966390 0.449240 -0.451126
O17   O     O_3   0.075780 0.466370 0.861070 -0.464798
O18   O     O_3   0.075780 0.533630 0.361070 -0.473309
O19   O     O_3   0.575780 0.966370 0.861070 -0.465115
O20   O     O_3   0.575780 0.033630 0.361070 -0.471950
O21   O     O_3   0.022320 0.344950 0.359800 -0.489273
O22   O     O_3   0.022320 0.655050 0.859800 -0.483582
O23   O     O_3   0.522320 0.844950 0.359800 -0.490523
O24   O     O_3   0.522320 0.155050 0.859800 -0.484006
O25   O     O_2   0.135521 0.300131 0.250644 -0.440889
O26   O     O_2   0.135093 0.700027 0.763037 -0.430816
O27   O     O_2   0.635270 0.799988 0.249422 -0.440673
O28   O     O_2   0.635294 0.199681 0.763092 -0.430613
O29   O     O_3   0.211100 0.472948 0.939662 -0.656199
O30   O     O_3   0.212769 0.529097 0.435248 -0.619623
O31   O     O_3   0.711063 0.972980 0.939769 -0.656381
O32   O     O_3   0.712811 0.029164 0.435005 -0.619842
O33   O     O_3   0.053114 0.210366 0.329845 -0.582010
O34   O     O_3   0.045584 0.788675 0.809086 -0.527513
O35   O     O_3   0.553514 0.710256 0.332162 -0.586526
O36   O     O_3   0.546299 0.288723 0.808955 -0.527842
O37   O     O_2   0.869860 0.403670 0.205810 -0.466411
O38   O     O_2   0.869860 0.596330 0.705810 -0.476609
O39   O     O_2   0.369860 0.903670 0.205810 -0.468361
O40   O     O_2   0.369860 0.096330 0.705810 -0.472668
O41   O     O_3   0.977590 0.344880 0.951200 -0.427821
O42   O     O_3   0.977590 0.655120 0.451200 -0.462995
O43   O     O_3   0.477590 0.844880 0.951200 -0.428317
O44   O     O_3   0.477590 0.155120 0.451200 -0.461728
O45   O     O_2   0.856905 0.310558 0.027768 -0.491628
O46   O     O_2   0.862249 0.698522 0.548220 -0.501813
O47   O     O_2   0.357089 0.810417 0.028839 -0.491662
O48   O     O_2   0.361920 0.198466 0.546566 -0.500572
P1    P     P_3+3 0.136530 0.426510 0.931350 1.060315
P2    P     P_3+3 0.136530 0.573490 0.431350 1.061156
P3    P     P_3+3 0.636530 0.926510 0.931350 1.060776
P4    P     P_3+3 0.636530 0.073490 0.431350 1.061289
P5    P     P_3+3 0.863410 0.426100 0.379280 1.005123
P6    P     P_3+3 0.863410 0.573900 0.879280 1.022090
P7    P     P_3+3 0.363410 0.926100 0.379280 1.013900
P8    P     P_3+3 0.363410 0.073900 0.879280 1.020524
P9    P     P_3+3 0.913438 0.287802 0.923616 1.002285
P10   P     P_3+3 0.914248 0.712734 0.424988 0.974941
P11   P     P_3+3 0.413430 0.787786 0.924025 1.000783
P12   P     P_3+3 0.414500 0.212929 0.424743 0.975776
P13   P     P_3+3 0.082175 0.715925 0.882918 1.048250
P14   P     P_3+3 0.086443 0.287324 0.380430 1.032909
P15   P     P_3+3 0.582380 0.215751 0.882826 1.047300
P16   P     P_3+3 0.586585 0.787579 0.380182 1.031675
C89   C     C_3   0.939354 0.180291 0.382839 -0.294688
H57   H     H_    0.922092 0.230275 0.351576 0.107518
H58   H     H_    0.933444 0.148978 0.278916 0.148439
H59   H     H_    0.906861 0.160498 0.472859 0.077860
C90   C     C_3   0.938030 0.842096 0.822325 -0.270602
H60   H     H_    0.947776 0.875316 0.724868 0.158591
H61   H     H_    0.912042 0.798039 0.776017 0.122359
H62   H     H_    0.903719 0.867265 0.901157 0.066905
C91   C     C_3   0.438396 0.683884 0.381273 -0.294294
H63   H     H_    0.422803 0.734264 0.349125 0.109123
H64   H     H_    0.432297 0.652502 0.277498 0.148804
H65   H     H_    0.404774 0.665036 0.470061 0.075052
C92   C     C_3   0.438611 0.341726 0.823496 -0.271306
H66   H     H_    0.447547 0.374344 0.724398 0.158228
H67   H     H_    0.412740 0.297181 0.779613 0.120559
H68   H     H_    0.404600 0.367206 0.902479 0.067832
C93   C     C_3   0.694871 0.442969 0.723066 -0.409857
H69   H     H_    0.670465 0.483989 0.783119 0.154665
H70   H     H_    0.714966 0.461284 0.614059 0.130665
H71   H     H_    0.656459 0.405378 0.694822 0.163105
C94   C     C_3   0.696826 0.582830 0.225921 -0.414601
H72   H     H_    0.684500 0.531763 0.193070 0.130212
H73   H     H_    0.649961 0.608676 0.253768 0.137596
H74   H     H_    0.718990 0.608612 0.128348 0.131352
C95   C     C_3   0.193423 0.944954 0.723456 -0.409075
H75   H     H_    0.169645 0.985437 0.786739 0.153605
H76   H     H_    0.212670 0.964287 0.614335 0.129920
H77   H     H_    0.154667 0.907757 0.694834 0.163929
C96   C     C_3   0.189580 0.054886 0.232210 -0.405732
H78   H     H_    0.169139 0.012474 0.294493 0.136330
H79   H     H_    0.148832 0.091339 0.214538 0.124232
H80   H     H_    0.205908 0.038738 0.117468 0.124904
O49   O     O_3   0.161301 0.535913 0.123327 -0.781655
H81   H     H_    0.177670 0.500270 0.190063 0.340114
O50   O     O_3   0.169130 0.465948 0.626371 -0.790543
H82   H     H_    0.186010 0.502125 0.690456 0.347407
O51   O     O_3   0.661163 0.035851 0.123425 -0.781071
H83   H     H_    0.677577 0.000218 0.190132 0.340116
O52   O     O_3   0.669620 0.966155 0.626840 -0.790313
H84   H     H_    0.686682 0.002381 0.690537 0.347506
O53   O     O_3   0.179896 0.579610 0.888541 -0.770231
H85   H     H_    0.130437 0.575957 0.883933 0.342500
O54   O     O_3   0.184326 0.421526 0.390076 -0.790173
H86   H     H_    0.134854 0.425231 0.387635 0.327849
O55   O     O_3   0.679720 0.079608 0.888711 -0.770245
H87   H     H_    0.630272 0.075840 0.883956 0.342873
O56   O     O_3   0.684223 0.921586 0.390411 -0.790920
H88   H     H_    0.634766 0.925426 0.388251 0.327245
O57   O     O_3   0.301966 0.518787 0.172155 -0.720917
H89   H     H_    0.321219 0.480963 0.117554 0.312967
O58   O     O_3   0.308721 0.488196 0.658263 -0.750324
H90   H     H_    0.353678 0.470542 0.687864 0.301303
O59   O     O_3   0.801870 0.018886 0.172228 -0.720684
H91   H     H_    0.821075 0.981046 0.117590 0.313398
O60   O     O_3   0.809242 0.988361 0.656918 -0.750577
H92   H     H_    0.854287 0.970758 0.685875 0.301885
O61   O     O_3   0.017525 0.213601 0.587047 -0.803433
H93   H     H_    0.990487 0.254042 0.580317 0.250445
O62   O     O_3   0.987057 0.785998 0.040369 -0.802362
H94   H     H_    0.959739 0.748757 0.002421 0.266471
O63   O     O_3   0.516483 0.715367 0.587829 -0.802922
H95   H     H_    0.490276 0.756292 0.580489 0.251099
O64   O     O_3   0.489446 0.287731 0.042591 -0.801475
H96   H     H_    0.461980 0.250119 0.007623 0.266024
O65   O     O_3   0.043652 0.080070 0.896682 -0.769561
H97   H     H_    0.090089 0.086453 0.938326 0.272550
O66   O     O_3   0.956030 0.897925 0.319620 -0.745794
H98   H     H_    0.964467 0.944244 0.293461 0.305565
O67   O     O_3   0.545297 0.580670 0.899375 -0.769367
H99   H     H_    0.591655 0.588395 0.940180 0.273753
O68   O     O_3   0.455953 0.396800 0.316035 -0.745295
H100  H     H_    0.463990 0.443091 0.288934 0.306322
C97   C     C_3   0.809856 0.818534 0.292704 -0.360108
H101  H     H_    0.756074 0.819414 0.317716 0.147273
H102  H     H_    0.835787 0.816519 0.406841 0.143047
H103  H     H_    0.824308 0.865003 0.237537 0.142474
C98   C     C_3   0.811796 0.179338 0.787447 -0.421851
H104  H     H_    0.758107 0.179032 0.813688 0.171546
H105  H     H_    0.825793 0.132731 0.731818 0.135930
H106  H     H_    0.838232 0.180988 0.900697 0.133634
C99   C     C_3   0.310683 0.319200 0.291808 -0.356307
H107  H     H_    0.256976 0.319684 0.317748 0.146223
H108  H     H_    0.337113 0.317546 0.405388 0.143700
H109  H     H_    0.324550 0.365730 0.236109 0.142684
C100  C     C_3   0.311653 0.679431 0.787898 -0.421334
H110  H     H_    0.257966 0.678940 0.814160 0.171656
H111  H     H_    0.325795 0.632920 0.732020 0.135781
H112  H     H_    0.338112 0.681064 0.901143 0.133284
C101  C     C_3   0.718806 0.627990 0.771742 -0.373594
H113  H     H_    0.710451 0.598727 0.875827 0.123608
H114  H     H_    0.667946 0.631102 0.716649 0.094844
H115  H     H_    0.750832 0.603878 0.689189 0.144659
C102  C     C_3   0.717031 0.374154 0.280682 -0.363393
H116  H     H_    0.709189 0.400854 0.389269 0.133353
H117  H     H_    0.747637 0.399830 0.197116 0.144630
H118  H     H_    0.665965 0.372202 0.227772 0.074267
C103  C     C_3   0.217090 0.127484 0.780909 -0.370107
H119  H     H_    0.210842 0.100138 0.889432 0.123831
H120  H     H_    0.165323 0.130992 0.730826 0.096493
H121  H     H_    0.246784 0.101494 0.695932 0.143238
C104  C     C_3   0.217261 0.874471 0.281372 -0.368280
H122  H     H_    0.210444 0.901388 0.390159 0.130400
H123  H     H_    0.247584 0.899829 0.196602 0.145577
H124  H     H_    0.165882 0.872719 0.230175 0.075993
O69   O     O_3   0.047616 0.219755 0.931293 -0.725750
H125  H     H_    0.075864 0.201584 0.850044 0.295165
O70   O     O_3   0.062295 0.776112 0.508448 -0.674835
H126  H     H_    0.104123 0.786980 0.456405 0.243303
O71   O     O_3   0.547680 0.720368 0.930538 -0.725670
H127  H     H_    0.576018 0.702167 0.849454 0.295012
O72   O     O_3   0.563012 0.276930 0.509693 -0.675396
H128  H     H_    0.604730 0.287567 0.456937 0.242717
O73   O     O_3   0.940847 0.080941 0.005162 -0.733658
H129  H     H_    0.924184 0.070825 0.898256 0.307676
O74   O     O_3   0.030595 0.904974 0.527666 -0.736970
H130  H     H_    0.047543 0.948956 0.501759 0.280886
O75   O     O_3   0.442262 0.580799 0.006903 -0.733260
H131  H     H_    0.425682 0.570456 0.900056 0.307073
O76   O     O_3   0.529746 0.405650 0.525128 -0.737313
H132  H     H_    0.546636 0.449530 0.498137 0.282424
O77   O     O_3   0.851073 0.452488 0.717054 -0.767880
H133  H     H_    0.830398 0.483385 0.642148 0.304772
O78   O     O_3   0.832569 0.546070 0.201307 -0.774528
H134  H     H_    0.804380 0.516214 0.137537 0.302219
O79   O     O_3   0.349013 0.954321 0.711289 -0.766983
H135  H     H_    0.327422 0.985864 0.639303 0.307794
O80   O     O_3   0.342906 0.042883 0.202477 -0.767430
H136  H     H_    0.317949 0.011755 0.135699 0.302582

loop_
_geom_bond_atom_site_label_1
_geom_bond_atom_site_label_2
_ccdc_geom_bond_type
C51   C55   A    
C75   O51   S    
O25   P14   D    
C30   C38   A    
C69   H1    S    
C63   H51   S    
C25   C85   A    
O79   H135  S    
C71   H3    S    
O77   H133  S    
C51   P12   S    
O7    P7    S    
C87   H39   S    
O62   H94   S    
O26   P13   D    
C34   C88   A    
C92   H68   S    
C57   C101  S    
O38   P6    D    
C5    C9    A    
C7    C11   A    
O42   P10   S    
C8    C12   A    
C76   O52   S    
Ba2   P6    S    
C66   C70   S    
C40   P7    S    
C94   H73   S    
C59   C103  S    
O75   H131  S    
C76   C80   S    
C64   O68   S    
O49   H81   S    
C18   H30   S    
O5    P5    S    
C89   H58   S    
C21   C25   A    
C23   C27   A    
C15   P16   S    
C79   O59   S    
O9    P9    S    
C13   P14   S    
C101  H113  S    
C13   C17   A    
C80   O60   S    
C67   O79   S    
C15   C19   A    
O18   P2    S    
C93   H69   S    
C74   C78   S    
C12   C16   A    
C50   P9    S    
Ba2   O17   S    
Ba3   O16   S    
Ba1   O14   S    
C75   O31   S    
C32   C40   A    
C72   H8    S    
C101  H115  S    
O31   P3    S    
C1    H21   S    
O43   P11   S    
Ba2   O42   S    
Ba3   O39   S    
C46   H46   S    
O11   P11   S    
Ba1   O37   S    
C99   H109  S    
C65   O6    S    
Ba4   O40   S    
C72   C96   S    
O35   P16   S    
C97   H102  S    
C72   H4    S    
C28   C88   A    
C52   P11   S    
C67   O8    S    
Ba1   O41   S    
C45   O69   S    
C4    H24   S    
O78   H134  S    
C29   C57   A    
O71   H127  S    
C37   C41   A    
C31   C59   A    
C37   P6    S    
C32   C60   A    
C39   C43   A    
C35   C85   A    
C33   C53   A    
C40   C44   A    
C48   O12   S    
C67   H55   S    
C77   O57   S    
C36   C56   A    
C45   H45   S    
C60   C104  S    
C63   O67   S    
Ba2   O14   S    
C69   C93   S    
C85   H37   S    
C70   H6    S    
C77   H9    S    
C46   O10   S    
C1    H41   S    
O4    P4    D    
O51   H83   S    
C99   H107  S    
C79   H11   S    
C74   O54   S    
C83   C91   S    
C88   H40   S    
C82   O62   S    
C93   H71   S    
C81   C89   S    
C12   H28   S    
C83   O35   S    
O57   H89   S    
C84   O36   S    
C81   O61   S    
O55   H87   S    
C2    H22   S    
C48   H48   S    
C54   C98   S    
C102  H117  S    
C66   H54   S    
C31   C39   A    
C94   H72   S    
C1    C81   S    
C58   C102  S    
C41   C49   A    
O29   P1    S    
O65   H97   S    
C100  H111  S    
C45   O9    S    
C61   O73   S    
C24   C28   A    
C5    P1    S    
C98   H104  S    
C103  H120  S    
C8    P4    S    
Ba4   O4    S    
C77   H13   S    
C68   O80   S    
O45   P9    D    
C75   O55   S    
O13   P6    S    
C73   O53   S    
C6    C10   A    
C53   C97   S    
C19   H31   S    
C90   H60   S    
O40   P8    D    
C73   O29   S    
O33   P14   S    
C4    C84   S    
O48   P12   D    
C91   H63   S    
O32   P4    S    
O12   P12   S    
C61   H49   S    
C71   H7    S    
C49   P10   S    
C78   H10   S    
Ba4   O15   S    
C62   O66   S    
C76   O56   S    
C47   C63   S    
C64   O76   S    
Ba1   O1    S    
C74   O50   S    
C22   C26   A    
C27   C87   A    
C80   H12   S    
C6    C26   A    
Ba3   Ba4   S    
O36   P15   S    
C17   C21   A    
C81   O33   S    
Ba4   O24   S    
C14   C18   A    
Ba1   P1    S    
C20   C24   A    
O60   H92   S    
C43   H35   S    
C2    C82   S    
C9    C13   A    
C96   H80   S    
O23   P16   S    
Ba1   O18   S    
C56   C100  S    
C92   H67   S    
C11   H27   S    
C64   H52   S    
C78   H14   S    
C94   H74   S    
Ba4   P4    S    
C95   H77   S    
O68   H100  S    
O19   P3    S    
C83   O63   S    
O54   H86   S    
C47   H47   S    
Ba2   O2    S    
C4    H44   S    
C66   O5    S    
Ba3   P7    S    
Ba4   O44   S    
O64   H96   S    
C26   C86   A    
O24   P15   S    
Ba1   P5    S    
O58   H90   S    
C89   H57   S    
C90   H62   S    
C11   C15   A    
C84   O64   S    
C91   H65   S    
C4    H20   S    
C47   O71   S    
O39   P7    D    
C30   C58   A    
C98   H106  S    
C38   C42   A    
O37   P5    D    
C66   O78   S    
C34   C54   A    
C3    C83   S    
C62   O74   S    
O41   P9    S    
O66   H98   S    
C65   C69   S    
Ba3   O15   S    
C2    H18   S    
Ba1   O13   S    
Ba2   P2    S    
O61   H93   S    
O6    P6    S    
C101  H114  S    
O15   P8    S    
O10   P10   S    
C14   P13   S    
O52   H84   S    
C49   C53   A    
C29   C33   A    
O72   H128  S    
C31   C35   A    
O76   H132  S    
Ba4   O19   S    
C97   H101  S    
O16   P7    S    
O17   P1    S    
C44   H36   S    
C65   O77   S    
O80   H136  S    
C73   C77   S    
C35   C55   A    
C42   C50   A    
C70   C94   S    
Ba2   O22   S    
C61   O65   S    
C71   C95   S    
C89   H59   S    
O20   P4    S    
C74   O30   S    
C9    H25   S    
C62   H50   S    
O28   P15   D    
C29   C37   A    
O74   H130  S    
C93   H70   S    
C75   C79   S    
C46   O70   S    
C104  H122  S    
O53   H85   S    
C1    H17   S    
C80   H16   S    
C3    H19   S    
O73   H129  S    
C7    P3    S    
C104  H123  S    
O70   H126  S    
C86   H38   S    
C52   C56   A    
O47   P11   D    
C91   H64   S    
C102  H116  S    
C18   C22   A    
C70   H2    S    
C82   O34   S    
C36   C86   A    
O2    P2    D    
C100  H110  S    
C10   C14   A    
C68   C72   S    
C103  H119  S    
C69   H5    S    
C48   O72   S    
C45   C61   S    
C76   O32   S    
C96   H78   S    
C97   H103  S    
Ba4   P8    S    
O21   P14   S    
C20   H32   S    
Ba1   Ba2   S    
C21   C59   A    
C16   P15   S    
C3    H23   S    
C22   C60   A    
C23   C57   A    
C16   C20   A    
C41   H33   S    
C10   H26   S    
Ba3   P3    S    
Ba4   O16   S    
C19   C23   A    
O59   H91   S    
C48   C64   S    
C5    C25   A    
C99   H108  S    
O30   P2    S    
C7    C27   A    
C68   O7    S    
C8    C28   A    
O44   P12   S    
C6    P2    S    
Ba2   O13   S    
Ba3   O20   S    
O46   P10   D    
C33   C87   A    
O14   P5    S    
O3    P3    D    
C32   C36   A    
C104  H124  S    
Ba1   O21   S    
O67   H99   S    
C68   H56   S    
O34   P13   S    
C96   H79   S    
C82   C90   S    
Ba2   O38   S    
C3    H43   S    
C65   H53   S    
Ba3   O43   S    
C84   C92   S    
C55   C99   S    
C102  H118  S    
C92   H66   S    
O27   P16   D    
C46   C62   S    
C95   H76   S    
C100  H112  S    
O56   H88   S    
O8    P8    S    
C39   P8    S    
C43   C51   A    
C50   C54   A    
C103  H121  S    
C44   C52   A    
C30   C34   A    
C42   H34   S    
O50   H82   S    
C63   O75   S    
C90   H61   S    
Ba3   O3    S    
C2    H42   S    
C67   C71   S    
Ba3   O23   S    
O22   P13   S    
C47   O11   S    
C98   H105  S    
C79   H15   S    
C73   O49   S    
C17   H29   S    
O69   H125  S    
O1    P1    D    
C78   O58   S    
C38   P5    S    
C95   H75   S    
C24   C58   A    
O63   H95   S    
