data_mof_unit_12112.cif
_audit_creation_date              2012-12-11T15:21:20-0500
_audit_creation_method            fapswitch 2.2
_symmetry_space_group_name_H-M    P1
_symmetry_Int_Tables_number       1
_space_group_crystal_system       triclinic
_cell_length_a                    18.448102
_cell_length_b                    18.322952
_cell_length_c                    50.791184
_cell_angle_alpha                 90.621219
_cell_angle_beta                  90.107732
_cell_angle_gamma                 119.845231
_cell_volume                      14890.1985805

loop_
_atom_site_label
_atom_site_type_symbol
_atom_type_description
_atom_site_fract_x
_atom_site_fract_y
_atom_site_fract_z
_atom_type_partial_charge
C1    C     C_R   0.409416 0.583971 0.287480 0.605461
C2    C     C_R   0.409248 0.582970 0.212575 0.580118
C3    C     C_R   0.079107 0.517460 0.365212 0.216349
C4    C     C_R   0.057669 0.516611 0.136391 0.147496
C5    C     C_R   0.628805 0.490127 0.670595 0.227064
C6    C     C_R   0.514590 0.427544 0.827773 0.234825
C7    C     C_R   0.484630 0.429271 0.684151 -0.193084
C8    C     C_R   0.645988 0.428470 0.832365 -0.162090
C9    C     C_R   0.463858 0.454213 0.660301 0.321214
C10   C     C_R   0.641330 0.430873 0.859874 0.304505
C11   C     C_R   0.525156 0.489719 0.640501 0.202531
C12   C     C_R   0.574974 0.436522 0.871385 0.192407
C13   C     C_R   0.540528 0.599434 0.491084 0.013504
C14   C     C_R   0.613750 0.580839 0.019946 0.019170
C15   C     C_R   0.478206 0.528416 0.477101 -0.021446
C16   C     C_R   0.589435 0.512030 0.036881 -0.013608
C17   C     C_R   0.417961 0.456854 0.490919 0.056029
C18   C     C_R   0.566354 0.431191 0.026295 0.038289
C19   C     C_R   0.595023 0.671671 0.476781 -0.158233
C20   C     C_R   0.645927 0.661958 0.031168 -0.151644
C21   C     C_R   0.363558 0.383692 0.448900 -0.123398
C22   C     C_R   0.523976 0.372984 0.070272 -0.082233
C23   C     C_R   0.340485 0.406880 0.533247 0.306254
C24   C     C_R   0.583958 0.353071 0.988327 0.293504
C25   C     C_R   0.041244 0.478868 0.447280 -0.065649
C26   C     C_R   0.005510 0.494004 0.054312 -0.069589
C27   C     C_R   0.345881 0.405301 0.561143 0.258350
C28   C     C_R   0.586235 0.344078 0.960575 0.266006
C29   C     C_R   0.368211 0.380498 0.476629 0.297282
C30   C     C_R   0.525093 0.361022 0.043148 0.304629
C31   C     C_R   0.592005 0.176646 0.711890 0.543307
C32   C     C_R   0.591786 0.176541 0.787685 0.529952
C33   C     C_R   0.826557 0.415711 0.712691 0.586015
C34   C     C_R   0.825840 0.416815 0.787691 0.559210
C35   C     C_R   0.583560 0.409326 0.712670 0.569466
C36   C     C_R   0.585504 0.407869 0.788083 0.555603
C37   C     C_R   0.987015 0.414296 0.429346 0.030362
C38   C     C_R   0.971030 0.420401 0.069878 0.024403
C39   C     C_R   0.926651 0.334327 0.439300 -0.009802
C40   C     C_R   0.919002 0.340856 0.057389 -0.011570
C41   C     C_R   0.105679 0.556919 0.437796 0.028166
C42   C     C_R   0.049679 0.574581 0.066436 0.016988
C43   C     C_R   0.135125 0.560449 0.313209 0.039394
C44   C     C_R   0.123788 0.555344 0.187990 -0.005059
C45   C     C_R   0.878504 0.427412 0.688891 -0.065739
C46   C     C_R   0.877633 0.434960 0.812214 -0.082158
C47   C     C_R   0.942517 0.388460 0.511647 0.038676
C48   C     C_R   0.965072 0.400594 0.986366 0.040254
C49   C     C_R   0.082459 0.505921 0.519888 0.056352
C50   C     C_R   0.039602 0.554512 0.983379 0.005631
C51   C     C_R   0.005284 0.442489 0.529494 0.030092
C52   C     C_R   0.002969 0.474160 0.971111 0.028771
C53   C     C_R   0.174728 0.590685 0.287419 0.591533
C54   C     C_R   0.173963 0.590074 0.212504 0.572955
C55   C     C_R   0.861212 0.337861 0.521205 -0.096054
C56   C     C_R   0.947645 0.324193 0.973843 -0.132851
C57   C     C_R   0.843405 0.334551 0.548043 0.018728
C58   C     C_R   0.950848 0.317279 0.946398 -0.013338
C59   C     C_R   0.909366 0.380020 0.566561 0.028311
C60   C     C_R   0.968706 0.387724 0.930839 0.022313
C61   C     C_R   0.990575 0.434511 0.556977 -0.050862
C62   C     C_R   0.005120 0.467277 0.943286 -0.054142
C63   C     C_R   0.057234 0.482548 0.574671 0.023320
C64   C     C_R   0.045049 0.539900 0.927899 0.042558
C65   C     C_R   0.041740 0.477973 0.601835 0.472979
C66   C     C_R   0.038680 0.531829 0.900341 0.440787
C67   C     C_R   0.897706 0.374409 0.594172 0.444468
C68   C     C_R   0.950264 0.382685 0.903602 0.486492
C69   C     C_R   0.924738 0.363101 0.655044 0.278203
C70   C     C_R   0.958662 0.400301 0.842670 0.262751
C71   C     C_R   0.895760 0.363184 0.680755 0.178660
C72   C     C_R   0.914206 0.385504 0.818737 0.186269
C73   C     C_R   0.906733 0.499183 0.673033 0.215669
C74   C     C_R   0.885984 0.498774 0.830298 0.189928
C75   C     C_R   0.416740 0.826763 0.287235 0.635801
C76   C     C_R   0.415621 0.824852 0.212721 0.590350
C77   C     C_R   0.934859 0.498722 0.647358 0.260325
C78   C     C_R   0.916114 0.501354 0.856101 0.267022
C79   C     C_R   0.943482 0.430671 0.638391 0.180395
C80   C     C_R   0.953767 0.452911 0.862157 0.141256
C81   C     C_R   0.961835 0.391005 0.484429 0.033937
C82   C     C_R   0.956235 0.406919 0.014066 0.039234
C83   C     C_R   0.030855 0.465497 0.474765 0.000668
C84   C     C_R   0.998094 0.487328 0.026467 0.002829
C85   C     C_R   0.088634 0.526980 0.492771 0.024818
C86   C     C_R   0.031892 0.561226 0.011110 -0.026470
C87   C     C_R   0.915207 0.322349 0.466761 -0.024865
C88   C     C_R   0.905532 0.336021 0.029878 -0.025415
C89   C     C_R   0.156184 0.622820 0.456017 -0.012126
C90   C     C_R   0.068330 0.647086 0.051448 0.031609
C91   C     C_R   0.150102 0.546042 0.537708 -0.085977
C92   C     C_R   0.089256 0.625426 0.967706 -0.153987
C93   C     C_R   0.137588 0.534965 0.564727 -0.108464
C94   C     C_R   0.090115 0.618437 0.940413 -0.121423
C95   C     C_R   0.146690 0.608283 0.483365 -0.030078
C96   C     C_R   0.052316 0.638549 0.023966 -0.015839
C97   C     C_R   0.996280 0.431774 0.401985 0.493795
C98   C     C_R   0.985868 0.430115 0.097547 0.431647
C99   C     C_R   0.494143 0.066050 0.394564 0.470734
C100  C     C_R   0.421334 0.991348 0.097634 0.475300
C101  C     C_R   0.562003 0.984094 0.399866 0.460625
C102  C     C_R   0.526108 0.949685 0.096257 0.457843
C103  C     C_R   0.532973 0.008557 0.335824 0.034047
C104  C     C_R   0.383967 0.850061 0.141037 0.035088
C105  C     C_R   0.508966 0.961086 0.311990 0.138667
C106  C     C_R   0.374081 0.815896 0.166232 0.171358
C107  C     C_R   0.385342 0.850061 0.333364 0.232876
C108  C     C_R   0.489131 0.948531 0.183158 0.216690
C109  C     C_R   0.413807 0.892492 0.357871 0.006938
C110  C     C_R   0.502983 0.982435 0.157556 0.031127
C111  C     C_R   0.487863 0.971565 0.359076 0.120402
C112  C     C_R   0.450197 0.932798 0.136559 0.123554
C113  C     C_R   0.547301 0.058235 0.437649 -0.080318
C114  C     C_R   0.479031 0.981815 0.055693 -0.051792
C115  C     C_R   0.511125 0.093939 0.421389 -0.003674
C116  C     C_R   0.425092 0.001416 0.069906 0.018030
C117  C     C_R   0.487753 0.150509 0.433048 0.023575
C118  C     C_R   0.375650 0.028085 0.055842 0.022267
C119  C     C_R   0.117405 0.566489 0.410264 0.453516
C120  C     C_R   0.071764 0.579510 0.093327 0.435422
C121  C     C_R   0.574452 0.004736 0.426752 0.020062
C122  C     C_R   0.531855 0.958790 0.068916 0.044902
C123  C     C_R   0.435400 0.881590 0.310870 0.001856
C124  C     C_R   0.425788 0.865028 0.187172 0.001410
C125  C     C_R   0.564641 0.138956 0.685163 0.008934
C126  C     C_R   0.562053 0.136858 0.813343 0.003832
C127  C     C_R   0.547697 0.146488 0.504440 0.015696
C128  C     C_R   0.416757 0.983569 0.986231 0.017349
C129  C     C_R   0.547940 0.014075 0.508421 0.072300
C130  C     C_R   0.559439 0.008766 0.987897 0.058341
C131  C     C_R   0.541402 0.080453 0.520261 -0.072437
C132  C     C_R   0.492318 0.004453 0.973363 -0.081489
C133  C     C_R   0.566433 0.222886 0.517143 0.047208
C134  C     C_R   0.342859 0.950999 0.970833 0.060638
C135  C     C_R   0.549313 0.223332 0.544144 0.257660
C136  C     C_R   0.348937 0.960888 0.943281 0.248934
C137  C     C_R   0.534224 0.153606 0.559903 0.036837
C138  C     C_R   0.428662 0.003160 0.931198 0.039297
C139  C     C_R   0.530732 0.081908 0.547800 -0.122890
C140  C     C_R   0.500574 0.021909 0.946280 -0.105479
C141  C     C_R   0.034758 0.541708 0.347748 0.056141
C142  C     C_R   0.033750 0.562190 0.153567 0.060528
C143  C     C_R   0.515128 0.011212 0.562993 -0.012579
C144  C     C_R   0.580692 0.060241 0.934702 0.000514
C145  C     C_R   0.510713 0.017297 0.590792 0.428008
C146  C     C_R   0.587020 0.083497 0.907912 0.444574
C147  C     C_R   0.529452 0.156338 0.587665 0.469811
C148  C     C_R   0.438165 0.023755 0.904287 0.446710
C149  C     C_R   0.600406 0.100979 0.643027 -0.054876
C150  C     C_R   0.500734 0.137186 0.855573 -0.067070
C151  C     C_R   0.616624 0.119749 0.669860 -0.138585
C152  C     C_R   0.518223 0.163947 0.829646 -0.161387
C153  C     C_R   0.493327 0.134102 0.673231 -0.138000
C154  C     C_R   0.584584 0.079459 0.822986 -0.148489
C155  C     C_R   0.476969 0.114860 0.646353 -0.057885
C156  C     C_R   0.565344 0.051233 0.848799 -0.063063
C157  C     C_R   0.531629 0.100298 0.630920 0.236477
C158  C     C_R   0.525332 0.081722 0.865453 0.219885
C159  C     C_R   0.536050 0.132719 0.476568 0.065180
C160  C     C_R   0.419273 0.993745 0.014115 0.053070
C161  C     C_R   0.552525 0.071887 0.465197 -0.049746
C162  C     C_R   0.480863 0.985526 0.028055 -0.051587
C163  C     C_R   0.063983 0.564393 0.321503 0.199620
C164  C     C_R   0.066454 0.580774 0.179610 0.285834
C165  C     C_R   0.572228 0.022179 0.481605 0.066130
C166  C     C_R   0.543809 0.979408 0.014123 0.069613
C167  C     C_R   0.503476 0.172808 0.460324 0.264714
C168  C     C_R   0.368051 0.018668 0.027899 0.273331
C169  C     C_R   0.612799 0.972205 0.443063 -0.128601
C170  C     C_R   0.583820 0.937970 0.054330 -0.130005
C171  C     C_R   0.522071 0.938880 0.522569 0.279957
C172  C     C_R   0.640457 0.048476 0.976990 0.283930
C173  C     C_R   0.502857 0.936733 0.549757 0.028811
C174  C     C_R   0.651438 0.077194 0.950650 0.023610
C175  C     C_R   0.614413 0.982729 0.470357 0.041029
C176  C     C_R   0.587159 0.944117 0.026943 0.054402
C177  C     C_R   0.535982 0.593886 0.407347 0.511976
C178  C     C_R   0.583047 0.608764 0.101256 0.504788
C179  C     C_R   0.410048 0.460301 0.407666 0.437327
C180  C     C_R   0.541184 0.463751 0.107935 0.430025
C181  C     C_R   0.457276 0.487564 0.346679 0.291036
C182  C     C_R   0.428304 0.500205 0.145346 0.269022
C183  C     C_R   0.443594 0.501444 0.320103 0.195510
C184  C     C_R   0.393811 0.506645 0.169358 0.188249
C185  C     C_R   0.174265 0.531505 0.330494 -0.165807
C186  C     C_R   0.139009 0.502723 0.171532 -0.201445
C187  C     C_R   0.443816 0.629383 0.334143 0.183375
C188  C     C_R   0.533893 0.607238 0.185663 0.188768
C189  C     C_R   0.444625 0.608308 0.360461 0.234020
C190  C     C_R   0.568196 0.591154 0.163031 0.264024
C191  C     C_R   0.455722 0.540234 0.366817 0.159442
C192  C     C_R   0.515540 0.541865 0.142308 0.163074
C193  C     C_R   0.476891 0.528463 0.449147 -0.077046
C194  C     C_R   0.583431 0.523227 0.064376 -0.065395
C195  C     C_R   0.535842 0.599741 0.435120 0.045273
C196  C     C_R   0.606188 0.603705 0.074995 0.046699
C197  C     C_R   0.591901 0.673713 0.449383 0.023179
C198  C     C_R   0.645317 0.674501 0.058338 0.016341
C199  C     C_R   0.416112 0.457154 0.435220 -0.020148
C200  C     C_R   0.551947 0.453267 0.081079 -0.025981
C201  C     C_R   0.435964 0.572702 0.313901 -0.055578
C202  C     C_R   0.446215 0.564246 0.189157 -0.076207
C203  C     C_R   0.565991 0.444337 0.688977 -0.021145
C204  C     C_R   0.582820 0.425606 0.816239 -0.023304
C205  C     C_R   0.545865 0.596662 0.518943 -0.016619
C206  C     C_R   0.604616 0.566373 0.992331 -0.013261
C207  C     C_R   0.146425 0.510091 0.356007 -0.109029
C208  C     C_R   0.107330 0.484543 0.145931 -0.074765
C209  C     C_R   0.413381 0.462164 0.518874 0.013188
C210  C     C_R   0.578607 0.422592 0.998920 0.006413
C211  C     C_R   0.481762 0.528300 0.532720 -0.054619
C212  C     C_R   0.589250 0.487902 0.981823 -0.049418
C213  C     C_R   0.613692 0.660023 0.533523 -0.125678
C214  C     C_R   0.607926 0.627373 0.974980 -0.113093
C215  C     C_R   0.617215 0.658749 0.560980 0.285627
C216  C     C_R   0.597811 0.612874 0.947854 0.286600
C217  C     C_R   0.554862 0.589400 0.574693 0.057001
C218  C     C_R   0.588784 0.537378 0.937016 0.044008
C219  C     C_R   0.486478 0.525298 0.560500 -0.143631
C220  C     C_R   0.584833 0.474948 0.954140 -0.137986
C221  C     C_R   0.422691 0.457650 0.574107 -0.033983
C222  C     C_R   0.577502 0.400062 0.943622 -0.002568
C223  C     C_R   0.436881 0.444849 0.600479 0.476899
C224  C     C_R   0.566928 0.385472 0.916151 0.474567
C225  C     C_R   0.559454 0.581209 0.602193 0.439159
C226  C     C_R   0.584452 0.522773 0.909526 0.444476
C227  C     C_R   0.606974 0.506972 0.645977 -0.096179
C228  C     C_R   0.511420 0.433650 0.855315 -0.094291
Cr1   Cr    Cr6+3 0.456550 0.732290 0.250000 1.059666
Cr2   Cr    Cr6+3 0.275740 0.543450 0.250000 1.012361
Cr3   Cr    Cr6+3 0.267710 0.724260 0.250000 1.067571
Cr4   Cr    Cr6+3 0.543450 0.275740 0.750000 1.030596
Cr5   Cr    Cr6+3 0.724260 0.267710 0.750000 1.053405
Cr6   Cr    Cr6+3 0.732290 0.456550 0.750000 1.037482
H1    H     H_    0.229151 0.528489 0.324572 0.143212
H2    H     H_    0.179960 0.479979 0.177896 0.188469
H3    H     H_    0.213086 0.586661 0.530892 0.115130
H4    H     H_    0.128933 0.687079 0.976279 0.156424
H5    H     H_    0.190700 0.569467 0.577819 0.158134
H6    H     H_    0.124939 0.674859 0.929067 0.136466
H7    H     H_    0.179633 0.490623 0.369209 0.124156
H8    H     H_    0.124916 0.448701 0.132978 0.175131
H9    H     H_    0.672442 0.123569 0.678250 0.140602
H10   H     H_    0.501576 0.209575 0.822850 0.146518
H11   H     H_    0.643471 0.090355 0.631368 0.133803
H12   H     H_    0.471170 0.162347 0.868296 0.178518
H13   H     H_    0.641813 0.938611 0.434561 0.181281
H14   H     H_    0.618442 0.912396 0.064119 0.153751
H15   H     H_    0.452172 0.148885 0.684365 0.135850
H16   H     H_    0.618707 0.058129 0.810801 0.128461
H17   H     H_    0.423375 0.114137 0.637342 0.139923
H18   H     H_    0.584502 0.008194 0.856228 0.146241
H19   H     H_    0.654905 0.534777 0.631129 0.161664
H20   H     H_    0.459230 0.435752 0.864255 0.145813
H21   H     H_    0.667418 0.710282 0.524145 0.125784
H22   H     H_    0.614771 0.686250 0.982061 0.139924
H23   H     H_    0.637769 0.729998 0.486633 0.073532
H24   H     H_    0.675819 0.717290 0.019065 0.101287
H25   H     H_    0.322229 0.328149 0.437473 0.146074
H26   H     H_    0.493579 0.317894 0.082554 0.211548
H27   H     H_    0.438475 0.400030 0.699405 0.124419
H28   H     H_    0.697681 0.425606 0.823445 0.167539
H29   H     H_    0.809469 0.304737 0.507545 0.146856
H30   H     H_    0.936276 0.270440 0.985466 0.102838
N1    N     N_R   0.061749 0.505859 0.393035 -0.363723
N2    N     N_R   0.037625 0.508387 0.108545 -0.409730
N3    N     N_R   0.962242 0.426156 0.611075 -0.346785
N4    N     N_R   0.983605 0.455146 0.888769 -0.353460
N5    N     N_R   0.518640 0.011308 0.384553 -0.364992
N6    N     N_R   0.468973 0.962592 0.109959 -0.379586
N7    N     N_R   0.521158 0.090135 0.602610 -0.402168
N8    N     N_R   0.516281 0.061932 0.893071 -0.393098
N9    N     N_R   0.469437 0.528736 0.394116 -0.342572
N10   N     N_R   0.550307 0.538930 0.117135 -0.342594
N11   N     N_R   0.505112 0.506412 0.614339 -0.374162
N12   N     N_R   0.573523 0.447590 0.899549 -0.379811
O1    O     O_R   0.475290 0.813700 0.278840 -0.496088
O2    O     O_R   0.475290 0.813700 0.221160 -0.503055
O3    O     O_2   0.178143 0.628184 0.401382 -0.457251
O4    O     O_2   0.122781 0.646837 0.103238 -0.486608
O5    O     O_2   0.098528 0.520626 0.617306 -0.492902
O6    O     O_2   0.080011 0.593057 0.886631 -0.563125
O7    O     O_2   0.455656 0.088046 0.380196 -0.466126
O8    O     O_2   0.372884 0.003659 0.110729 -0.481864
O9    O     O_2   0.535442 0.218701 0.598711 -0.428775
O10   O     O_2   0.377254 0.008449 0.890756 -0.464411
O11   O     O_2   0.586542 0.938937 0.390183 -0.473434
O12   O     O_2   0.569873 0.927543 0.107915 -0.487439
O13   O     O_2   0.499438 0.958712 0.604703 -0.456730
O14   O     O_2   0.655300 0.124116 0.897653 -0.472126
O15   O     O_2   0.594941 0.646360 0.394752 -0.436838
O16   O     O_2   0.587457 0.673634 0.109601 -0.438666
O17   O     O_2   0.612442 0.639850 0.615348 -0.473541
O18   O     O_2   0.591396 0.577162 0.894352 -0.463996
O19   O     O_2   0.351130 0.403100 0.395809 -0.546462
O20   O     O_2   0.520879 0.405292 0.123021 -0.543709
O21   O     O_2   0.390600 0.377277 0.610642 -0.444946
O22   O     O_2   0.550732 0.317077 0.906945 -0.479321
O23   O     O_R   0.448450 0.657720 0.276690 -0.457410
O24   O     O_R   0.448450 0.657720 0.223310 -0.474353
O25   O     O_R   0.524710 0.338410 0.721160 -0.519915
O26   O     O_R   0.524710 0.338410 0.778840 -0.473577
O27   O     O_R   0.551550 0.209270 0.723310 -0.493797
O28   O     O_R   0.551550 0.209270 0.776690 -0.496942
O29   O     O_R   0.661590 0.186300 0.721160 -0.492254
O30   O     O_R   0.661590 0.186300 0.778840 -0.525224
O31   O     O_R   0.790730 0.342280 0.723310 -0.445991
O32   O     O_R   0.790730 0.342280 0.776690 -0.468075
O33   O     O_R   0.813700 0.475290 0.721160 -0.459540
O34   O     O_R   0.813700 0.475290 0.778840 -0.496815
O35   O     O_R   0.657720 0.448450 0.723310 -0.449607
O36   O     O_R   0.657720 0.448450 0.776690 -0.505342
O37   O     O_3   0.666667 0.333333 0.750000 -0.255514
O38   O     O_R   0.338410 0.524710 0.278840 -0.537715
O39   O     O_R   0.338410 0.524710 0.221160 -0.499812
O40   O     O_R   0.209270 0.551550 0.276690 -0.505004
O41   O     O_R   0.209270 0.551550 0.223310 -0.511238
O42   O     O_R   0.186300 0.661590 0.278840 -0.503266
O43   O     O_R   0.186300 0.661590 0.221160 -0.428899
O44   O     O_R   0.342280 0.790730 0.276690 -0.492738
O45   O     O_R   0.342280 0.790730 0.223310 -0.471708
O46   O     O_3   0.333333 0.666667 0.250000 -0.249200
O47   O     O_2   0.946142 0.381784 0.386011 -0.438186
O48   O     O_2   0.952994 0.369484 0.111998 -0.460712
O49   O     O_2   0.830361 0.323672 0.603374 -0.487387
O50   O     O_2   0.900834 0.314972 0.893515 -0.424690
C229  C     C_2   0.958445 0.543380 0.356215 0.291949
H31   H     H_    0.914929 0.542183 0.341588 0.146081
O51   O     O_2   0.943828 0.547974 0.379410 -0.456492
C230  C     C_2   0.974804 0.589576 0.143959 0.314226
H32   H     H_    0.941381 0.564859 0.125479 0.120903
O52   O     O_2   0.962872 0.640115 0.156306 -0.430943
C231  C     C_2   0.214154 0.710085 0.447167 0.301767
H33   H     H_    0.279346 0.741822 0.453212 0.084860
O53   O     O_2   0.188279 0.748030 0.434091 -0.415476
C232  C     C_2   0.096912 0.730089 0.064494 0.370108
H34   H     H_    0.151810 0.785681 0.057334 0.163865
O54   O     O_2   0.057721 0.737114 0.082750 -0.436887
O55   O     O_3   0.902370 0.568394 0.681741 -0.529940
C233  C     C_3   0.979071 0.624844 0.694022 -0.095602
H35   H     H_    0.031708 0.647850 0.679865 0.161385
H36   H     H_    0.991658 0.595786 0.711305 0.101363
H37   H     H_    0.975599 0.680285 0.701325 0.124939
O56   O     O_3   0.854112 0.550803 0.824246 -0.530139
C234  C     C_3   0.915646 0.621190 0.810484 -0.090046
H38   H     H_    0.886463 0.656778 0.802586 0.145254
H39   H     H_    0.942003 0.603250 0.793546 0.122870
H40   H     H_    0.967861 0.664376 0.823611 0.084885
O57   O     O_3   0.955908 0.566139 0.631000 -0.528807
C235  C     C_3   0.882228 0.556489 0.619248 -0.062680
H41   H     H_    0.839909 0.559955 0.634151 0.175497
H42   H     H_    0.848628 0.496574 0.607742 0.153327
H43   H     H_    0.899578 0.608782 0.605336 0.154884
O58   O     O_3   0.893933 0.535912 0.876925 -0.512009
C236  C     C_3   0.934060 0.624366 0.875606 -0.030378
H44   H     H_    0.893124 0.643688 0.865449 0.173308
H45   H     H_    0.996710 0.653298 0.866311 0.129565
H46   H     H_    0.943791 0.649999 0.896000 0.137581
C237  C     C_2   0.186903 0.682749 0.501543 0.219689
H47   H     H_    0.251764 0.730681 0.499007 0.096683
O59   O     O_2   0.146616 0.692516 0.518886 -0.463466
C238  C     C_2   0.037905 0.701302 0.009599 0.224600
H48   H     H_    0.996163 0.680702 0.992641 0.121501
O60   O     O_2   0.071720 0.775456 0.016050 -0.511759
O61   O     O_3   0.312145 0.773516 0.331802 -0.500012
C239  C     C_3   0.244687 0.789061 0.330000 -0.051667
H49   H     H_    0.240831 0.810715 0.309968 0.111040
H50   H     H_    0.247825 0.835474 0.344961 0.127483
H51   H     H_    0.186461 0.729544 0.333803 0.154255
O62   O     O_3   0.540974 0.994719 0.203931 -0.505674
C240  C     C_3   0.502581 0.032987 0.218007 -0.055163
H52   H     H_    0.491212 0.075333 0.205224 0.132195
H53   H     H_    0.545256 0.072019 0.234181 0.181015
H54   H     H_    0.443144 0.985295 0.227129 0.100209
C241  C     C_2   0.367434 0.854539 0.382626 0.295646
H55   H     H_    0.381331 0.892004 0.400536 0.104788
O63   O     O_2   0.313741 0.780569 0.383572 -0.423766
C242  C     C_2   0.572435 0.069036 0.152215 0.312160
H56   H     H_    0.577160 0.097093 0.133143 0.120767
O64   O     O_2   0.625711 0.110173 0.168806 -0.437724
C243  C     C_2   0.441985 0.183259 0.417717 0.285804
H57   H     H_    0.379375 0.167796 0.423469 0.095528
O65   O     O_2   0.475905 0.231606 0.399600 -0.459364
C244  C     C_2   0.339223 0.073386 0.069828 0.315646
H58   H     H_    0.272177 0.044734 0.072058 0.104419
O66   O     O_2   0.384843 0.142677 0.079632 -0.476191
O67   O     O_3   0.559761 0.296709 0.555747 -0.507539
C245  C     C_3   0.487475 0.302266 0.550717 -0.078186
H59   H     H_    0.477469 0.305918 0.529263 0.120895
H60   H     H_    0.495948 0.360894 0.560066 0.155647
H61   H     H_    0.431192 0.248581 0.559502 0.151322
O68   O     O_3   0.276373 0.928673 0.928313 -0.536741
C246  C     C_3   0.255773 0.847444 0.919230 -0.089641
H62   H     H_    0.195262 0.819663 0.908466 0.156651
H63   H     H_    0.248451 0.805170 0.935808 0.085228
H64   H     H_    0.303349 0.849782 0.905324 0.152730
C247  C     C_2   0.622648 0.305055 0.504743 0.257099
H65   H     H_    0.627528 0.362656 0.512588 0.146488
O69   O     O_2   0.667524 0.309936 0.486403 -0.539722
C248  C     C_2   0.259652 0.893114 0.982149 0.255508
H66   H     H_    0.203095 0.883565 0.972428 0.150428
O70   O     O_2   0.253189 0.852347 0.001754 -0.510018
O71   O     O_3   0.472582 0.220498 0.472341 -0.596106
C249  C     C_3   0.508141 0.302387 0.461684 -0.076141
H67   H     H_    0.463470 0.306386 0.448030 0.132658
H68   H     H_    0.568690 0.323468 0.451484 0.179028
H69   H     H_    0.519247 0.347893 0.477899 0.135054
O72   O     O_3   0.327189 0.051511 0.013275 -0.597168
C250  C     C_3   0.241702 0.015230 0.019843 -0.106669
H70   H     H_    0.231376 0.061994 0.030750 0.109462
H71   H     H_    0.216499 0.955821 0.031186 0.162004
H72   H     H_    0.204605 0.000582 0.001375 0.159127
O73   O     O_3   0.553546 0.994068 0.289040 -0.587166
C251  C     C_3   0.627349 0.988644 0.289581 -0.089345
H73   H     H_    0.675901 0.038360 0.302415 0.119743
H74   H     H_    0.652818 0.998648 0.269350 0.170300
H75   H     H_    0.616265 0.926064 0.295937 0.123871
O74   O     O_3   0.315387 0.732314 0.170392 -0.572299
C252  C     C_3   0.351983 0.682536 0.164155 -0.093992
H76   H     H_    0.413999 0.706249 0.173866 0.113878
H77   H     H_    0.358125 0.678250 0.142517 0.144299
H78   H     H_    0.310758 0.618088 0.171330 0.174543
C253  C     C_2   0.604411 0.096443 0.335786 0.305506
H79   H     H_    0.626146 0.129404 0.317329 0.137277
O75   O     O_2   0.640265 0.133228 0.356047 -0.446335
C254  C     C_2   0.325305 0.795755 0.119804 0.307691
H80   H     H_    0.266642 0.741103 0.125074 0.196534
O76   O     O_2   0.341762 0.808986 0.096486 -0.488944
O77   O     O_3   0.498453 0.865186 0.508053 -0.590146
C255  C     C_3   0.534919 0.818583 0.517750 -0.099556
H81   H     H_    0.486916 0.761481 0.527812 0.141225
H82   H     H_    0.589646 0.855150 0.531081 0.156188
H83   H     H_    0.556552 0.796293 0.500760 0.126388
O78   O     O_3   0.708175 0.074582 0.994192 -0.583430
C256  C     C_3   0.765536 0.049345 0.985719 -0.092639
H84   H     H_    0.823296 0.104866 0.978792 0.109793
H85   H     H_    0.740476 0.998924 0.970247 0.177970
H86   H     H_    0.784218 0.025495 0.002913 0.130047
C257  C     C_2   0.879483 0.259968 0.421588 0.300371
H87   H     H_    0.811757 0.224126 0.422321 0.112132
O79   O     O_2   0.916420 0.236333 0.406976 -0.433775
C258  C     C_2   0.875660 0.261907 0.072562 0.277949
H88   H     H_    0.808163 0.229390 0.074435 0.108605
O80   O     O_2   0.915160 0.231321 0.082094 -0.437498
C259  C     C_2   0.459935 0.854306 0.562952 0.287354
H89   H     H_    0.394097 0.811543 0.559053 0.114197
O81   O     O_2   0.498642 0.832692 0.577400 -0.491329
C260  C     C_2   0.737490 0.128777 0.940923 0.283740
H90   H     H_    0.777609 0.190530 0.949531 0.121054
O82   O     O_2   0.764830 0.100683 0.924201 -0.446385
C261  C     C_2   0.671023 0.963491 0.485754 0.244910
H91   H     H_    0.690405 0.920814 0.477691 0.086874
O83   O     O_2   0.699686 0.997882 0.506988 -0.496338
C262  C     C_2   0.622333 0.898340 0.012462 0.237570
H92   H     H_    0.667432 0.885660 0.022018 0.074597
O84   O     O_2   0.598699 0.871064 0.990162 -0.520390
O85   O     O_3   0.448676 0.705235 0.328460 -0.519327
C263  C     C_3   0.533363 0.768991 0.331129 -0.019144
H93   H     H_    0.570451 0.766312 0.314294 0.113601
H94   H     H_    0.562550 0.766175 0.350025 0.197710
H95   H     H_    0.537218 0.831065 0.331180 0.135082
O86   O     O_3   0.586225 0.660674 0.205271 -0.547805
C264  C     C_3   0.619596 0.744771 0.197113 -0.024604
H96   H     H_    0.570539 0.757606 0.189349 0.130153
H97   H     H_    0.669063 0.761315 0.182174 0.191360
H98   H     H_    0.648925 0.786944 0.214425 0.135651
O87   O     O_3   0.443359 0.660219 0.380203 -0.507963
C265  C     C_3   0.359563 0.630640 0.387235 -0.036680
H99   H     H_    0.328669 0.564233 0.393916 0.094583
H100  H     H_    0.323838 0.637079 0.370619 0.199753
H101  H     H_    0.358458 0.669466 0.403965 0.192971
O88   O     O_3   0.653827 0.630320 0.160054 -0.515974
C266  C     C_3   0.681671 0.577326 0.170320 -0.068886
H102  H     H_    0.653615 0.516174 0.159401 0.146354
H103  H     H_    0.668169 0.566635 0.191727 0.142202
H104  H     H_    0.750429 0.608440 0.167965 0.176743
C267  C     C_2   0.643561 0.757273 0.437205 0.270440
H105  H     H_    0.704809 0.800717 0.445379 0.089770
O89   O     O_2   0.616006 0.780832 0.419364 -0.424925
C268  C     C_2   0.690319 0.762890 0.068135 0.303802
H106  H     H_    0.692582 0.812498 0.056121 0.069292
O90   O     O_2   0.729962 0.781948 0.088775 -0.407003
O91   O     O_3   0.711655 0.517869 0.676549 -0.523893
C269  C     C_3   0.751151 0.605373 0.681813 -0.060894
H107  H     H_    0.712916 0.623009 0.694567 0.094861
H108  H     H_    0.766712 0.640867 0.663116 0.127971
H109  H     H_    0.810044 0.625339 0.692786 0.188058
O92   O     O_3   0.449232 0.419496 0.812340 -0.546518
C270  C     C_3   0.461950 0.500640 0.807534 -0.109159
H110  H     H_    0.521752 0.539933 0.797020 0.116816
H111  H     H_    0.460375 0.532546 0.826126 0.127312
H112  H     H_    0.410522 0.494602 0.794677 0.144319
O93   O     O_3   0.687023 0.720976 0.574034 -0.524126
C271  C     C_3   0.682911 0.795833 0.574351 -0.063254
H113  H     H_    0.622940 0.785716 0.582776 0.177461
H114  H     H_    0.692113 0.822894 0.554337 0.100496
H115  H     H_    0.734176 0.842825 0.587100 0.164372
O94   O     O_3   0.602285 0.675762 0.931923 -0.505379
C272  C     C_3   0.524494 0.672970 0.932439 -0.069279
H116  H     H_    0.511481 0.689751 0.952302 0.128568
H117  H     H_    0.472705 0.610156 0.925988 0.116033
H118  H     H_    0.526556 0.720050 0.918459 0.163481
O95   O     O_3   0.881389 0.298244 0.697415 -0.549387
C273  C     C_3   0.953594 0.323995 0.713012 -0.088978
H119  H     H_    0.967489 0.379908 0.725476 0.111542
H120  H     H_    0.008504 0.337273 0.700653 0.135668
H121  H     H_    0.942348 0.272051 0.726416 0.145674
O96   O     O_3   0.911556 0.326715 0.800835 -0.552442
C274  C     C_3   0.854157 0.245274 0.809728 -0.037272
H122  H     H_    0.793346 0.239557 0.815586 0.129447
H123  H     H_    0.880760 0.226992 0.826339 0.191367
H124  H     H_    0.841084 0.199678 0.793366 0.128740
O97   O     O_3   0.452228 0.454092 0.300196 -0.533319
C275  C     C_3   0.373006 0.390108 0.291153 -0.095912
H125  H     H_    0.319016 0.381678 0.303288 0.098972
H126  H     H_    0.372530 0.329360 0.290753 0.120221
H127  H     H_    0.363431 0.403024 0.270531 0.159452
O98   O     O_3   0.307850 0.465381 0.171780 -0.559634
C276  C     C_3   0.280606 0.387752 0.184518 -0.082920
H128  H     H_    0.221589 0.370783 0.194933 0.143815
H129  H     H_    0.325691 0.389234 0.199486 0.115572
H130  H     H_    0.266358 0.336923 0.169972 0.110283
O99   O     O_3   0.482019 0.429829 0.353059 -0.496492
C277  C     C_3   0.415833 0.346582 0.349170 -0.009258
H131  H     H_    0.428906 0.318540 0.331643 0.149246
H132  H     H_    0.352746 0.340367 0.347181 0.105383
H133  H     H_    0.413652 0.308902 0.366399 0.197783
O100  O     O_3   0.377311 0.465711 0.123369 -0.531370
C278  C     C_3   0.342936 0.377493 0.122350 -0.051840
H134  H     H_    0.273924 0.346996 0.123649 0.144010
H135  H     H_    0.366100 0.351372 0.137891 0.133793
H136  H     H_    0.357445 0.359730 0.102929 0.145284
O101  O     O_3   0.263745 0.369953 0.519911 -0.549310
C279  C     C_3   0.207807 0.286805 0.527891 -0.018971
H137  H     H_    0.163962 0.286755 0.542809 0.158836
H138  H     H_    0.239882 0.252821 0.535083 0.155731
H139  H     H_    0.168770 0.250933 0.510682 0.137074
O102  O     O_3   0.604445 0.306566 0.005332 -0.524428
C280  C     C_3   0.558300 0.218850 0.000024 0.016653
H140  H     H_    0.596404 0.198881 0.988378 0.161246
H141  H     H_    0.496942 0.198033 0.990133 0.158007
H142  H     H_    0.545084 0.185310 0.019002 0.164725
O103  O     O_3   0.275519 0.355789 0.575897 -0.549688
C281  C     C_3   0.241992 0.406043 0.584806 -0.088110
H143  H     H_    0.225963 0.434304 0.568060 0.119627
H144  H     H_    0.285479 0.456189 0.598727 0.156410
H145  H     H_    0.183384 0.365545 0.595558 0.156951
O104  O     O_3   0.600817 0.282664 0.949985 -0.549696
C282  C     C_3   0.687747 0.317610 0.946593 -0.084427
H146  H     H_    0.721133 0.334137 0.965885 0.176114
H147  H     H_    0.714179 0.373936 0.933817 0.143167
H148  H     H_    0.699179 0.270013 0.936759 0.154173
O105  O     O_3   0.387808 0.451501 0.656234 -0.524171
C283  C     C_3   0.319809 0.378958 0.666920 -0.072385
H149  H     H_    0.313361 0.388775 0.688210 0.103389
H150  H     H_    0.324731 0.321400 0.663525 0.140337
H151  H     H_    0.261698 0.368283 0.656954 0.161270
O106  O     O_3   0.704022 0.433951 0.875777 -0.507045
C284  C     C_3   0.709789 0.360463 0.871849 -0.041730
H152  H     H_    0.739376 0.361469 0.852770 0.091424
H153  H     H_    0.647864 0.302136 0.873116 0.153284
H154  H     H_    0.750359 0.357887 0.887520 0.172204
O107  O     O_3   0.335561 0.305219 0.490563 -0.563064
C285  C     C_3   0.282084 0.231931 0.475857 -0.110936
H155  H     H_    0.317067 0.218978 0.460491 0.132852
H156  H     H_    0.228522 0.235779 0.467339 0.126451
H157  H     H_    0.255815 0.177651 0.489351 0.147021
O108  O     O_3   0.476142 0.280346 0.033288 -0.531128
C286  C     C_3   0.397400 0.269665 0.026218 -0.103786
H158  H     H_    0.402837 0.315753 0.011145 0.099727
H159  H     H_    0.363830 0.274014 0.043823 0.126957
H160  H     H_    0.359061 0.206176 0.017373 0.189654
O109  O     O_3   0.939263 0.299750 0.646033 -0.540702
C287  C     C_3   0.864930 0.220725 0.646221 -0.042263
H161  H     H_    0.806696 0.224650 0.644407 0.147037
H162  H     H_    0.862605 0.186277 0.664323 0.155961
H163  H     H_    0.865948 0.182856 0.629187 0.140248
O110  O     O_3   0.000396 0.356880 0.847859 -0.497837
C288  C     C_3   0.085622 0.409781 0.842205 -0.075245
H164  H     H_    0.114136 0.466601 0.855260 0.134623
H165  H     H_    0.094723 0.428399 0.821145 0.119539
H166  H     H_    0.119171 0.374665 0.845874 0.158548
C289  C     C_2   0.754066 0.286412 0.555052 0.289282
H167  H     H_    0.714061 0.225649 0.545743 0.098409
O111  O     O_2   0.723317 0.316799 0.569665 -0.412363
C290  C     C_2   0.947088 0.239937 0.935464 0.303329
H168  H     H_    0.921803 0.183630 0.947205 0.096667
O112  O     O_2   0.977021 0.239449 0.914090 -0.413321
C291  C     C_2   0.864595 0.234636 0.476656 0.227576
H169  H     H_    0.806859 0.189716 0.466850 0.108371
O113  O     O_2   0.888649 0.211141 0.495460 -0.467029
C292  C     C_2   0.830959 0.260285 0.018635 0.208981
H170  H     H_    0.810295 0.198491 0.026674 0.144448
O114  O     O_2   0.789996 0.267008 0.000885 -0.508862
O115  O     O_3   0.018109 0.580459 0.303134 -0.579696
C293  C     C_3   0.032143 0.663165 0.306549 -0.129415
H171  H     H_    0.036403 0.683274 0.327518 0.098537
H172  H     H_    0.978980 0.666277 0.297516 0.154443
H173  H     H_    0.089343 0.708640 0.296085 0.146203
O116  O     O_3   0.045802 0.627621 0.196339 -0.493337
C294  C     C_3   0.982005 0.572045 0.213251 -0.063190
H174  H     H_    0.003959 0.538191 0.226186 0.110652
H175  H     H_    0.963758 0.609299 0.226183 0.164088
H176  H     H_    0.925377 0.526229 0.201947 0.122178

loop_
_geom_bond_atom_site_label_1
_geom_bond_atom_site_label_2
_ccdc_geom_bond_type
C276  H130  S    
C198  C268  S    
C63   C65   A    
C76   O45   A    
C36   O36   A    
C33   C45   S    
O105  C283  S    
C148  N8    Am   
C194  C196  A    
C2    C202  S    
C39   C87   A    
C153  H15   S    
C268  H106  S    
C97   O47   D    
C227  H19   S    
C170  C176  A    
C291  H169  S    
C266  H104  S    
C171  C173  A    
C75   O1    A    
C18   C210  A    
Cr5   O31   S    
C152  H10   S    
C40   C258  S    
C207  H7    S    
C4    C142  A    
C120  O4    D    
Cr3   O43   S    
C205  C211  A    
C58   C60   A    
C119  N1    Am   
O108  C286  S    
C109  C241  S    
C104  C254  S    
O85   C263  S    
C66   O6    D    
C185  C207  A    
C7    C203  A    
C251  H75   S    
C192  N10   S    
C156  C158  A    
C176  C262  S    
O100  C278  S    
C272  H117  S    
C10   O106  S    
C50   C52   A    
C159  C161  A    
C33   O31   A    
C102  N6    Am   
C34   O32   A    
Cr2   O39   S    
C285  H157  S    
C206  C214  A    
C148  O10   D    
C110  C242  S    
C251  H74   S    
C170  H14   S    
C283  H150  S    
C49   C91   A    
C77   O57   S    
C1    O23   A    
C75   O44   A    
C77   C79   A    
C177  O15   D    
C230  H32   S    
C134  C248  S    
O107  C285  S    
C183  C201  A    
C127  C133  A    
C8    C204  A    
C252  H78   S    
C233  H35   S    
C25   C41   A    
C274  H123  S    
C155  H17   S    
C26   C38   A    
C286  H160  S    
Cr4   O26   S    
C212  C220  A    
C193  C199  A    
C21   C29   A    
C283  H151  S    
C64   C66   A    
C19   H23   S    
C287  H161  S    
C274  H124  S    
C223  O21   D    
C236  H44   S    
C277  H133  S    
C93   H5    S    
C100  O8    D    
C92   C94   A    
O94   C272  S    
C249  H67   S    
C234  H40   S    
C20   C198  A    
C138  C140  A    
C126  C154  A    
C292  O114  D    
C185  H1    S    
C82   C84   A    
C14   C206  A    
C243  H57   S    
C213  H21   S    
C57   C59   A    
C143  C173  A    
O67   C245  S    
C214  H22   S    
C273  H119  S    
C104  C112  A    
C108  O62   S    
C135  C137  A    
C187  C201  A    
O106  C284  S    
C177  C195  A    
C181  O99   S    
C105  O73   S    
C208  H8    S    
C232  H34   S    
C183  O97   S    
C244  O66   D    
C78   O58   S    
C184  O98   S    
C241  H55   S    
O98   C276  S    
C154  H16   S    
C246  H62   S    
C186  C208  A    
C70   O110  S    
C3    C207  A    
C260  H90   S    
C40   C88   A    
C247  O69   D    
C64   C94   A    
C97   N1    Am   
C282  H147  S    
C31   O27   A    
O61   C239  S    
C281  H143  S    
C119  O3    D    
C32   O28   A    
C286  H159  S    
C118  C244  S    
C31   O29   A    
C188  C202  A    
O92   C270  S    
C159  C167  A    
C47   C81   A    
C33   O33   A    
C235  H41   S    
C255  H82   S    
Cr6   O35   S    
C114  C162  A    
C113  C161  A    
C206  C212  A    
C48   C52   A    
O116  C294  S    
C8    C10   A    
C189  O87   S    
C106  C124  A    
C237  H47   S    
C133  C135  A    
C73   C77   A    
C279  H137  S    
C294  H174  S    
C218  C226  A    
C161  C165  A    
C256  H85   S    
C35   O25   A    
C41   C89   A    
O57   C235  S    
C45   C71   A    
C107  O61   S    
C53   O42   A    
C135  O67   S    
C252  H76   S    
C3    C141  A    
C233  H37   S    
C38   C98   A    
O62   C240  S    
Cr4   O28   S    
O77   C255  S    
C92   H4    S    
C226  O18   D    
C290  O112  D    
C60   C62   A    
C216  C218  A    
C188  O86   S    
C257  O79   D    
C214  C216  A    
C238  H48   S    
C43   C185  A    
C101  O11   D    
C188  C190  A    
Cr1   O1    S    
C189  C191  A    
C125  C151  A    
C59   C67   A    
C139  C143  A    
C194  C200  A    
O115  C293  S    
C116  C118  A    
C245  H59   S    
C279  H139  S    
C287  H162  S    
C262  H92   S    
C34   C46   S    
C187  O85   S    
Cr5   O37   S    
C273  H121  S    
C160  C168  A    
C1    O38   A    
C280  H142  S    
C225  N11   Am   
C259  H89   S    
C21   C199  A    
C142  C230  S    
C173  C259  S    
C269  H107  S    
C81   C83   A    
C285  H156  S    
C284  H154  S    
C186  H2    S    
C106  O74   S    
C246  H64   S    
C271  H114  S    
C59   C61   A    
C120  N2    Am   
C263  H93   S    
C178  O16   D    
C76   C124  S    
C281  H145  S    
O88   C266  S    
C248  O70   D    
C68   O50   D    
C229  O51   D    
C21   H25   S    
C32   C126  S    
Cr3   O45   S    
C74   O56   S    
C101  N5    Am   
C39   C257  S    
C5    C227  A    
C42   C90   A    
C160  C162  A    
C182  O100  S    
Cr6   O33   S    
C165  C175  A    
C180  C200  A    
C128  C134  A    
C218  C220  A    
O103  C281  S    
C240  H54   S    
C69   O109  S    
C278  H134  S    
C103  C105  A    
C294  H176  S    
C222  C224  A    
C270  H111  S    
C239  H51   S    
C10   C12   A    
C28   C222  A    
C236  H45   S    
C277  H132  S    
C210  C212  A    
C65   O5    D    
C24   O102  S    
C69   C79   A    
C234  H39   S    
C31   C125  S    
C144  C174  A    
Cr1   O46   S    
C26   C42   A    
C25   C83   A    
C276  H129  S    
C209  C211  A    
C26   C84   A    
C141  C229  S    
C287  H163  S    
C80   N4    S    
C46   C72   A    
C24   C28   A    
C248  H66   S    
C268  O90   D    
C5    C203  A    
C114  C116  A    
O95   C273  S    
C90   C96   A    
C103  C111  A    
C250  H72   S    
C266  H103  S    
C211  C219  A    
C95   C237  S    
C284  H152  S    
C288  H166  S    
C275  H125  S    
C242  H56   S    
C52   C62   A    
C247  H65   S    
C85   C95   A    
C42   C120  A    
C98   N2    Am   
C245  H61   S    
C82   C88   A    
C172  C174  A    
C56   C58   A    
C7    H27   S    
C14   C16   A    
C110  C112  A    
C131  C139  A    
C261  H91   S    
C147  O9    D    
C44   C54   S    
C113  C121  A    
O56   C234  S    
C11   C227  A    
O58   C236  S    
C20   H24   S    
C280  H140  S    
C2    O39   A    
C67   O49   D    
C258  H88   S    
O93   C271  S    
C8    H28   S    
C191  N9    S    
C269  H109  S    
Cr2   O40   S    
C217  C225  A    
O96   C274  S    
C195  C197  A    
O73   C251  S    
C155  C157  A    
C17   C29   A    
C179  O19   D    
C100  C116  A    
C249  H69   S    
C107  C123  A    
C1    C201  S    
C104  C106  A    
O78   C256  S    
C177  N9    Am   
C253  O75   D    
C100  N6    Am   
C72   O96   S    
C137  C139  A    
C32   O30   A    
O102  C280  S    
C182  C192  A    
C88   C292  S    
C231  H33   S    
C22   C200  A    
C252  H77   S    
C233  H36   S    
C34   O34   A    
C17   C209  A    
C99   C115  A    
C274  H122  S    
C12   C228  A    
C254  H80   S    
C4    N2    S    
C240  H52   S    
C157  N7    S    
C178  C196  A    
C278  H136  S    
C158  N8    S    
Cr1   O24   S    
C150  H12   S    
C96   C238  S    
C239  H49   S    
C147  N7    Am   
C162  C166  A    
C43   C53   S    
C130  C172  A    
C115  C117  A    
C6    C228  A    
C264  H98   S    
C293  H173  S    
C4    C208  A    
C153  C155  A    
C22   C30   A    
C154  C156  A    
C213  C215  A    
C205  C213  A    
C149  H11   S    
O101  C279  S    
C180  O20   D    
C107  C109  A    
C226  N12   Am   
C37   C97   A    
C273  H120  S    
C231  O53   D    
C224  N12   Am   
C19   C197  A    
C13   C19   A    
C70   C80   A    
C288  H164  S    
C14   C20   A    
C144  C146  A    
C181  C183  A    
C112  N6    S    
C289  O111  D    
C24   C210  A    
O86   C264  S    
C292  H170  S    
C47   C51   A    
Cr3   O44   S    
C235  H43   S    
C49   C51   A    
C99   N5    Am   
C101  C121  A    
C264  H96   S    
C113  C115  A    
C281  H144  S    
C89   C95   A    
C130  C132  A    
C257  H87   S    
C6    C204  A    
C267  H105  S    
C91   C93   A    
C130  C166  A    
O55   C233  S    
C265  H101  S    
C71   O95   S    
O99   C277  S    
C272  H118  S    
C23   O101  S    
C293  H171  S    
C235  H42   S    
C171  O77   S    
C255  H83   S    
Cr6   O36   S    
Cr2   O38   S    
C86   C96   A    
C142  C164  A    
C232  O54   D    
C83   C85   A    
C197  C267  S    
C251  H73   S    
C279  H138  S    
C217  C219  A    
C283  H149  S    
C111  N5    S    
C242  O64   D    
C65   N3    Am   
C66   N4    Am   
C58   C290  S    
C29   O107  S    
C167  O71   S    
C15   C17   A    
C267  O89   D    
C190  C192  A    
C150  C158  A    
C9    O105  S    
C137  C147  A    
C140  C144  A    
Cr6   O37   S    
C2    O24   A    
O68   C246  S    
C291  O113  D    
C156  H18   S    
C36   O26   A    
Cr4   O25   S    
C215  O93   S    
C132  C140  A    
C63   C93   A    
C179  C199  A    
C129  C165  A    
C220  C222  A    
C127  C131  A    
C149  C151  A    
C62   C64   A    
C229  H31   S    
C37   C39   A    
C38   C40   A    
C181  C191  A    
C238  O60   D    
C117  C167  A    
C225  O17   D    
Cr2   O46   S    
C175  C261  S    
C53   O40   A    
C48   C82   A    
C108  C124  A    
C78   C80   A    
C169  H13   S    
C216  O94   S    
C68   N4    Am   
C15   C193  A    
O72   C250  S    
C60   C68   A    
C245  H60   S    
C74   C78   A    
C243  O65   D    
C179  N9    Am   
C84   C86   A    
C262  O84   D    
C44   C164  A    
C122  C170  A    
C102  C122  A    
C149  C157  A    
C44   C186  A    
C261  O83   D    
C43   C163  A    
C121  C169  A    
C3    N1    S    
C280  H141  S    
C35   O35   A    
O71   C249  S    
C51   C61   A    
Cr5   O30   S    
C35   C203  S    
C244  H58   S    
C12   N12   S    
C269  H108  S    
C276  H128  S    
C284  H153  S    
Cr3   O42   S    
C103  C253  S    
Cr4   O37   S    
C246  H63   S    
C271  H115  S    
C22   H26   S    
C282  H146  S    
C263  H94   S    
O91   C269  S    
C75   C123  S    
Cr5   O29   S    
O104  C282  S    
C56   H30   S    
C249  H68   S    
C282  H148  S    
C215  C217  A    
C293  H172  S    
C102  O12   D    
C272  H116  S    
C143  C145  A    
Cr1   O2    S    
C45   C73   A    
O97   C275  S    
C172  O78   S    
C69   C71   A    
C163  O115  S    
C255  H81   S    
Cr6   O34   S    
C168  O72   S    
C180  N10   Am   
C109  C111  A    
C25   C37   A    
C250  H70   S    
C117  C243  S    
C108  C110  A    
C193  C195  A    
C263  H95   S    
C79   N3    S    
C18   C30   A    
C54   O41   A    
C23   C27   A    
C294  H175  S    
C151  H9    S    
C270  H110  S    
C256  H86   S    
C55   H29   S    
C178  N10   Am   
O110  C288  S    
C98   O48   D    
C224  O22   D    
C91   H3    S    
C126  C152  A    
C90   C232  S    
C128  C132  A    
C125  C153  A    
Cr4   O27   S    
C182  C184  A    
C241  O63   D    
C169  C175  A    
C184  C202  A    
C290  H168  S    
C27   O103  S    
C49   C85   A    
C16   C194  A    
C136  C138  A    
C138  C148  A    
C253  H79   S    
C134  C136  A    
C23   C209  A    
C240  H53   S    
C266  H102  S    
C30   O108  S    
C73   O55   S    
C41   C119  A    
C174  C260  S    
C288  H165  S    
C275  H126  S    
C133  C247  S    
C6    O92   S    
C219  C221  A    
C67   N3    Am   
O87   C265  S    
C61   C63   A    
C230  O52   D    
C237  O59   D    
C55   C57   A    
C81   C87   A    
C265  H99   S    
C9    C11   A    
C11   N11   S    
C145  O13   D    
C228  H20   S    
C50   C92   A    
C265  H100  S    
C141  C163  A    
C13   C15   A    
C190  O88   S    
C150  C152  A    
C275  H127  S    
C250  H71   S    
Cr5   O32   S    
C258  O80   D    
C127  C159  A    
C46   C74   A    
Cr2   O41   S    
C285  H155  S    
C128  C160  A    
C47   C55   A    
O74   C252  S    
C94   H6    S    
C48   C56   A    
C271  H113  S    
C129  C171  A    
C118  C168  A    
Cr3   O46   S    
C136  O68   S    
C259  O81   D    
C166  C176  A    
C76   O2    A    
C145  N7    Am   
C89   C231  S    
C146  N8    Am   
C27   C221  A    
C289  H167  S    
C221  C223  A    
C164  O116  S    
C146  O14   D    
C57   C289  S    
C286  H158  S    
C254  O76   D    
C278  H135  S    
Cr1   O23   S    
C13   C205  A    
O109  C287  S    
C270  H112  S    
C239  H50   S    
C187  C189  A    
C196  C198  A    
C260  O82   D    
C50   C86   A    
C256  H84   S    
C114  C122  A    
C7    C9    A    
C236  H46   S    
C223  N11   Am   
C277  H131  S    
C28   O104  S    
C16   C18   A    
C54   O43   A    
C264  H97   S    
C87   C291  S    
C70   C72   A    
C36   C204  S    
C105  C123  A    
C234  H38   S    
C5    O91   S    
C129  C131  A    
C99   O7    D    
