data_mof_unit_25429.cif
_audit_creation_date              2012-12-10T18:42:29-0500
_audit_creation_method            fapswitch 2.2
_symmetry_space_group_name_H-M    P1
_symmetry_Int_Tables_number       1
_space_group_crystal_system       triclinic
_cell_length_a                    8.591576
_cell_length_b                    10.647302
_cell_length_c                    9.859723
_cell_angle_alpha                 90.402881
_cell_angle_beta                  98.674991
_cell_angle_gamma                 90.034718
_cell_volume                      891.597253519

loop_
_atom_site_label
_atom_site_type_symbol
_atom_type_description
_atom_site_fract_x
_atom_site_fract_y
_atom_site_fract_z
_atom_type_partial_charge
C1    C     C_R   0.495455 0.260284 0.498831 0.880147
C2    C     C_R   0.504544 0.739716 0.501169 0.880149
C3    C     C_R   0.201125 0.500014 0.464076 0.955930
C4    C     C_R   0.798875 0.499986 0.535924 0.955931
C5    C     C_2   0.035962 0.500164 0.444786 -0.372764
C6    C     C_2   0.964038 0.499836 0.555214 -0.372765
C7    C     C_R   0.601354 0.067077 0.428727 -0.207180
C8    C     C_R   0.398645 0.932924 0.571272 -0.207179
C9    C     C_R   0.613459 0.938519 0.433106 0.460459
C10   C     C_R   0.386540 0.061481 0.566893 0.460460
C11   C     C_R   0.508682 0.872158 0.503375 -0.235937
C12   C     C_R   0.491317 0.127842 0.496625 -0.235936
C13   C     C_R   0.598695 0.577427 0.085412 -0.054602
C14   C     C_R   0.401305 0.422573 0.914588 -0.054603
C15   C     C_R   0.598638 0.577398 0.941638 -0.060093
C16   C     C_R   0.401362 0.422602 0.058362 -0.060093
H1    H     H_    0.974005 0.500623 0.340058 0.182904
H2    H     H_    0.025995 0.499377 0.659942 0.182904
H3    H     H_    0.682424 0.120173 0.376835 0.188516
H4    H     H_    0.317576 0.879827 0.623164 0.188516
H5    H     H_    0.677673 0.639383 0.150594 0.149823
H6    H     H_    0.322327 0.360617 0.849406 0.149822
H7    H     H_    0.677557 0.639335 0.898090 0.137517
H8    H     H_    0.322443 0.360665 0.101910 0.137517
N1    N     N_R   0.499960 0.499970 0.857200 -0.087617
N2    N     N_R   0.500040 0.500030 0.142800 -0.087617
O1    O     O_R   0.499990 0.316750 0.614620 -0.604034
O2    O     O_R   0.500010 0.683250 0.385380 -0.604033
O3    O     O_R   0.499990 0.316780 0.385290 -0.619334
O4    O     O_R   0.500010 0.683220 0.614710 -0.619335
O5    O     O_R   0.271750 0.499990 0.587840 -0.623084
O6    O     O_R   0.728250 0.500010 0.412160 -0.623084
O7    O     O_R   0.271750 0.500010 0.358510 -0.622127
O8    O     O_R   0.728250 0.499990 0.641490 -0.622127
Zn1   Zn    Zn3+2 0.500000 0.499980 0.653120 0.959109
Zn2   Zn    Zn3+2 0.500000 0.500020 0.346880 0.959110
O9    O     O_3   0.730055 0.882800 0.371044 -0.756812
H9    H     H_    0.752660 0.797991 0.409406 0.329175
O10   O     O_3   0.269941 0.117200 0.628951 -0.756813
H10   H     H_    0.247340 0.202010 0.590593 0.329175

loop_
_geom_bond_atom_site_label_1
_geom_bond_atom_site_label_2
_ccdc_geom_bond_type
O9    H9    S    
C4    O8    A    
C7    H3    S    
C2    O4    A    
C15   H7    S    
C14   H6    S    
C1    O3    A    
C13   H5    S    
C16   H8    S    
C8    H4    S    
C3    O5    A    
C9    C11   A    
O3    Zn2   S    
C4    O6    A    
C1    C12   S    
C10   C12   A    
O4    Zn1   S    
N1    Zn1   S    
C8    C11   A    
C5    C6    D    
C2    C11   S    
O6    Zn2   S    
C9    O9    S    
O5    Zn1   S    
C13   C15   A    
C14   N1    A    
C16   N2    A    
C7    C12   A    
C6    H2    S    
C14   C16   A    
C13   N2    A    
C15   N1    A    
C5    H1    S    
C3    O7    A    
C7    C9    A    
O7    Zn2   S    
O2    Zn2   S    
C4    C6    S    
O8    Zn1   S    
N2    Zn2   S    
O10   H10   S    
C1    O1    A    
C2    O2    A    
O1    Zn1   S    
C8    C10   A    
C10   O10   S    
C3    C5    S    
