data_mof_unit_24745.cif
_audit_creation_date              2012-12-10T17:28:37-0500
_audit_creation_method            fapswitch 2.2
_symmetry_space_group_name_H-M    P1
_symmetry_Int_Tables_number       1
_space_group_crystal_system       triclinic
_cell_length_a                    10.778524
_cell_length_b                    12.076089
_cell_length_c                    12.87491
_cell_angle_alpha                 92.55396
_cell_angle_beta                  93.922413
_cell_angle_gamma                 83.307918
_cell_volume                      1659.38035603

loop_
_atom_site_label
_atom_site_type_symbol
_atom_type_description
_atom_site_fract_x
_atom_site_fract_y
_atom_site_fract_z
_atom_type_partial_charge
C1    C     C_R   0.489021 0.521584 0.699361 0.914828
C2    C     C_R   0.503781 0.560608 0.131004 -0.242206
C3    C     C_R   0.480173 0.448026 0.973505 0.177983
C4    C     C_R   0.490315 0.553128 0.024142 0.176035
C5    C     C_R   0.389959 0.961258 0.391815 -0.111694
C6    C     C_R   0.610936 0.038306 0.607116 -0.127885
C7    C     C_R   0.400871 0.844061 0.401779 0.274352
C8    C     C_R   0.602192 0.155115 0.595468 0.260529
C9    C     C_R   0.545089 0.854956 0.548075 -0.048800
C10   C     C_R   0.452985 0.145276 0.453098 -0.066789
C11   C     C_R   0.539073 0.972997 0.539527 -0.010936
C12   C     C_R   0.502610 0.478573 0.299644 0.894660
C13   C     C_R   0.459737 0.026969 0.460924 -0.003635
C14   C     C_R   0.740657 0.498349 0.504308 0.916125
C15   C     C_R   0.260238 0.504210 0.506634 0.891273
C16   C     C_R   0.904665 0.444508 0.696647 0.161224
C17   C     C_R   0.066576 0.703413 0.446855 0.225833
C18   C     C_R   0.978594 0.381449 0.771229 -0.140870
C19   C     C_R   0.991750 0.761200 0.368831 -0.186863
C20   C     C_R   0.103201 0.344944 0.754259 0.021670
C21   C     C_R   0.892497 0.712535 0.316650 0.025187
C22   C     C_R   0.156723 0.383972 0.669201 -0.210693
C23   C     C_R   0.500832 0.465795 0.188198 -0.062231
C24   C     C_R   0.856800 0.614946 0.354269 -0.178381
C25   C     C_R   0.080581 0.446852 0.593519 0.053627
C26   C     C_R   0.926229 0.563511 0.439867 0.020362
C27   C     C_R   0.950231 0.457134 0.598400 0.042148
C28   C     C_R   0.045006 0.593399 0.467297 0.024271
C29   C     C_R   0.128419 0.515714 0.524077 -0.169265
C30   C     C_R   0.874859 0.498128 0.510300 -0.161409
C31   C     C_1   0.816907 0.770204 0.234873 0.190901
C32   C     C_1   0.180125 0.281772 0.831779 0.185024
C33   C     C_1   0.307442 0.013433 0.309816 0.193007
C34   C     C_R   0.477562 0.534872 0.809808 -0.050350
C35   C     C_1   0.694694 0.985898 0.688301 0.210679
C36   C     C_R   0.487379 0.649207 0.967283 -0.172839
C37   C     C_R   0.481556 0.352297 0.030735 -0.178159
C38   C     C_R   0.480035 0.640239 0.859779 -0.144074
C39   C     C_R   0.490875 0.361280 0.138401 -0.183648
C40   C     C_R   0.472311 0.439921 0.866389 -0.250129
H1    H     H_    0.942459 0.369931 0.846040 0.175102
H2    H     H_    0.475135 0.271219 0.992478 0.166177
H3    H     H_    0.391941 0.188313 0.393975 0.150557
H4    H     H_    0.604993 0.812081 0.607995 0.161528
H5    H     H_    0.007319 0.845573 0.352531 0.177691
H6    H     H_    0.257406 0.371259 0.668349 0.168601
H7    H     H_    0.771253 0.584329 0.321751 0.143595
H8    H     H_    0.515260 0.640860 0.169356 0.180840
H9    H     H_    0.466711 0.358940 0.827477 0.175129
H10   H     H_    0.489109 0.287111 0.182361 0.171449
H11   H     H_    0.482081 0.714614 0.816173 0.180810
H12   H     H_    0.493371 0.730288 0.005763 0.162455
I1    I     I_    0.782292 0.574427 0.760644 -0.347535
I2    I     I_    0.154406 0.804435 0.563435 -0.315732
I3    I     I_    0.717361 0.243989 0.700479 -0.331483
I4    I     I_    0.293611 0.754049 0.288214 -0.348567
N1    N     N_R   0.523130 0.207800 0.519340 -0.125711
N2    N     N_R   0.476870 0.792200 0.480660 -0.117363
N3    N     N_1   0.755952 0.816434 0.169179 -0.186554
N4    N     N_1   0.241706 0.230744 0.894032 -0.197354
N5    N     N_1   0.241615 0.055268 0.244432 -0.169658
N6    N     N_1   0.761469 0.943823 0.752975 -0.137285
O1    O     O_R   0.506170 0.421700 0.658830 -0.613813
O2    O     O_R   0.493830 0.578300 0.341170 -0.608008
O3    O     O_R   0.491330 0.609310 0.646410 -0.612208
O4    O     O_R   0.508670 0.390690 0.353590 -0.628642
O5    O     O_R   0.690650 0.406190 0.506220 -0.587100
O6    O     O_R   0.309350 0.593810 0.493780 -0.580649
O7    O     O_R   0.675800 0.593810 0.493800 -0.611426
O8    O     O_R   0.324200 0.406190 0.506200 -0.633315
Zn1   Zn    Zn3+2 0.509910 0.374730 0.508290 0.980137
Zn2   Zn    Zn3+2 0.490090 0.625270 0.491710 0.999470

loop_
_geom_bond_atom_site_label_1
_geom_bond_atom_site_label_2
_ccdc_geom_bond_type
C19   C21   A    
C1    C34   S    
O7    Zn2   S    
C2    C4    A    
C14   O5    A    
C4    C36   A    
C15   C29   S    
O8    Zn1   S    
C8    N1    A    
C25   C27   A    
O3    Zn2   S    
C11   C13   A    
C39   H10   S    
C7    N2    A    
C1    O3    A    
O4    Zn1   S    
C36   H12   S    
O6    Zn2   S    
C2    H8    S    
C21   C31   S    
C16   C27   A    
C36   C38   A    
C37   C39   A    
C26   C28   A    
N1    Zn1   S    
C27   C30   A    
C9    C11   A    
C12   C23   S    
N2    Zn2   S    
C12   O4    A    
C7    I4    S    
C14   C30   S    
C23   C39   A    
C15   O6    A    
C1    O1    A    
C8    I3    S    
C33   N5    T    
C28   C29   A    
C17   C19   A    
O1    Zn1   S    
C3    C40   A    
C26   C30   A    
C35   N6    T    
C18   C20   A    
O2    Zn2   S    
C25   C29   A    
C12   O2    A    
C14   O7    A    
C34   C40   A    
C21   C24   A    
O5    Zn1   S    
C37   H2    S    
C3    C4    A    
C6    C11   A    
C10   N1    A    
C6    C35   S    
C3    C37   A    
C16   C18   A    
C9    N2    A    
C20   C32   S    
C18   H1    S    
C31   N3    T    
C2    C23   A    
C5    C7    A    
C15   O8    A    
C32   N4    T    
C16   I1    S    
C9    H4    S    
C6    C8    A    
C38   H11   S    
C22   H6    S    
C10   H3    S    
C34   C38   A    
C24   H7    S    
C5    C13   A    
C17   I2    S    
C22   C25   A    
C19   H5    S    
C40   H9    S    
C17   C28   A    
C20   C22   A    
C24   C26   A    
C10   C13   A    
C5    C33   S    
