data_mof_unit_46318.cif
_audit_creation_date              2012-12-10T17:03:26-0500
_audit_creation_method            fapswitch 2.2
_symmetry_space_group_name_H-M    P1
_symmetry_Int_Tables_number       1
_space_group_crystal_system       triclinic
_cell_length_a                    14.998281
_cell_length_b                    11.011018
_cell_length_c                    9.915636
_cell_angle_alpha                 111.477164
_cell_angle_beta                  97.667513
_cell_angle_gamma                 92.414147
_cell_volume                      1502.83673102

loop_
_atom_site_label
_atom_site_type_symbol
_atom_type_description
_atom_site_fract_x
_atom_site_fract_y
_atom_site_fract_z
_atom_type_partial_charge
C1    C     C_R   0.492885 0.253670 0.439901 0.772818
C2    C     C_R   0.505259 0.746212 0.560241 0.759600
C3    C     C_R   0.036355 0.286262 0.529895 0.432984
C4    C     C_R   0.963919 0.715467 0.471574 0.435331
C5    C     C_2   0.489640 0.112234 0.405126 0.290435
C6    C     C_2   0.507010 0.887636 0.595284 0.299273
C7    C     C_2   0.514466 0.070678 0.514423 -0.178749
C8    C     C_2   0.514391 0.931723 0.487769 -0.161330
C9    C     C_2   0.508638 0.510610 0.080461 0.372623
C10   C     C_2   0.491627 0.489025 0.919464 0.371993
C11   C     C_R   0.329415 0.499283 0.501340 0.859359
C12   C     C_R   0.670659 0.501605 0.498916 0.884512
C13   C     C_R   0.815808 0.615006 0.492973 0.386413
C14   C     C_R   0.184596 0.387117 0.509625 0.389235
C15   C     C_R   0.766919 0.504802 0.496516 -0.137661
C16   C     C_R   0.233275 0.496579 0.504136 -0.121715
C17   C     C_R   0.809338 0.397644 0.504272 -0.247672
C18   C     C_R   0.190896 0.603609 0.495832 -0.293245
C19   C     C_R   0.901972 0.396942 0.508427 0.063263
C20   C     C_R   0.098376 0.604834 0.492869 0.076848
C21   C     C_R   0.953102 0.503216 0.499387 -0.018804
C22   C     C_R   0.047297 0.498753 0.502494 -0.017637
C23   C     C_R   0.910089 0.613369 0.487552 -0.062625
C24   C     C_R   0.090295 0.388609 0.514537 -0.063031
C25   C     C_R   0.943551 0.291083 0.523945 -0.192215
C26   C     C_R   0.056754 0.710669 0.477261 -0.232680
Cu1   Cu    Cu3+1 0.515770 0.521810 0.644910 1.049957
Cu2   Cu    Cu3+1 0.484230 0.478190 0.355090 1.033102
H1    H     H_    0.769706 0.315235 0.509835 0.159608
H2    H     H_    0.230444 0.685496 0.489079 0.141255
H3    H     H_    0.903368 0.211772 0.534651 0.212016
H4    H     H_    0.096851 0.789691 0.465803 0.192543
H5    H     H_    0.516081 0.864109 0.376524 0.225451
H6    H     H_    0.531902 0.140121 0.627112 0.216974
H7    H     H_    0.590600 0.623834 0.929949 0.236540
H8    H     H_    0.408961 0.376845 0.070241 0.219823
N1    N     N_2   0.460520 0.445420 0.137370 -0.302723
N2    N     N_2   0.539480 0.554580 0.862630 -0.297489
O1    O     O_R   0.508410 0.332340 0.577400 -0.551290
O2    O     O_R   0.491590 0.667660 0.422600 -0.565739
O3    O     O_R   0.481780 0.295500 0.332650 -0.570312
O4    O     O_R   0.518220 0.704500 0.667350 -0.562449
O5    O     O_R   0.383570 0.518390 0.622380 -0.518220
O6    O     O_R   0.616430 0.481610 0.377620 -0.506115
O7    O     O_R   0.356940 0.481550 0.377630 -0.586013
O8    O     O_R   0.643060 0.518450 0.622370 -0.569772
Cl1   Cl    Cl    0.756959 0.755661 0.514889 -0.475415
Cl2   Cl    Cl    0.244132 0.247870 0.492530 -0.589122
Cl3   Cl    Cl    0.077200 0.152771 0.568868 -0.507591
Cl4   Cl    Cl    0.922471 0.847409 0.430015 -0.454558
O9    O     O_3   0.506148 0.976226 0.737510 -0.575212
C27   C     C_3   0.425393 0.954981 0.788989 0.056454
H9    H     H_    0.432271 0.024910 0.904550 0.193568
H10   H     H_    0.416279 0.855459 0.791944 0.150318
C28   C     C_3   0.341041 0.981975 0.701735 -0.401533
H11   H     H_    0.352184 0.079897 0.695237 0.302049
H12   H     H_    0.328141 0.906617 0.588534 0.181681
C29   C     C_3   0.257647 0.977378 0.773333 -0.797806
H13   H     H_    0.245421 0.879970 0.780794 0.233528
H14   H     H_    0.197565 0.993865 0.706082 0.312235
H15   H     H_    0.266719 0.054952 0.885168 0.255898
O10   O     O_3   0.469017 0.023499 0.260696 -0.593924
C30   C     C_3   0.375514 0.015799 0.208298 0.084206
H16   H     H_    0.366364 0.973931 0.086596 0.153466
H17   H     H_    0.348680 0.113491 0.239522 0.168393
C31   C     C_3   0.320352 0.924257 0.258412 -0.393381
H18   H     H_    0.349528 0.828562 0.230319 0.227340
H19   H     H_    0.323275 0.968747 0.379196 0.240043
C32   C     C_3   0.221567 0.900783 0.185650 -0.766079
H20   H     H_    0.190789 0.995120 0.212561 0.295355
H21   H     H_    0.183376 0.836193 0.226300 0.261965
H22   H     H_    0.216250 0.852361 0.064562 0.240842
Cl5   Cl    Cl    0.403415 0.370067 0.806592 -0.585175
Cl6   Cl    Cl    0.597603 0.628483 0.193035 -0.542017

loop_
_geom_bond_atom_site_label_1
_geom_bond_atom_site_label_2
_ccdc_geom_bond_type
C25   H3    S    
C32   H22   S    
C4    C26   A    
C28   H11   S    
C30   H17   S    
C26   H4    S    
O10   C30   S    
C18   H2    S    
C2    O2    A    
C6    O9    S    
C17   H1    S    
C11   C16   S    
C31   H19   S    
C12   C15   S    
C4    Cl4   S    
C10   N2    D    
C29   H15   S    
C28   H12   S    
C31   H18   S    
C3    Cl3   S    
C30   C31   S    
C7    C8    S    
C12   O6    A    
C16   C18   A    
C21   C22   A    
C27   H9    S    
Cu1   O1    S    
C11   O5    A    
Cu1   O4    S    
C3    C24   A    
C2    C6    S    
C20   C26   A    
Cu2   N1    S    
C2    O4    A    
C14   Cl2   S    
C1    C5    S    
Cu1   O8    S    
C1    O3    A    
H8    N1    S    
C17   C19   A    
C27   C28   S    
C27   H10   S    
C5    O10   S    
C22   C24   A    
C8    H5    S    
C21   C23   A    
C13   C15   A    
C32   H20   S    
C19   C25   A    
C10   Cl5   S    
C14   C16   A    
Cu2   O7    S    
C11   O7    A    
C31   C32   S    
C32   H21   S    
C9    Cl6   S    
Cu2   O2    S    
Cu1   N2    S    
C29   H14   S    
O9    C27   S    
Cu1   O5    S    
Cu2   O3    S    
C3    C25   A    
H7    N2    S    
C7    H6    S    
C13   C23   A    
C18   C20   A    
C5    C7    D    
C9    N1    D    
C9    C10   S    
C28   C29   S    
C14   C24   A    
Cu1   Cu2   S    
C13   Cl1   S    
C4    C23   A    
C1    O1    A    
C6    C8    D    
C19   C21   A    
C29   H13   S    
C15   C17   A    
Cu2   O6    S    
C30   H16   S    
C20   C22   A    
C12   O8    A    
