data_mof_unit_55092.cif
_audit_creation_date              2012-12-10T16:55:02-0500
_audit_creation_method            fapswitch 2.2
_symmetry_space_group_name_H-M    P1
_symmetry_Int_Tables_number       1
_space_group_crystal_system       triclinic
_cell_length_a                    9.733372
_cell_length_b                    10.934144
_cell_length_c                    15.617861
_cell_angle_alpha                 89.888347
_cell_angle_beta                  73.215494
_cell_angle_gamma                 90.260458
_cell_volume                      1591.31076954

loop_
_atom_site_label
_atom_site_type_symbol
_atom_type_description
_atom_site_fract_x
_atom_site_fract_y
_atom_site_fract_z
_atom_type_partial_charge
C1    C     C_R   0.999305 0.265495 0.501160 0.853630
C2    C     C_R   0.671091 0.527845 0.905872 0.048927
C3    C     C_R   0.764482 0.583436 0.949132 0.128409
C4    C     C_R   0.521764 0.524142 0.950926 0.066531
C5    C     C_R   0.473907 0.543378 0.044725 0.077454
C6    C     C_R   0.573110 0.587793 0.087878 -0.221886
C7    C     C_R   0.714244 0.613071 0.039439 -0.233983
C8    C     C_R   0.418600 0.514864 0.903770 -0.209768
C9    C     C_R   0.272904 0.511381 0.948345 -0.227142
C10   C     C_R   0.225690 0.515502 0.041461 0.130941
C11   C     C_R   0.326139 0.527208 0.090812 0.088590
C12   C     C_R   0.916416 0.500981 0.671840 0.822324
C13   C     C_R   0.078562 0.512736 0.085582 -0.278310
C14   C     C_R   0.028599 0.518954 0.178901 0.262374
C15   C     C_R   0.275736 0.520535 0.184497 -0.317386
C16   C     C_2   0.886808 0.932518 0.501391 -0.156048
C17   C     C_2   0.005379 0.866621 0.494365 -0.315607
C18   C     C_2   0.888221 0.066527 0.497595 -0.156154
C19   C     C_2   0.999296 0.133484 0.505746 -0.311094
C20   C     C_2   0.400039 0.429727 0.550725 0.122817
C21   C     C_2   0.550000 0.441850 0.558760 -0.043609
C22   C     C_R   0.000848 0.734536 0.498821 0.834623
C23   C     C_R   0.083368 0.504385 0.327894 0.803947
C24   C     C_R   0.869770 0.517323 0.769186 -0.077033
C25   C     C_R   0.128510 0.514641 0.229249 -0.083565
C26   C     C_R   0.906949 0.609753 0.901339 -0.227103
C27   C     C_R   0.957481 0.581205 0.811012 -0.252598
C28   C     C_R   0.731508 0.479671 0.818938 0.185992
Cu1   Cu    Cu3+1 0.138640 0.500020 0.499980 0.962676
Cu2   Cu    Cu3+1 0.861360 0.499980 0.500020 0.960546
H1    H     H_    0.785046 0.655476 0.072682 0.149430
H2    H     H_    0.001879 0.508865 0.047389 0.140693
H3    H     H_    0.784348 0.887339 0.508876 0.177146
H4    H     H_    0.110204 0.908075 0.483271 0.150420
H5    H     H_    0.793236 0.110752 0.489139 0.168028
H6    H     H_    0.093205 0.092855 0.517721 0.146556
H7    H     H_    0.332066 0.359254 0.590720 0.068124
H8    H     H_    0.573554 0.396224 0.614205 0.116691
H9    H     H_    0.638280 0.520022 0.440135 0.266236
H10   H     H_    0.350748 0.516273 0.223547 0.170674
H11   H     H_    0.196905 0.506083 0.909618 0.151070
H12   H     H_    0.977586 0.656741 0.932952 0.145575
H13   H     H_    0.064895 0.609654 0.773752 0.171667
H14   H     H_    0.541438 0.613478 0.157528 0.146458
H15   H     H_    0.448159 0.520176 0.831919 0.146892
N1    N     N_2   0.346430 0.498660 0.500980 -0.021763
N2    N     N_2   0.652550 0.498630 0.501000 -0.258491
O1    O     O_R   0.117050 0.321960 0.499980 -0.593714
O2    O     O_R   0.882890 0.321920 0.500020 -0.575898
O3    O     O_R   0.052910 0.500040 0.629810 -0.589856
O4    O     O_R   0.818750 0.499990 0.629840 -0.573863
O5    O     O_R   0.117110 0.678080 0.499980 -0.585073
O6    O     O_R   0.882950 0.678040 0.500020 -0.572629
O7    O     O_R   0.181250 0.500010 0.370160 -0.598174
O8    O     O_R   0.947090 0.499960 0.370190 -0.551299
O9    O     O_3   0.419533 0.601176 0.468697 -0.669725
H16   H     H_    0.367115 0.638840 0.429930 0.365219
N3    N     N_2   0.878451 0.530601 0.220756 -0.412889
H17   H     H_    0.815178 0.490525 0.185694 0.248390
C29   C     C_3   0.833248 0.654135 0.248475 -0.660021
H18   H     H_    0.860310 0.717178 0.190168 0.202554
H19   H     H_    0.886828 0.688607 0.297537 0.242985
H20   H     H_    0.715443 0.655368 0.280379 0.222140
N4    N     N_2   0.669192 0.377581 0.786842 -0.436770
H21   H     H_    0.596192 0.395356 0.752468 0.243979
C30   C     C_3   0.643371 0.268326 0.841693 -0.673380
H22   H     H_    0.621483 0.190364 0.802036 0.225213
H23   H     H_    0.549128 0.280419 0.901142 0.233584
H24   H     H_    0.739381 0.246082 0.863556 0.235325

loop_
_geom_bond_atom_site_label_1
_geom_bond_atom_site_label_2
_ccdc_geom_bond_type
C8    C9    A    
C30   H23   S    
Cu2   O4    S    
C1    O1    A    
C23   O8    A    
Cu1   Cu2   S    
C16   H3    S    
C9    C10   A    
C12   C24   S    
C13   H2    S    
C12   O3    A    
C17   C22   S    
C24   C27   A    
Cu1   N1    S    
C4    C8    A    
Cu1   O7    S    
C10   C11   A    
N4    H21   S    
C2    C3    A    
C16   C18   S    
C6    H14   S    
C13   C14   A    
C20   C21   S    
C20   H7    S    
C26   C27   A    
C6    C7    A    
C11   C15   A    
Cu1   O3    S    
C29   H20   S    
C2    C4    A    
C28   N4    S    
C22   O5    A    
Cu2   O2    S    
C5    C11   A    
C22   O6    A    
C3    C7    A    
C19   H6    S    
C23   C25   S    
C14   C25   A    
C5    C6    A    
C14   N3    S    
Cu2   O6    S    
C20   N1    D    
C15   H10   S    
C15   C25   A    
C30   H24   S    
C7    H1    S    
C17   H4    S    
Cu1   O1    S    
N3    C29   S    
C27   H13   S    
Cu2   N2    S    
C12   O4    A    
C30   H22   S    
O9    H16   S    
C26   H12   S    
C23   O7    A    
C29   H19   S    
C18   C19   D    
C18   H5    S    
N1    O9    S    
C8    H15   S    
C4    C5    A    
C2    C28   A    
N3    H17   S    
C1    C19   S    
C9    H11   S    
Cu2   O8    S    
Cu1   O5    S    
C3    C26   A    
H9    N2    S    
C21   H8    S    
C24   C28   A    
C16   C17   D    
N4    C30   S    
C29   H18   S    
C21   N2    D    
C10   C13   A    
C1    O2    A    
