data_mof_unit_36821.cif
_audit_creation_date              2012-10-26T20:51:11-0400
_audit_creation_method            fapswitch 2.2
_symmetry_space_group_name_H-M    P1
_symmetry_Int_Tables_number       1
_space_group_crystal_system       triclinic
_cell_length_a                    12.973828
_cell_length_b                    10.82989
_cell_length_c                    9.541164
_cell_angle_alpha                 90.27635
_cell_angle_beta                  96.062673
_cell_angle_gamma                 90.275626
_cell_volume                      1333.04997668

loop_
_atom_site_label
_atom_site_type_symbol
_atom_type_description
_atom_site_fract_x
_atom_site_fract_y
_atom_site_fract_z
_atom_type_partial_charge
C1    C     C_R   0.498173 0.262337 0.499337 0.551306
C2    C     C_R   0.484469 0.934945 0.369103 -0.154075
C3    C     C_R   0.487184 0.870840 0.497466 -0.004283
C4    C     C_R   0.300673 0.500682 0.473802 0.545368
C5    C     C_R   0.474209 0.937331 0.620240 0.027942
C6    C     C_3   0.532333 0.932553 0.764122 -0.126840
C7    C     C_3   0.534293 0.073173 0.762398 -0.256209
C8    C     C_R   0.550746 0.590747 0.081349 0.186981
C9    C     C_R   0.442043 0.417376 0.065676 -0.007223
C10   C     C_R   0.442054 0.417341 0.916737 -0.002684
C11   C     C_R   0.550540 0.590913 0.933976 0.188281
C12   C     C_R   0.027753 0.465000 0.558500 0.034498
C13   C     C_3   0.663236 0.621173 0.943945 -0.278299
C14   C     C_3   0.663795 0.619466 0.102863 -0.284336
C15   C     C_R   0.497937 0.737748 0.499872 0.545595
C16   C     C_R   0.699414 0.496143 0.526462 0.545424
C17   C     C_R   0.812311 0.486309 0.542343 -0.012358
C18   C     C_R   0.188212 0.504941 0.459222 0.006563
C19   C     C_R   0.026787 0.574324 0.335532 -0.128894
C20   C     C_R   0.133970 0.562632 0.342830 -0.130245
C21   C     C_R   0.135000 0.455599 0.566184 -0.121329
C22   C     C_1   0.814241 0.357577 0.760314 0.196999
C23   C     C_R   0.973378 0.526380 0.443413 0.046679
C24   C     C_1   0.467885 0.882638 0.868715 0.205916
C25   C     C_R   0.866476 0.538389 0.437665 -0.139885
C26   C     C_R   0.866622 0.421824 0.655659 -0.024025
C27   C     C_R   0.974268 0.413401 0.663855 -0.136276
C28   C     C_R   0.475464 0.064532 0.619455 -0.001349
C29   C     C_R   0.487713 0.129314 0.496360 0.005849
C30   C     C_R   0.484502 0.063651 0.368523 -0.154597
Cu1   Cu    Cu3+1 0.499990 0.499980 0.640670 0.968329
Cu2   Cu    Cu3+1 0.500010 0.500020 0.359330 0.950097
H1    H     H_    0.609942 0.889309 0.765978 0.107842
H2    H     H_    0.487640 0.110942 0.269269 0.139976
H3    H     H_    0.487835 0.886461 0.270140 0.160303
H4    H     H_    0.825340 0.588610 0.351411 0.109317
H5    H     H_    0.396744 0.348985 0.114696 0.114963
H6    H     H_    0.396726 0.348948 0.853998 0.110932
H7    H     H_    0.710267 0.546179 0.903833 0.174667
H8    H     H_    0.709962 0.541849 0.151802 0.156000
H9    H     H_    0.488165 0.118532 0.839883 0.137619
H10   H     H_    0.613472 0.112100 0.759209 0.158533
H11   H     H_    0.678165 0.714309 0.902165 0.117228
H12   H     H_    0.679914 0.711347 0.153069 0.124840
H13   H     H_    0.985822 0.620895 0.246172 0.109815
H14   H     H_    0.016184 0.364400 0.750857 0.110907
H15   H     H_    0.174702 0.601547 0.259824 0.136026
H16   H     H_    0.177154 0.409671 0.655270 0.114858
N1    N     N_R   0.500660 0.500930 0.148010 -0.232529
N2    N     N_R   0.500660 0.500890 0.852110 -0.227986
N3    N     N_1   0.772475 0.305755 0.844052 -0.322325
N4    N     N_1   0.416948 0.843895 0.951004 -0.318026
O1    O     O_R   0.500000 0.319640 0.618810 -0.501923
O2    O     O_R   0.500010 0.319680 0.381230 -0.512668
O3    O     O_R   0.348990 0.499960 0.599490 -0.503909
O4    O     O_R   0.349000 0.500000 0.361910 -0.504848
O5    O     O_R   0.499990 0.680320 0.618770 -0.494001
O6    O     O_R   0.500000 0.680360 0.381190 -0.503718
O7    O     O_R   0.651000 0.500000 0.638090 -0.497020
O8    O     O_R   0.651010 0.500040 0.400510 -0.507795

loop_
_geom_bond_atom_site_label_1
_geom_bond_atom_site_label_2
_ccdc_geom_bond_type
C2    H3    S    
C24   N4    T    
C19   C23   A    
C1    O2    A    
C19   H13   S    
C6    C7    S    
C5    C28   A    
C11   C13   S    
C9    C10   A    
C19   C20   A    
C6    H1    S    
Cu2   O6    S    
C10   H6    S    
C21   H16   S    
C6    C24   S    
Cu1   O5    S    
C9    H5    S    
C2    C3    A    
C4    C18   S    
C11   N2    A    
C13   C14   S    
Cu1   O1    S    
C15   O5    A    
C12   C23   A    
C26   C27   A    
C29   C30   A    
C8    C11   A    
C17   C26   A    
C8    N1    A    
C27   H14   S    
Cu2   O2    S    
C28   C29   A    
C18   C20   A    
C7    H9    S    
C4    O3    A    
C16   O8    A    
C5    C6    S    
C15   O6    A    
C8    C14   S    
Cu2   N1    S    
C13   H7    S    
C20   H15   S    
C16   C17   S    
C2    C30   A    
C30   H2    S    
Cu1   N2    S    
C14   H8    S    
C18   C21   A    
C13   H11   S    
C23   C25   A    
C9    N1    A    
C14   H12   S    
C22   C26   S    
C7    H10   S    
Cu1   O7    S    
Cu2   O8    S    
C12   C27   A    
C22   N3    T    
C3    C15   S    
C1    O1    A    
C1    C29   S    
Cu1   O3    S    
C25   H4    S    
C12   C21   A    
Cu2   O4    S    
C4    O4    A    
C7    C28   S    
Cu1   Cu2   S    
C17   C25   A    
C3    C5    A    
C16   O7    A    
C10   N2    A    
