data_mof_unit_59301.cif
_audit_creation_date              2012-12-10T17:42:41-0500
_audit_creation_method            fapswitch 2.2
_symmetry_space_group_name_H-M    P1
_symmetry_Int_Tables_number       1
_space_group_crystal_system       triclinic
_cell_length_a                    9.943031
_cell_length_b                    10.689405
_cell_length_c                    13.08772
_cell_angle_alpha                 93.413898
_cell_angle_beta                  69.360361
_cell_angle_gamma                 90.559096
_cell_volume                      1299.34345746

loop_
_atom_site_label
_atom_site_type_symbol
_atom_type_description
_atom_site_fract_x
_atom_site_fract_y
_atom_site_fract_z
_atom_type_partial_charge
C1    C     C_R   0.497331 0.741359 0.504757 0.901704
C2    C     C_R   0.436002 0.460411 0.981848 0.100635
C3    C     C_R   0.467887 0.430943 0.869801 0.066600
C4    C     C_R   0.548821 0.455093 0.023730 0.046766
C5    C     C_R   0.684692 0.400623 0.959261 0.108980
C6    C     C_R   0.707968 0.354592 0.851376 0.015727
C7    C     C_R   0.597707 0.366742 0.809193 -0.229594
C8    C     C_R   0.530474 0.506971 0.127803 -0.245964
C9    C     C_R   0.764853 0.432714 0.114597 -0.196209
C10   C     C_R   0.369805 0.469381 0.820878 -0.089032
C11   C     C_R   0.230975 0.899485 0.538699 -0.132055
C12   C     C_R   0.420208 0.489680 0.703530 0.909928
C13   C     C_R   0.122917 0.957615 0.512723 -0.176699
C14   C     C_R   0.157812 0.055139 0.442335 -0.179877
C15   C     C_R   0.297522 0.104312 0.407753 0.002816
C16   C     C_R   0.397116 0.059756 0.453620 0.028604
C17   C     C_R   0.373959 0.943218 0.499240 0.072686
C18   C     C_R   0.496449 0.876494 0.501180 -0.100061
C19   C     C_R   0.628610 0.937234 0.478128 -0.208791
C20   C     C_R   0.636267 0.063695 0.465214 -0.198746
C21   C     C_R   0.516874 0.126984 0.460092 -0.058185
C22   C     C_R   0.784352 0.622819 0.681502 0.044099
C23   C     C_R   0.506545 0.260676 0.484704 0.908927
C24   C     C_R   0.811197 0.641129 0.779341 -0.170684
C25   C     C_R   0.951464 0.642877 0.775747 -0.269830
C26   C     C_R   0.061434 0.612139 0.677713 -0.191009
C27   C     C_R   0.033080 0.555037 0.588251 0.168763
C28   C     C_R   0.888934 0.558478 0.588445 0.048716
C29   C     C_R   0.967562 0.448771 0.414480 -0.111898
C30   C     C_R   0.110554 0.451126 0.413787 -0.104017
C31   C     C_R   0.580646 0.500622 0.295378 0.908087
C32   C     C_R   0.793078 0.392977 0.005481 -0.184257
C33   C     C_R   0.631250 0.486789 0.176431 -0.064890
C34   C     C_R   0.228807 0.503520 0.886869 -0.192599
C35   C     C_R   0.189132 0.511261 0.999982 -0.143916
C36   C     C_R   0.292218 0.493825 0.047465 -0.145505
H1    H     H_    0.844359 0.416333 0.151560 0.154319
H2    H     H_    0.200119 0.824007 0.592489 0.150475
H3    H     H_    0.014147 0.922165 0.542145 0.135971
H4    H     H_    0.076949 0.089849 0.412677 0.170207
H5    H     H_    0.734451 0.111810 0.461421 0.168796
H6    H     H_    0.946273 0.406755 0.344500 0.149194
H7    H     H_    0.729234 0.681361 0.852693 0.185041
H8    H     H_    0.975528 0.680339 0.845989 0.169091
H9    H     H_    0.166112 0.641409 0.672019 0.199026
H10   H     H_    0.196329 0.414671 0.342062 0.184844
H11   H     H_    0.897455 0.351415 0.959512 0.153263
H12   H     H_    0.434530 0.559876 0.174932 0.155553
H13   H     H_    0.150457 0.527052 0.851113 0.157920
H14   H     H_    0.255691 0.503361 0.135665 0.128240
H15   H     H_    0.079742 0.536580 0.050860 0.141506
H16   H     H_    0.614209 0.325433 0.728150 0.179140
H17   H     H_    0.726241 0.888460 0.471232 0.155000
N1    N     N_R   0.856860 0.501200 0.500990 -0.124170
N2    N     N_R   0.142450 0.501280 0.501020 -0.119656
O1    O     O_R   0.385310 0.683220 0.500000 -0.638510
O2    O     O_R   0.614640 0.683250 0.500010 -0.630723
O3    O     O_R   0.328400 0.499950 0.653610 -0.638387
O4    O     O_R   0.557730 0.499970 0.653620 -0.601569
O5    O     O_R   0.385360 0.316750 0.499990 -0.614902
O6    O     O_R   0.614690 0.316780 0.500000 -0.633651
O7    O     O_R   0.442270 0.500030 0.346380 -0.614840
O8    O     O_R   0.671600 0.500050 0.346390 -0.621291
Zn1   Zn    Zn3+2 0.346880 0.499980 0.499990 0.946722
Zn2   Zn    Zn3+2 0.653120 0.500020 0.500010 0.946451
C37   C     C_2   0.346301 0.177902 0.308277 0.898818
O9    O     O_2   0.262603 0.201347 0.261835 -0.668430
O10   O     O_R   0.490851 0.209841 0.260949 -0.822469
H18   H     H_    0.512193 0.248939 0.188262 0.349633
C38   C     C_2   0.694759 0.724583 0.669361 0.490644
H19   H     H_    0.741651 0.787142 0.604709 0.025169
O11   O     O_2   0.574357 0.746867 0.736509 -0.597983
C39   C     C_2   0.849976 0.300614 0.780574 0.019418
H20   H     H_    0.874132 0.275453 0.694462 -0.037877
O12   O     O_2   0.877301 0.272178 0.683213 0.010796

loop_
_geom_bond_atom_site_label_1
_geom_bond_atom_site_label_2
_ccdc_geom_bond_type
C37   O10   S    
O8    Zn2   S    
C16   C21   A    
C29   H6    S    
C39   H20   S    
C35   C36   A    
C4    C8    A    
C20   H5    S    
N1    Zn2   S    
C1    C18   S    
C1    O1    A    
C7    H16   S    
C18   C19   A    
C3    C7    A    
C5    C6    A    
C27   N2    A    
C29   N1    A    
C15   C16   A    
C34   C35   A    
O7    Zn1   S    
C9    C32   A    
C12   O4    A    
C19   C20   A    
C16   C17   A    
O1    Zn1   S    
C38   H19   S    
C26   H9    S    
C5    C32   A    
C12   O3    A    
C19   H17   S    
C37   O9    D    
C22   C28   A    
C13   C14   A    
C9    C33   A    
C39   O12   D    
C31   O7    A    
C25   H8    S    
O3    Zn1   S    
C23   O5    A    
C31   C33   S    
C31   O8    A    
C24   C25   A    
C28   N1    A    
O10   H18   S    
C25   C26   A    
C15   C37   S    
C11   H2    S    
C2    C4    A    
C8    H12   S    
C29   C30   A    
C1    O2    A    
N2    Zn1   S    
C9    H1    S    
C17   C18   A    
C26   C27   A    
C10   C34   A    
C10   C12   S    
C21   C23   S    
C35   H15   S    
C32   H11   S    
C22   C24   A    
C36   H14   S    
C6    C39   S    
C2    C36   A    
C11   C17   A    
C34   H13   S    
C30   H10   S    
O2    Zn2   S    
C4    C5    A    
C6    C7    A    
C30   N2    A    
O5    Zn1   S    
C2    C3    A    
C3    C10   A    
O4    Zn2   S    
C11   C13   A    
C8    C33   A    
C13   H3    S    
C14   H4    S    
O6    Zn2   S    
C23   O6    A    
C20   C21   A    
C27   C28   A    
C24   H7    S    
C14   C15   A    
C38   O11   D    
C22   C38   S    
