data_mof_unit_26099.cif
_audit_creation_date              2012-12-10T17:37:46-0500
_audit_creation_method            fapswitch 2.2
_symmetry_space_group_name_H-M    P1
_symmetry_Int_Tables_number       1
_space_group_crystal_system       triclinic
_cell_length_a                    12.34959
_cell_length_b                    13.219936
_cell_length_c                    16.927631
_cell_angle_alpha                 103.803587
_cell_angle_beta                  75.203587
_cell_angle_gamma                 116.541365
_cell_volume                      2365.49794033

loop_
_atom_site_label
_atom_site_type_symbol
_atom_type_description
_atom_site_fract_x
_atom_site_fract_y
_atom_site_fract_z
_atom_type_partial_charge
C1    C     C_R   0.143799 0.714439 0.513938 0.828601
C2    C     C_R   0.903349 0.354687 0.745949 -0.066074
C3    C     C_R   0.940935 0.501532 0.143833 -0.248499
C4    C     C_R   0.955780 0.535600 0.226178 0.274726
C5    C     C_R   0.106885 0.455671 0.197695 0.390086
C6    C     C_R   0.091105 0.421104 0.114540 0.380036
C7    C     C_R   0.003296 0.440361 0.088509 -0.047163
C8    C     C_2   0.885601 0.385244 0.975411 0.412219
C9    C     C_2   0.992642 0.418585 0.000784 -0.148547
C10   C     C_R   0.027639 0.500332 0.256463 -0.356053
C11   C     C_R   0.719909 0.973693 0.384247 0.211764
C12   C     C_R   0.983878 0.498036 0.652036 0.790684
C13   C     C_R   0.773632 0.164556 0.463079 -0.198993
C14   C     C_R   0.185190 0.914708 0.593501 0.434873
C15   C     C_R   0.268057 0.027344 0.612101 -0.126721
C16   C     C_R   0.389739 0.065492 0.573930 -0.246026
C17   C     C_R   0.432660 0.992638 0.512690 0.122753
C18   C     C_R   0.345565 0.882589 0.485474 0.038832
C19   C     C_R   0.559188 0.025232 0.477148 0.074554
C20   C     C_R   0.594750 0.948906 0.413836 -0.017101
C21   C     C_R   0.504341 0.850378 0.379213 -0.155679
C22   C     C_R   0.382118 0.818817 0.413544 -0.153962
C23   C     C_R   0.856105 0.286340 0.483787 0.848676
C24   C     C_R   0.651705 0.129609 0.503999 -0.281453
C25   C     C_R   0.808137 0.086579 0.399880 0.271813
C26   C     C_R   0.223622 0.839203 0.529535 -0.224429
C27   C     C_R   0.613463 0.630227 0.649150 0.366747
C28   C     C_R   0.263607 0.378158 0.376915 0.142081
C29   C     C_R   0.360948 0.345660 0.348187 -0.342060
C30   C     C_R   0.455481 0.382690 0.394456 0.490256
C31   C     C_R   0.449491 0.456049 0.470555 -0.039005
C32   C     C_R   0.336208 0.468721 0.502545 0.128471
C33   C     C_R   0.546091 0.512418 0.520041 -0.061247
C34   C     C_R   0.017132 0.502751 0.346705 0.880596
C35   C     C_R   0.522657 0.574987 0.598529 -0.016995
C36   C     C_R   0.403799 0.569638 0.629778 -0.284953
C37   C     C_R   0.308021 0.493532 0.588167 0.387637
C38   C     C_R   0.664677 0.511123 0.495979 0.144859
C39   C     C_R   0.726259 0.621850 0.621952 0.040015
C40   C     C_R   0.955771 0.469960 0.734817 0.012449
C41   C     C_R   0.972441 0.555699 0.803027 -0.161627
C42   C     C_R   0.942869 0.526579 0.881970 -0.188762
C43   C     C_R   0.895630 0.411602 0.893031 -0.013421
C44   C     C_R   0.874726 0.325519 0.824916 -0.138195
Cu1   Cu    Cu3+1 0.900140 0.524980 0.518800 1.036993
Cu2   Cu    Cu3+1 0.099860 0.475020 0.481200 1.048520
H1    H     H_    0.010451 0.644669 0.795095 0.177990
H2    H     H_    0.527031 0.797090 0.324466 0.171913
H3    H     H_    0.630931 0.188239 0.555060 0.167367
H4    H     H_    0.447208 0.153189 0.593531 0.167615
H5    H     H_    0.239861 0.086267 0.659284 0.239159
H6    H     H_    0.316569 0.743704 0.382697 0.147339
H7    H     H_    0.793162 0.658542 0.662380 0.199969
H8    H     H_    0.380647 0.601725 0.694028 0.208371
H9    H     H_    0.691328 0.467447 0.437857 0.213544
H10   H     H_    0.195672 0.350231 0.338414 0.260209
H11   H     H_    0.359077 0.289147 0.290284 0.162619
H12   H     H_    0.077276 0.450429 0.957160 0.109054
H13   H     H_    0.839913 0.236775 0.832726 0.148868
H14   H     H_    0.884330 0.527704 0.121250 0.190128
H15   H     H_    0.886901 0.287704 0.693341 0.151894
H16   H     H_    0.960240 0.593697 0.934468 0.147618
N1    N     N_R   0.749710 0.562810 0.547300 -0.228332
N2    N     N_R   0.249640 0.437820 0.453210 -0.220994
O1    O     O_R   0.025490 0.682370 0.523640 -0.476702
O2    O     O_R   0.194150 0.640180 0.491890 -0.614091
O3    O     O_R   0.905900 0.523560 0.631310 -0.590965
O4    O     O_R   0.074570 0.481370 0.599560 -0.546365
O5    O     O_R   0.805850 0.359820 0.508110 -0.615662
O6    O     O_R   0.974510 0.317630 0.476360 -0.488752
O7    O     O_R   0.925430 0.518630 0.400440 -0.552555
O8    O     O_R   0.094100 0.476440 0.368690 -0.542910
O9    O     O_3   0.150293 0.355269 0.063395 -0.523948
C45   C     C_3   0.249113 0.418980 0.006123 0.094228
H17   H     H_    0.276382 0.513177 0.020191 0.090289
H18   H     H_    0.223322 0.389228 0.943768 0.174160
C46   C     C_3   0.360053 0.394796 0.001891 -0.770674
H19   H     H_    0.336346 0.301986 0.982966 0.258985
H20   H     H_    0.437460 0.442333 0.955864 0.183923
H21   H     H_    0.389451 0.421397 0.062967 0.257057
S1    S     S_3+6 0.951546 0.133327 0.331826 0.056367
O10   O     O_2   0.050584 0.148382 0.375471 -0.215105
O11   O     O_2   0.953771 0.051421 0.253442 -0.205873
O12   O     O_3   0.979218 0.257515 0.304791 -0.550196
H22   H     H_    0.912543 0.239300 0.274395 0.323003
S2    S     S_3+6 0.764331 0.859501 0.337649 0.114385
O13   O     O_2   0.891253 0.889576 0.351556 -0.082777
O14   O     O_2   0.676905 0.753754 0.375692 -0.253209
O15   O     O_3   0.760836 0.833318 0.235758 -0.500076
H23   H     H_    0.720147 0.878601 0.227120 0.318073
S3    S     S_3+6 0.037316 0.874159 0.655073 0.008816
O16   O     O_2   0.945124 0.849460 0.602053 -0.239157
O17   O     O_2   0.007548 0.769788 0.691438 -0.369017
O18   O     O_3   0.031136 0.979326 0.732522 -0.521359
H24   H     H_    0.945081 0.949855 0.761938 0.381296
S4    S     S_3+6 0.904034 0.640997 0.281800 0.076884
O19   O     O_2   0.770957 0.585318 0.319065 -0.292356
O20   O     O_2   0.977859 0.713654 0.348635 -0.202462
O21   O     O_3   0.920731 0.725321 0.215305 -0.424294
H25   H     H_    0.847556 0.683982 0.188009 0.365925
O22   O     O_3   0.591646 0.692090 0.725226 -0.560799
C47   C     C_3   0.569120 0.627957 0.788084 0.032734
H26   H     H_    0.655047 0.623781 0.793250 0.148656
H27   H     H_    0.497348 0.539473 0.776470 0.131618
C48   C     C_3   0.523375 0.685910 0.870129 -0.739564
H28   H     H_    0.435739 0.688616 0.867553 0.245716
H29   H     H_    0.507427 0.637682 0.920440 0.187207
H30   H     H_    0.592702 0.774466 0.883856 0.260371
O23   O     O_3   0.536345 0.330008 0.376807 -0.594035
C49   C     C_3   0.577784 0.307093 0.291331 0.085937
H31   H     H_    0.604425 0.381659 0.259618 0.172062
H32   H     H_    0.506258 0.230015 0.262559 0.159979
C50   C     C_3   0.689438 0.280896 0.279396 -0.765729
H33   H     H_    0.663808 0.202911 0.306559 0.238717
H34   H     H_    0.725966 0.266805 0.212511 0.230189
H35   H     H_    0.762095 0.353222 0.310207 0.249802
S5    S     S_3+6 0.213202 0.372945 0.639389 0.024674
O24   O     O_2   0.168199 0.410088 0.727774 -0.330919
O25   O     O_2   0.106111 0.293227 0.596802 -0.212470
O26   O     O_3   0.297681 0.301635 0.637660 -0.527587
H36   H     H_    0.354873 0.350017 0.676855 0.327812
O27   O     O_3   0.204452 0.450352 0.219801 -0.517851
C51   C     C_3   0.305453 0.557972 0.213662 0.059611
H37   H     H_    0.283303 0.627490 0.255620 0.128591
H38   H     H_    0.331773 0.578351 0.149627 0.132203
C52   C     C_3   0.416812 0.557556 0.236414 -0.770072
H39   H     H_    0.427751 0.477201 0.207498 0.245740
H40   H     H_    0.501081 0.630676 0.214247 0.221126
H41   H     H_    0.406846 0.566936 0.304429 0.244525
O28   O     O_3   0.775400 0.339183 0.029729 -0.576158
C53   C     C_3   0.671378 0.320675 0.998617 0.071421
H42   H     H_    0.658137 0.253067 0.943823 0.153533
H43   H     H_    0.679748 0.400993 0.982346 0.145987
C54   C     C_3   0.558276 0.280432 0.064910 -0.784550
H44   H     H_    0.564147 0.349877 0.117860 0.227134
H45   H     H_    0.474440 0.256695 0.039417 0.216321
H46   H     H_    0.551280 0.204579 0.086800 0.257575

loop_
_geom_bond_atom_site_label_1
_geom_bond_atom_site_label_2
_ccdc_geom_bond_type
C52   H39   S    
Cu1   O7    S    
C41   C42   A    
C23   O5    A    
C35   C36   A    
C18   C26   A    
C8    C43   S    
C53   C54   S    
C54   H46   S    
C38   N1    A    
S1    O10   D    
C28   H10   S    
C51   H37   S    
C39   H7    S    
C46   H19   S    
C48   H29   S    
O22   C47   S    
C45   H18   S    
C36   C37   A    
C16   H4    S    
Cu2   O2    S    
C3    C7    A    
S5    O25   D    
C5    C6    A    
S2    O14   D    
C51   H38   S    
C11   C25   A    
C44   H13   S    
C15   C16   A    
S4    O21   S    
C13   C23   S    
C47   C48   S    
C9    H12   S    
O9    C45   S    
C49   H31   S    
C17   C19   A    
C4    S4    S    
C38   H9    S    
C19   C20   A    
C2    C44   A    
C8    C9    D    
C45   C46   S    
S4    O20   D    
Cu1   O3    S    
C1    O1    A    
C31   C33   A    
C15   H5    S    
C42   H16   S    
Cu2   O8    S    
C2    H15   S    
C50   H35   S    
C3    H14   S    
C21   C22   A    
C25   S1    S    
C23   O6    A    
C13   C25   A    
O18   H24   S    
S1    O11   D    
C17   C18   A    
C46   H20   S    
C12   O3    A    
C11   C20   A    
C45   H17   S    
C30   O23   S    
Cu1   O5    S    
O12   H22   S    
C32   N2    A    
S5    O26   S    
C27   C39   A    
S3    O16   D    
S2    O13   D    
C16   C17   A    
C51   C52   S    
C54   H45   S    
C52   H41   S    
C27   C35   A    
Cu1   Cu2   S    
C5    O27   S    
C27   O22   S    
C13   C24   A    
Cu2   N2    S    
C12   C40   S    
C43   C44   A    
Cu2   O4    S    
C29   C30   A    
S3    O17   D    
C12   O4    A    
O21   H25   S    
S4    O19   D    
C1    O2    A    
C41   H1    S    
C10   C34   S    
C32   C37   A    
C14   C26   A    
C47   H27   S    
C49   C50   S    
C54   H44   S    
C28   N2    A    
C40   C41   A    
C29   H11   S    
Cu1   O1    S    
C1    C26   S    
C42   C43   A    
C4    C10   A    
C3    C4    A    
C34   O8    A    
S1    O12   S    
O26   H36   S    
C6    O9    S    
C22   H6    S    
C50   H33   S    
C46   H21   S    
C24   H3    S    
C7    C9    S    
C28   C29   A    
C52   H40   S    
C18   C22   A    
C31   C32   A    
C53   H43   S    
S2    O15   S    
C6    C7    A    
C39   N1    A    
C48   H28   S    
C33   C38   A    
C21   H2    S    
O28   C53   S    
O15   H23   S    
C5    C10   A    
S5    O24   D    
S3    O18   S    
C8    O28   S    
C30   C31   A    
C33   C35   A    
Cu1   N1    S    
C19   C24   A    
C47   H26   S    
C49   H32   S    
C14   S3    S    
Cu2   O6    S    
C36   H8    S    
C2    C40   A    
C37   S5    S    
C20   C21   A    
C48   H30   S    
C14   C15   A    
C11   S2    S    
O27   C51   S    
O23   C49   S    
C34   O7    A    
C53   H42   S    
C50   H34   S    
