data_mof_unit_60321.cif
_audit_creation_date              2012-10-26T20:08:36-0400
_audit_creation_method            fapswitch 2.2
_symmetry_space_group_name_H-M    P1
_symmetry_Int_Tables_number       1
_space_group_crystal_system       orthorhombic
_cell_length_a                    15.974156
_cell_length_b                    14.43294
_cell_length_c                    13.145298
_cell_angle_alpha                 90.0
_cell_angle_beta                  90.0
_cell_angle_gamma                 90.0
_cell_volume                      3030.70149647

loop_
_atom_site_label
_atom_site_type_symbol
_atom_type_description
_atom_site_fract_x
_atom_site_fract_y
_atom_site_fract_z
_atom_type_partial_charge
C1    C     C_R   0.500000 0.328701 0.500000 0.569180
C2    C     C_1   0.500000 0.500025 0.949319 -0.024694
C3    C     C_R   0.338075 0.500151 0.500000 0.564808
C4    C     C_R   0.661925 0.500151 0.500000 0.564808
C5    C     C_R   0.500000 0.671302 0.500000 0.547342
C6    C     C_3   0.048634 0.444760 0.594176 0.357336
C7    C     C_3   0.048634 0.451959 0.401233 0.357316
C8    C     C_3   0.951366 0.444760 0.594176 0.357337
C9    C     C_3   0.951366 0.451959 0.401233 0.357316
C10   C     C_1   0.751012 0.499601 0.499995 0.015702
C11   C     C_1   0.248987 0.499601 0.499995 0.015702
C12   C     C_1   0.500000 0.142310 0.500000 -0.005773
C13   C     C_3   0.082305 0.498032 0.499938 -0.015019
C14   C     C_3   0.917695 0.498032 0.499938 -0.015019
C15   C     C_3   0.951502 0.598672 0.504465 -0.396798
C16   C     C_3   0.048498 0.598672 0.504465 -0.396798
C17   C     C_1   0.826084 0.498964 0.499977 0.028921
C18   C     C_1   0.173916 0.498964 0.499977 0.028921
C19   C     C_1   0.500000 0.227122 0.500000 -0.009026
C20   C     C_1   0.500000 0.042407 0.500000 0.030058
C21   C     C_1   0.500000 0.957597 0.500000 0.024215
C22   C     C_1   0.500000 0.857694 0.500000 -0.023797
C23   C     C_1   0.500000 0.772882 0.500000 -0.033543
C24   C     C_1   0.500000 0.500023 0.173627 0.144770
C25   C     C_1   0.500000 0.500023 0.826373 0.143938
C26   C     C_1   0.500000 0.500024 0.050681 -0.024400
Cu1   Cu    Cu3+1 0.500000 0.499990 0.592680 1.018429
Cu2   Cu    Cu3+1 0.500000 0.499990 0.407320 1.020269
F1    F     F_    0.920918 0.354738 0.595541 -0.485597
F2    F     F_    0.920918 0.362340 0.391788 -0.485577
F3    F     F_    0.079082 0.354737 0.595541 -0.485597
F4    F     F_    0.079082 0.362340 0.391788 -0.485577
H1    H     H_    0.071146 0.491782 0.334049 0.067784
H2    H     H_    0.071147 0.479444 0.664710 0.068284
H3    H     H_    0.928853 0.491782 0.334049 0.067784
H4    H     H_    0.928853 0.479444 0.664710 0.068284
H5    H     H_    0.071735 0.633902 0.574310 0.151465
H6    H     H_    0.071735 0.638987 0.438019 0.151671
H7    H     H_    0.928265 0.633902 0.574310 0.151465
H8    H     H_    0.928265 0.638987 0.438019 0.151671
N1    N     N_1   0.500000 0.500020 0.268070 -0.160605
N2    N     N_1   0.500000 0.500020 0.731930 -0.160906
O1    O     O_R   0.500000 0.376050 0.578280 -0.467811
O2    O     O_R   0.500000 0.376050 0.421720 -0.467351
O3    O     O_R   0.379430 0.500000 0.578300 -0.482316
O4    O     O_R   0.379430 0.500000 0.421700 -0.481181
O5    O     O_R   0.620570 0.500000 0.578300 -0.482315
O6    O     O_R   0.620570 0.500000 0.421700 -0.481180
O7    O     O_R   0.500000 0.623940 0.578240 -0.476902
O8    O     O_R   0.500000 0.623940 0.421760 -0.476997

loop_
_geom_bond_atom_site_label_1
_geom_bond_atom_site_label_2
_ccdc_geom_bond_type
C25   N2    T    
Cu2   O2    S    
C9    C14   S    
C11   C18   T    
C1    O2    A    
Cu1   N2    S    
C16   H5    S    
Cu2   O4    S    
C12   C20   S    
C6    F3    S    
C3    O3    A    
C2    C26   T    
C21   C22   S    
C6    C13   S    
C24   N1    T    
C7    H1    S    
C14   C17   S    
C15   H7    S    
C6    H2    S    
C9    F2    S    
C6    C8    S    
C8    F1    S    
C13   C18   S    
C12   C19   T    
C24   C26   S    
C2    C25   S    
C8    H4    S    
C5    O8    A    
C15   H8    S    
C5    O7    A    
C1    C19   S    
Cu1   O3    S    
C10   C17   T    
C4    C10   S    
C15   C16   S    
Cu1   O1    S    
Cu2   N1    S    
C7    C13   S    
C3    C11   S    
C20   C21   T    
C7    C9    S    
C4    O6    A    
C13   C16   S    
Cu1   O5    S    
Cu1   Cu2   S    
C9    H3    S    
C14   C15   S    
Cu2   O6    S    
C8    C14   S    
C7    F4    S    
C3    O4    A    
C22   C23   T    
Cu2   O8    S    
C1    O1    A    
Cu1   O7    S    
C16   H6    S    
C4    O5    A    
C5    C23   S    
