data_mof_unit_27617.cif
_audit_creation_date              2012-12-11T15:36:39-0500
_audit_creation_method            fapswitch 2.2
_symmetry_space_group_name_H-M    P1
_symmetry_Int_Tables_number       1
_space_group_crystal_system       triclinic
_cell_length_a                    15.06404
_cell_length_b                    15.074994
_cell_length_c                    34.843095
_cell_angle_alpha                 91.262633
_cell_angle_beta                  91.72519
_cell_angle_gamma                 60.121454
_cell_volume                      6857.48642395

loop_
_atom_site_label
_atom_site_type_symbol
_atom_type_description
_atom_site_fract_x
_atom_site_fract_y
_atom_site_fract_z
_atom_type_partial_charge
C1    C     C_R   0.610757 0.302571 0.444075 0.542692
C2    C     C_R   0.742742 0.687520 0.182942 0.030714
C3    C     C_R   0.612940 0.149047 0.830474 0.031809
C4    C     C_R   0.682161 0.169755 0.851150 -0.115538
C5    C     C_R   0.711904 0.135139 0.888563 -0.123891
C6    C     C_R   0.592217 0.258364 0.774211 -0.116993
C7    C     C_R   0.596066 0.269399 0.734826 -0.116054
C8    C     C_R   0.603151 0.193033 0.709269 0.029987
C9    C     C_R   0.600978 0.107873 0.723459 -0.103624
C10   C     C_R   0.598400 0.096112 0.763002 -0.107841
C11   C     C_R   0.596761 0.170043 0.788801 0.028845
C12   C     C_R   0.548625 0.195249 0.640754 -0.119220
C13   C     C_R   0.827588 0.620980 0.161085 -0.123824
C14   C     C_R   0.550709 0.219481 0.602455 -0.122247
C15   C     C_R   0.692591 0.248099 0.617763 -0.118729
C16   C     C_R   0.689484 0.225298 0.656055 -0.106478
C17   C     C_R   0.615235 0.202231 0.668026 0.032400
C18   C     C_R   0.620337 0.249726 0.590925 0.022829
C19   C     C_R   0.045280 0.739218 0.048646 0.540546
C20   C     C_R   0.747427 0.746754 0.064113 0.543848
C21   C     C_R   0.751355 0.040182 0.050717 0.541262
C22   C     C_R   0.016977 0.722481 0.939750 0.544682
C23   C     C_R   0.717210 0.730085 0.954927 0.541724
C24   C     C_R   0.826920 0.635898 0.121643 -0.127486
C25   C     C_R   0.721426 0.024429 0.942079 0.542580
C26   C     C_R   0.776723 0.582584 0.241637 -0.115603
C27   C     C_R   0.767585 0.575857 0.281027 -0.111915
C28   C     C_R   0.727393 0.664196 0.304342 0.030291
C29   C     C_R   0.701762 0.758375 0.287879 -0.116724
C30   C     C_R   0.710303 0.765140 0.248486 -0.117653
C31   C     C_R   0.745098 0.677790 0.224961 0.026398
C32   C     C_R   0.606445 0.734105 0.358696 -0.118208
C33   C     C_R   0.593379 0.610189 0.449421 0.545022
C34   C     C_R   0.573613 0.721208 0.394038 -0.124652
C35   C     C_R   0.733189 0.562010 0.402813 -0.122487
C36   C     C_R   0.766141 0.575120 0.367512 -0.116858
C37   C     C_R   0.701601 0.659478 0.344542 0.031555
C38   C     C_R   0.635159 0.633190 0.415771 0.020982
C39   C     C_R   0.101011 0.729379 0.085287 0.021464
C40   C     C_R   0.145365 0.636194 0.105069 -0.125880
C41   C     C_R   0.167203 0.633309 0.144265 -0.122343
C42   C     C_R   0.146561 0.723084 0.164206 0.029721
C43   C     C_R   0.113096 0.813932 0.143861 -0.122113
C44   C     C_R   0.303884 0.591447 0.442320 0.564479
C45   C     C_R   0.090279 0.817165 0.104540 -0.127892
C46   C     C_R   0.207599 0.757210 0.227363 -0.118511
C47   C     C_R   0.215028 0.749401 0.267361 -0.109837
C48   C     C_R   0.162842 0.708938 0.286955 0.032277
C49   C     C_R   0.099794 0.680602 0.265879 -0.117950
C50   C     C_R   0.093607 0.687080 0.225992 -0.115683
C51   C     C_R   0.149177 0.723287 0.206444 0.025430
C52   C     C_R   0.194719 0.595072 0.342899 -0.081419
C53   C     C_R   0.227344 0.566440 0.380775 0.373554
C54   C     C_R   0.229107 0.725022 0.391527 -0.186675
C55   C     C_R   0.605519 0.300657 0.553760 0.540221
C56   C     C_R   0.195978 0.753564 0.353648 -0.146331
C57   C     C_R   0.181851 0.687275 0.328585 -0.026557
C58   C     C_R   0.248732 0.629596 0.405158 0.027440
C59   C     C_R   0.725166 0.096956 0.087331 0.023875
C60   C     C_R   0.801074 0.104666 0.109102 -0.126314
C61   C     C_R   0.786062 0.131895 0.147836 -0.122847
C62   C     C_R   0.694641 0.152815 0.165171 0.031385
C63   C     C_R   0.615259 0.154384 0.142557 -0.119773
C64   C     C_R   0.630468 0.126484 0.103920 -0.125319
C65   C     C_R   0.594942 0.238382 0.223803 -0.117069
C66   C     C_R   0.587457 0.606384 0.559105 0.541969
C67   C     C_R   0.585434 0.244622 0.263559 -0.113562
C68   C     C_R   0.666307 0.175140 0.287367 0.027622
C69   C     C_R   0.756677 0.099007 0.270715 -0.118497
C70   C     C_R   0.766279 0.092973 0.230960 -0.115685
C71   C     C_R   0.685654 0.162915 0.207215 0.028337
C72   C     C_R   0.740445 0.182701 0.351426 -0.118629
C73   C     C_R   0.727412 0.212444 0.389907 -0.123615
C74   C     C_R   0.553133 0.243980 0.385920 -0.117941
C75   C     C_R   0.566228 0.214239 0.347396 -0.118792
C76   C     C_R   0.658578 0.187473 0.329456 0.027401
C77   C     C_R   0.297948 0.589173 0.551678 0.543323
C78   C     C_R   0.632192 0.247688 0.407019 0.015871
C79   C     C_R   0.691684 0.689721 0.919908 0.020895
C80   C     C_R   0.765811 0.597095 0.903424 -0.127263
C81   C     C_R   0.753633 0.572285 0.865554 -0.123250
C82   C     C_R   0.667211 0.639630 0.843526 0.031908
C83   C     C_R   0.588722 0.727265 0.861205 -0.120020
C84   C     C_R   0.600681 0.751911 0.899096 -0.127462
C85   C     C_R   0.571583 0.651180 0.782012 -0.119281
C86   C     C_R   0.566505 0.650665 0.741984 -0.117973
C87   C     C_R   0.653969 0.624339 0.720603 0.027407
C88   C     C_R   0.741082 0.717269 0.103548 0.021411
C89   C     C_R   0.747376 0.595285 0.739884 -0.113263
C90   C     C_R   0.752367 0.596431 0.779931 -0.111750
C91   C     C_R   0.664164 0.625812 0.801405 0.028640
C92   C     C_R   0.719015 0.544728 0.656377 -0.121512
C93   C     C_R   0.704460 0.541731 0.616709 -0.126686
C94   C     C_R   0.550437 0.707640 0.619958 -0.125411
C95   C     C_R   0.564722 0.710246 0.659583 -0.121309
C96   C     C_R   0.647018 0.627225 0.678265 0.031237
C97   C     C_R   0.617782 0.621420 0.598328 0.021875
C98   C     C_R   0.065724 0.698885 0.902226 0.022916
C99   C     C_R   0.654099 0.779770 0.125225 -0.124140
C100  C     C_R   0.088847 0.768521 0.885383 -0.124799
C101  C     C_R   0.115703 0.757422 0.847021 -0.121385
C102  C     C_R   0.119672 0.676682 0.824950 0.035174
C103  C     C_R   0.103648 0.603013 0.842462 -0.116371
C104  C     C_R   0.077088 0.613883 0.880903 -0.126881
C105  C     C_R   0.195752 0.580658 0.764506 -0.142091
C106  C     C_R   0.204590 0.577660 0.724837 -0.181154
C107  C     C_R   0.150563 0.667547 0.703306 0.031611
C108  C     C_R   0.087233 0.760777 0.721914 0.381540
C109  C     C_R   0.078206 0.763593 0.761647 -0.077747
C110  C     C_R   0.655126 0.765220 0.164563 -0.120221
C111  C     C_R   0.132641 0.673647 0.783210 -0.029768
C112  C     C_R   0.199184 0.725540 0.645485 -0.072034
C113  C     C_R   0.234627 0.706910 0.608082 -0.135683
C114  C     C_R   0.196522 0.568576 0.602101 -0.124669
C115  C     C_R   0.161174 0.587259 0.639455 -0.124905
C116  C     C_R   0.166257 0.663023 0.661825 0.068991
C117  C     C_R   0.237960 0.625145 0.586770 0.020790
C118  C     C_R   0.673160 0.079025 0.906151 0.021413
C119  C     C_R   0.598415 0.064423 0.886609 -0.128500
C120  C     C_R   0.568779 0.098904 0.848944 -0.122218
Cr1   Cr    Cr6+3 0.426010 0.422500 0.497000 1.051947
Cr2   Cr    Cr6+3 0.651300 0.426310 0.501970 1.014716
Cr3   Cr    Cr6+3 0.422670 0.651170 0.501050 1.012085
Cr4   Cr    Cr6+3 0.905130 0.911420 0.992650 1.010264
Cr5   Cr    Cr6+3 0.911860 0.682710 0.002320 1.009684
Cr6   Cr    Cr6+3 0.682710 0.906840 0.004710 1.010799
H1    H     H_    0.586684 0.842913 0.112155 0.128809
H2    H     H_    0.497753 0.777412 0.403283 0.129553
H3    H     H_    0.895823 0.560331 0.174770 0.100805
H4    H     H_    0.782816 0.493893 0.419158 0.129136
H5    H     H_    0.155472 0.567088 0.090983 0.124661
H6    H     H_    0.056053 0.890154 0.090107 0.123133
H7    H     H_    0.184591 0.826076 0.343630 0.117759
H8    H     H_    0.265196 0.770750 0.282734 0.105298
H9    H     H_    0.250554 0.785760 0.212668 0.105032
H10   H     H_    0.194770 0.562109 0.159500 0.105003
H11   H     H_    0.056890 0.651368 0.280169 0.108738
H12   H     H_    0.895307 0.586797 0.105736 0.126440
H13   H     H_    0.046184 0.662721 0.210263 0.111926
H14   H     H_    0.185271 0.541906 0.324197 0.128034
H15   H     H_    0.097160 0.883860 0.158869 0.101700
H16   H     H_    0.243809 0.775877 0.409603 0.137261
H17   H     H_    0.874873 0.082253 0.097080 0.121809
H18   H     H_    0.570541 0.121554 0.087720 0.119281
H19   H     H_    0.502678 0.216483 0.331172 0.115633
H20   H     H_    0.515762 0.305459 0.275723 0.111735
H21   H     H_    0.531977 0.293253 0.206022 0.104604
H22   H     H_    0.840542 0.517387 0.357528 0.111296
H23   H     H_    0.847629 0.131984 0.164688 0.102012
H24   H     H_    0.819727 0.044068 0.288443 0.107445
H25   H     H_    0.836112 0.032541 0.218720 0.109986
H26   H     H_    0.812372 0.162627 0.338271 0.104972
H27   H     H_    0.789966 0.213864 0.405520 0.130707
H28   H     H_    0.544103 0.170199 0.155322 0.102211
H29   H     H_    0.479066 0.270084 0.398400 0.167440
H30   H     H_    0.836382 0.547021 0.918857 0.122565
H31   H     H_    0.542026 0.823715 0.910972 0.124904
H32   H     H_    0.509432 0.775680 0.675856 0.105513
H33   H     H_    0.786653 0.502454 0.292834 0.106090
H34   H     H_    0.494062 0.671091 0.727676 0.106933
H35   H     H_    0.502791 0.672792 0.797800 0.104278
H36   H     H_    0.814228 0.503014 0.852884 0.100670
H37   H     H_    0.815694 0.574963 0.723971 0.108585
H38   H     H_    0.824409 0.578380 0.794025 0.105731
H39   H     H_    0.783211 0.479904 0.670193 0.103598
H40   H     H_    0.757655 0.474135 0.600880 0.124788
H41   H     H_    0.521384 0.780954 0.844953 0.102001
H42   H     H_    0.483090 0.770437 0.606703 0.128074
H43   H     H_    0.081735 0.834159 0.901335 0.123527
H44   H     H_    0.803525 0.514385 0.223951 0.105493
H45   H     H_    0.059464 0.559201 0.893172 0.126135
H46   H     H_    0.134872 0.539096 0.651613 0.107758
H47   H     H_    0.255306 0.505368 0.710977 0.119965
H48   H     H_    0.238998 0.510602 0.780610 0.122060
H49   H     H_    0.129993 0.813849 0.834234 0.104461
H50   H     H_    0.027254 0.835780 0.775498 0.133749
H51   H     H_    0.204344 0.783882 0.662499 0.147677
H52   H     H_    0.266025 0.751788 0.596953 0.127494
H53   H     H_    0.105873 0.540297 0.825915 0.103999
H54   H     H_    0.587979 0.815963 0.180820 0.105285
H55   H     H_    0.197127 0.505819 0.586135 0.133562
H56   H     H_    0.567511 0.021117 0.899511 0.124371
H57   H     H_    0.769310 0.147861 0.903033 0.126208
H58   H     H_    0.595195 0.336922 0.724284 0.110331
H59   H     H_    0.588902 0.317478 0.793353 0.105689
H60   H     H_    0.514320 0.083053 0.833790 0.101645
H61   H     H_    0.605973 0.048423 0.704095 0.114641
H62   H     H_    0.603202 0.026665 0.773406 0.109050
H63   H     H_    0.491081 0.177169 0.649489 0.104810
H64   H     H_    0.672287 0.827252 0.305303 0.107444
H65   H     H_    0.494181 0.220056 0.582346 0.123070
H66   H     H_    0.718530 0.207081 0.837648 0.107742
H67   H     H_    0.746860 0.271457 0.609838 0.128915
H68   H     H_    0.687565 0.839054 0.236210 0.110913
H69   H     H_    0.554556 0.799402 0.341443 0.104301
O1    O     O_R   0.324990 0.503440 0.453910 -0.435093
O2    O     O_R   0.639980 0.519500 0.542640 -0.502781
O3    O     O_R   0.500750 0.673190 0.545480 -0.519019
O4    O     O_R   0.336260 0.640450 0.538210 -0.504253
O5    O     O_3   0.499990 0.499990 0.500010 -0.245017
O6    O     O_R   0.834210 0.019400 0.034570 -0.522394
O7    O     O_R   0.002210 0.824620 0.031030 -0.503197
O8    O     O_R   0.024400 0.669340 0.039790 -0.519704
O9    O     O_R   0.830490 0.694950 0.045870 -0.502271
O10   O     O_R   0.675430 0.831160 0.051290 -0.518447
O11   O     O_R   0.698870 0.998880 0.039560 -0.500736
O12   O     O_R   0.522030 0.339050 0.458320 -0.495820
O13   O     O_R   0.811290 0.006780 0.950620 -0.516775
O14   O     O_R   0.980960 0.812920 0.953200 -0.500661
O15   O     O_R   0.001480 0.656720 0.955830 -0.520515
O16   O     O_R   0.809240 0.683250 0.968050 -0.501690
O17   O     O_R   0.652500 0.818540 0.967340 -0.520687
O18   O     O_R   0.677620 0.987170 0.961730 -0.502524
O19   O     O_3   0.833240 0.833660 0.999890 -0.235268
O20   O     O_R   0.676180 0.324490 0.458320 -0.518446
O21   O     O_R   0.643570 0.521510 0.464260 -0.501138
O22   O     O_R   0.504630 0.675350 0.460920 -0.517648
O23   O     O_R   0.339850 0.642450 0.459830 -0.519281
O24   O     O_R   0.321120 0.501280 0.538470 -0.518775
O25   O     O_R   0.518440 0.337050 0.536710 -0.502630
O26   O     O_R   0.672300 0.322330 0.542880 -0.519040
F1    F     F_    0.243963 0.474010 0.392522 -0.632416
F2    F     F_    0.032936 0.848394 0.701630 -0.643687
H70   H     H_    0.742556 0.229520 0.676682 0.118628

loop_
_geom_bond_atom_site_label_1
_geom_bond_atom_site_label_2
_ccdc_geom_bond_type
C8    C9    A    
C15   C18   A    
Cr5   O9    S    
C101  C102  A    
C22   C98   S    
C49   H11   S    
C95   H32   S    
C85   H35   S    
C41   C42   A    
C14   C18   A    
Cr3   O3    S    
C95   C96   A    
C3    C11   S    
C112  C116  A    
C72   C76   A    
C25   C118  S    
C56   H7    S    
Cr5   O16   S    
C109  H50   S    
C7    C8    A    
Cr4   O19   S    
C85   C86   A    
C75   H19   S    
C12   H63   S    
C6    H59   S    
C59   C64   A    
C62   C63   A    
C7    H58   S    
C90   H38   S    
C69   H24   S    
C66   C97   S    
Cr3   O4    S    
C36   C37   A    
C21   C59   S    
C77   C117  S    
C109  C111  A    
C60   H17   S    
C79   C84   A    
C98   C104  A    
C23   O17   A    
Cr6   O10   S    
C27   H33   S    
C15   C16   A    
C22   O14   A    
C20   C88   S    
C92   C96   A    
C108  C109  A    
C81   H36   S    
C2    C13   A    
C4    H66   S    
C118  C119  A    
C92   C93   A    
Cr6   O19   S    
C102  C103  A    
C46   H9    S    
C92   H39   S    
C36   H22   S    
Cr5   O8    S    
C35   C36   A    
C44   C58   S    
C16   C17   A    
C72   H26   S    
Cr2   O26   S    
C12   C17   A    
C1    O20   A    
C10   H62   S    
C107  C108  A    
C70   C71   A    
C65   H21   S    
C25   O13   A    
C9    C10   A    
Cr1   O1    S    
Cr2   O5    S    
C42   C51   S    
C55   O26   A    
C113  H52   S    
C105  C111  A    
C59   C60   A    
C34   C38   A    
C66   O2    A    
Cr4   O13   S    
C24   C88   A    
C1    C78   S    
Cr1   O24   S    
C102  C111  S    
C69   C70   A    
C20   O10   A    
C32   H69   S    
Cr4   O14   S    
C112  C113  A    
C33   O21   A    
C80   H30   S    
C6    C7    A    
C85   C91   A    
C54   C56   A    
C44   O1    A    
C74   C75   A    
C67   C68   A    
C114  C117  A    
C47   C48   A    
C21   O6    A    
Cr3   O5    S    
C48   C57   S    
C35   C38   A    
C44   O23   A    
C20   O9    A    
C72   C73   A    
C10   C11   A    
C94   H42   S    
C39   C40   A    
C108  F2    S    
C50   H13   S    
C68   C69   A    
C99   H1    S    
C64   H18   S    
C94   C97   A    
C65   C67   A    
C53   F1    S    
C65   C71   A    
C99   C110  A    
C83   H41   S    
C46   C51   A    
C19   O7    A    
C81   C82   A    
C82   C91   S    
C63   C64   A    
C13   C24   A    
Cr4   O7    S    
C60   C61   A    
C119  H56   S    
C32   C34   A    
C21   O11   A    
C75   C76   A    
Cr1   O5    S    
C29   C30   A    
Cr2   O20   S    
Cr6   O18   S    
C43   C45   A    
Cr5   O19   S    
C30   H68   S    
C83   C84   A    
C110  H54   S    
C73   C78   A    
C87   C96   S    
C67   H20   S    
C19   O8    A    
C50   C51   A    
C26   C27   A    
C94   C95   A    
C32   C37   A    
C119  C120  A    
C86   H34   S    
C77   O4    A    
C35   H4    S    
C66   O3    A    
C19   C39   S    
C18   C55   S    
C104  H45   S    
C113  C117  A    
C14   H65   S    
Cr5   O15   S    
C40   C41   A    
C54   H16   S    
Cr3   O23   S    
C12   C14   A    
C93   H40   S    
C49   C50   A    
C98   C100  A    
C105  H48   S    
C87   C89   A    
C47   H8    S    
C74   C78   A    
Cr1   O25   S    
C16   H70   S    
C42   C43   A    
Cr1   O12   S    
C3    C4    A    
C93   C97   A    
C6    C11   A    
C52   C53   A    
C84   H31   S    
C54   C58   A    
C3    C120  A    
C56   C57   A    
C46   C47   A    
C28   C29   A    
C100  H43   S    
C86   C87   A    
C26   C31   A    
C40   H5    S    
C77   O24   A    
C70   H25   S    
C33   C38   S    
C63   H28   S    
C80   C81   A    
C9    H61   S    
C120  H60   S    
C53   C58   A    
C114  C115  A    
C55   O25   A    
C33   O22   A    
C68   C76   S    
C114  H55   S    
C105  C106  A    
C5    C118  A    
C8    C17   S    
C39   C45   A    
Cr4   O6    S    
C24   H12   S    
C25   O18   A    
Cr6   O17   S    
C89   H37   S    
C90   C91   A    
C30   C31   A    
C23   O16   A    
C28   C37   S    
Cr6   O11   S    
C48   C49   A    
C4    C5    A    
C22   O15   A    
C100  C101  A    
C52   H14   S    
C106  H47   S    
Cr2   O21   S    
C62   C71   S    
C103  H53   S    
Cr2   O2    S    
Cr3   O22   S    
C61   C62   A    
C1    O12   A    
C107  C116  S    
C88   C99   A    
C43   H15   S    
C52   C57   A    
C79   C80   A    
C15   H67   S    
C115  H46   S    
C26   H44   S    
C45   H6    S    
C34   H2    S    
C82   C83   A    
C106  C107  A    
C73   H27   S    
C103  C104  A    
C101  H49   S    
C13   H3    S    
C29   H64   S    
C2    C31   S    
C23   C79   S    
C89   C90   A    
C61   H23   S    
C74   H29   S    
C5    H57   S    
C41   H10   S    
C115  C116  A    
C112  H51   S    
C27   C28   A    
C2    C110  A    
