data_mof_unit_60589.cif
_audit_creation_date              2012-12-11T17:41:48-0500
_audit_creation_method            fapswitch 2.2
_symmetry_space_group_name_H-M    P1
_symmetry_Int_Tables_number       1
_space_group_crystal_system       triclinic
_cell_length_a                    7.186943
_cell_length_b                    23.845155
_cell_length_c                    26.188339
_cell_angle_alpha                 90.006824
_cell_angle_beta                  90.050058
_cell_angle_gamma                 90.021359
_cell_volume                      4487.9923228

loop_
_atom_site_label
_atom_site_type_symbol
_atom_type_description
_atom_site_fract_x
_atom_site_fract_y
_atom_site_fract_z
_atom_type_partial_charge
O1    O     O_R   0.607880 0.800910 0.198150 -0.529066
O2    O     O_R   0.392120 0.199090 0.801850 -0.529092
O3    O     O_R   0.392120 0.199090 0.698150 -0.532076
O4    O     O_R   0.607880 0.800910 0.301850 -0.532041
O5    O     O_R   0.107880 0.699090 0.301850 -0.535485
O6    O     O_R   0.892120 0.300910 0.698150 -0.535535
O7    O     O_R   0.892120 0.300910 0.801850 -0.531116
O8    O     O_R   0.107880 0.699090 0.198150 -0.531159
O9    O     O_R   0.278160 0.807580 0.301500 -0.523146
O10   O     O_R   0.721840 0.192420 0.698500 -0.523244
O11   O     O_R   0.721840 0.192420 0.801500 -0.522603
O12   O     O_R   0.278160 0.807580 0.198500 -0.522674
O13   O     O_R   0.778160 0.692420 0.198500 -0.529449
O14   O     O_R   0.221840 0.307580 0.801500 -0.529477
O15   O     O_R   0.221840 0.307580 0.698500 -0.527873
O16   O     O_R   0.778160 0.692420 0.301500 -0.527957
C1    C     C_R   0.446582 0.822679 0.317362 0.745374
C2    C     C_R   0.553402 0.177327 0.682654 0.745345
C3    C     C_R   0.554185 0.180082 0.819643 0.751384
C4    C     C_R   0.445811 0.819913 0.180350 0.751206
C5    C     C_R   0.945786 0.680119 0.180323 0.737751
C6    C     C_R   0.054209 0.319881 0.819672 0.737775
C7    C     C_R   0.054154 0.319814 0.680268 0.712870
C8    C     C_R   0.945854 0.680192 0.319726 0.713002
O17   O     O_3   0.441370 0.714400 0.250000 -0.372909
O18   O     O_3   0.558630 0.285600 0.750000 -0.372857
O19   O     O_3   0.941370 0.785600 0.250000 -0.360589
O20   O     O_3   0.058630 0.214400 0.750000 -0.360716
V1    V     V_3+5 0.166530 0.756600 0.250000 1.535095
V2    V     V_3+5 0.833470 0.243400 0.750000 1.535066
V3    V     V_3+5 0.666530 0.743400 0.250000 1.520729
V4    V     V_3+5 0.333470 0.256600 0.750000 1.520671
C9    C     C_R   0.178734 0.405432 0.560059 0.178375
C10   C     C_R   0.821573 0.594884 0.440109 0.178547
C11   C     C_R   0.821679 0.594843 0.059823 0.171210
C12   C     C_R   0.177878 0.404888 0.940349 0.171363
C13   C     C_R   0.677922 0.094996 0.940231 0.172303
C14   C     C_R   0.321630 0.905171 0.059888 0.172150
C15   C     C_R   0.326437 0.946854 0.406003 0.176760
C16   C     C_R   0.672690 0.052631 0.594624 0.177114
C17   C     C_R   0.190538 0.364444 0.599275 0.122412
C18   C     C_R   0.810084 0.635894 0.400908 0.122379
C19   C     C_R   0.810080 0.635848 0.099035 0.137152
C20   C     C_R   0.189466 0.363922 0.901104 0.137149
C21   C     C_R   0.689615 0.135942 0.900983 0.139645
C22   C     C_R   0.310061 0.864176 0.099099 0.139597
C23   C     C_R   0.315845 0.908824 0.364324 0.121437
C24   C     C_R   0.682845 0.090708 0.636270 0.120866
C25   C     C_R   0.047167 0.360595 0.636784 -0.124254
C26   C     C_R   0.952812 0.639423 0.363205 -0.124012
C27   C     C_R   0.952782 0.639411 0.136794 -0.123412
C28   C     C_R   0.047207 0.360579 0.863201 -0.123325
C29   C     C_R   0.547203 0.139328 0.863123 -0.122879
C30   C     C_R   0.452771 0.860665 0.136865 -0.123062
C31   C     C_R   0.455027 0.866679 0.358208 -0.129669
C32   C     C_R   0.544979 0.133323 0.641847 -0.129465
C33   C     C_R   0.892540 0.396459 0.632506 -0.166763
C34   C     C_R   0.106628 0.603227 0.367259 -0.167212
C35   C     C_R   0.106958 0.603390 0.132689 -0.168142
C36   C     C_R   0.893488 0.396808 0.867158 -0.168333
C37   C     C_R   0.393418 0.103085 0.867078 -0.153679
C38   C     C_R   0.606807 0.896794 0.132814 -0.153838
C39   C     C_R   0.605771 0.865988 0.392551 -0.137441
C40   C     C_R   0.395778 0.134493 0.607009 -0.138369
H1    H     H_    0.780550 0.394374 0.660102 0.153090
H2    H     H_    0.218101 0.605070 0.339493 0.152291
H3    H     H_    0.218571 0.605321 0.160449 0.149726
H4    H     H_    0.782236 0.395047 0.839272 0.149324
H5    H     H_    0.282114 0.104854 0.839205 0.161727
H6    H     H_    0.718350 0.894932 0.160607 0.161817
H7    H     H_    0.714800 0.834902 0.388870 0.164607
H8    H     H_    0.287811 0.165981 0.610294 0.163904
C41   C     C_R   0.880335 0.435934 0.593194 -0.110481
C42   C     C_R   0.118597 0.563726 0.406556 -0.110896
C43   C     C_R   0.119150 0.563948 0.093350 -0.110283
C44   C     C_R   0.881366 0.436251 0.906499 -0.110518
C45   C     C_R   0.381278 0.063630 0.906409 -0.105407
C46   C     C_R   0.618944 0.936244 0.093477 -0.105351
C47   C     C_R   0.617639 0.904518 0.432606 -0.108540
C48   C     C_R   0.384277 0.095948 0.566958 -0.109474
H9    H     H_    0.759243 0.462916 0.591122 0.167412
H10   H     H_    0.239055 0.536474 0.408458 0.166877
H11   H     H_    0.239874 0.536827 0.091424 0.165175
H12   H     H_    0.761032 0.463546 0.908308 0.164851
H13   H     H_    0.260882 0.036327 0.908223 0.168196
H14   H     H_    0.739586 0.963438 0.091578 0.168362
H15   H     H_    0.735635 0.902624 0.458348 0.167601
H16   H     H_    0.267522 0.098217 0.540804 0.166939
C49   C     C_R   0.022671 0.441028 0.557119 0.025504
C50   C     C_R   0.976800 0.558942 0.442831 0.025401
C51   C     C_R   0.977185 0.559027 0.057089 0.026856
C52   C     C_R   0.022893 0.440936 0.942924 0.026764
C53   C     C_R   0.522817 0.058964 0.942836 0.024359
C54   C     C_R   0.477062 0.941060 0.057168 0.024473
C55   C     C_R   0.478438 0.944617 0.439967 0.023808
C56   C     C_R   0.522309 0.055348 0.560129 0.023633
C57   C     C_1   0.006023 0.482673 0.516853 0.074446
C58   C     C_1   0.993256 0.517282 0.483090 0.074338
C59   C     C_1   0.993695 0.517317 0.016865 0.073955
C60   C     C_1   0.006457 0.482646 0.983149 0.073858
C61   C     C_1   0.506301 0.017314 0.983114 0.076757
C62   C     C_1   0.493573 0.982710 0.016889 0.076820
C63   C     C_1   0.494323 0.983622 0.482393 0.075507
C64   C     C_1   0.506778 0.016325 0.517707 0.075257
I1    I     I_    0.394963 0.414815 0.504425 -0.317684
I2    I     I_    0.605999 0.585950 0.496010 -0.315522
I3    I     I_    0.605763 0.585700 0.003964 -0.303448
I4    I     I_    0.392949 0.413604 0.996506 -0.301922
I5    I     I_    0.892898 0.086346 0.996415 -0.292511
I6    I     I_    0.105801 0.914185 0.003997 -0.293673
I7    I     I_    0.113419 0.007999 0.419255 -0.303624
I8    I     I_    0.883961 0.990713 0.582240 -0.299716
I9    I     I_    0.417573 0.306030 0.597446 -0.345321
I10   I     I_    0.584694 0.694837 0.403000 -0.343732
I11   I     I_    0.584784 0.694788 0.096816 -0.269635
I12   I     I_    0.414040 0.304723 0.903433 -0.268945
I13   I     I_    0.914740 0.195016 0.903243 -0.260986
I14   I     I_    0.084701 0.805192 0.096878 -0.261394
I15   I     I_    0.098247 0.920130 0.309070 -0.303875
I16   I     I_    0.897395 0.078880 0.692333 -0.302501

loop_
_geom_bond_atom_site_label_1
_geom_bond_atom_site_label_2
_ccdc_geom_bond_type
O17   V3    S    
O18   V4    S    
C61   C62   T    
O12   V1    S    
O19   V1    S    
C10   C18   A    
C19   C27   A    
C44   H12   S    
C47   H15   S    
C57   C58   T    
O15   V4    S    
C24   I16   S    
C39   C47   A    
O16   V3    S    
O11   C3    A    
O8    V1    S    
C23   C31   A    
C42   H10   S    
C7    C25   S    
C12   I4    S    
C37   H5    S    
C38   C46   A    
O1    V3    S    
C25   C33   A    
C38   H6    S    
O3    C2    A    
O2    V4    S    
C17   C25   A    
C16   C24   A    
C28   C36   A    
C19   I11   S    
C29   C37   A    
C18   I10   S    
O11   V2    S    
C37   C45   A    
C55   C63   S    
C31   C39   A    
C32   C40   A    
C34   C42   A    
C48   C56   A    
C11   C19   A    
C1    C31   S    
C13   I5    S    
C43   C51   A    
C35   H3    S    
C3    C29   S    
O15   C7    A    
C45   H13   S    
O16   C8    A    
O7    V2    S    
C40   C48   A    
O12   C4    A    
C42   C50   A    
C16   C56   A    
C41   H9    S    
C34   H2    S    
O5    V1    S    
C8    C26   S    
C45   C53   A    
O13   C5    A    
C10   I2    S    
C9    I1    S    
C4    C30   S    
C53   C61   S    
C14   C54   A    
C30   C38   A    
C36   C44   A    
C49   C57   S    
C26   C34   A    
C10   C50   A    
C47   C55   A    
C9    C49   A    
O10   V2    S    
C59   C60   T    
C33   H1    S    
C22   C30   A    
O8    C5    A    
C13   C53   A    
C2    C32   S    
C15   C55   A    
C18   C26   A    
O4    C1    A    
O9    C1    A    
O6    V2    S    
C39   H7    S    
C56   C64   S    
C12   C20   A    
C22   I14   S    
C14   I6    S    
C13   C21   A    
C35   C43   A    
C5    C27   S    
C52   C60   S    
C15   C23   A    
C21   I13   S    
C24   C32   A    
O1    C4    A    
O2    C3    A    
C33   C41   A    
O13   V3    S    
O14   V4    S    
C20   C28   A    
C46   C54   A    
O9    V1    S    
O7    C6    A    
C36   H4    S    
C9    C17   A    
O14   C6    A    
O20   V2    S    
C17   I9    S    
C41   C49   A    
C48   H16   S    
C44   C52   A    
C15   I7    S    
C16   I8    S    
C43   H11   S    
O5    C8    A    
O10   C2    A    
O6    C7    A    
C23   I15   S    
C6    C28   S    
C40   H8    S    
O3    V4    S    
C14   C22   A    
O4    V3    S    
C11   I3    S    
C12   C52   A    
C21   C29   A    
C27   C35   A    
C20   I12   S    
C46   H14   S    
C63   C64   T    
C51   C59   S    
C50   C58   S    
C54   C62   S    
C11   C51   A    
