data_mof_unit_57670.cif
_audit_creation_date              2012-12-10T17:25:31-0500
_audit_creation_method            fapswitch 2.2
_symmetry_space_group_name_H-M    P1
_symmetry_Int_Tables_number       1
_space_group_crystal_system       triclinic
_cell_length_a                    10.258679
_cell_length_b                    10.531772
_cell_length_c                    22.963897
_cell_angle_alpha                 92.418974
_cell_angle_beta                  81.157284
_cell_angle_gamma                 94.731492
_cell_volume                      2442.12409058

loop_
_atom_site_label
_atom_site_type_symbol
_atom_type_description
_atom_site_fract_x
_atom_site_fract_y
_atom_site_fract_z
_atom_type_partial_charge
C1    C     C_R   0.554137 0.734334 0.498671 0.974481
C2    C     C_R   0.445764 0.266288 0.507838 0.873369
C3    C     C_R   0.350362 0.411974 0.766473 0.022211
C4    C     C_R   0.466599 0.550214 0.229845 -0.006795
C5    C     C_R   0.373641 0.407636 0.704800 -0.173330
C6    C     C_R   0.461248 0.571625 0.291529 -0.115533
C7    C     C_R   0.486061 0.480489 0.675530 -0.124787
C8    C     C_R   0.497341 0.475156 0.325622 -0.192779
C9    C     C_R   0.573946 0.548968 0.709664 -0.128631
C10   C     C_R   0.530896 0.355945 0.299361 -0.110167
C11   C     C_R   0.557672 0.531549 0.771147 -0.069216
C12   C     C_R   0.527250 0.332142 0.239087 -0.053466
C13   C     C_R   0.459736 0.438307 0.796188 0.185761
C14   C     C_R   0.497578 0.429794 0.204604 0.129616
C15   C     C_2   0.579759 0.871752 0.505816 -0.234367
C16   C     C_2   0.418902 0.130901 0.520739 -0.294689
C17   C     C_2   0.504417 0.935210 0.550141 -0.109872
C18   C     C_2   0.504136 0.073410 0.549734 -0.143670
C19   C     C_2   0.934625 0.530521 0.493358 -0.077093
C20   C     C_2   0.078694 0.505710 0.486177 -0.097131
C21   C     C_R   0.498074 0.497282 0.611337 0.941595
C22   C     C_R   0.499791 0.496463 0.389001 0.868708
C23   C     C_R   0.388429 0.345516 0.124273 0.532623
C24   C     C_R   0.599908 0.365505 0.863167 0.522803
C25   C     C_R   0.613538 0.430120 0.105201 0.588523
C26   C     C_R   0.373901 0.303309 0.883156 0.636010
C27   C     C_R   0.622317 0.393505 0.044992 -0.093302
C28   C     C_R   0.382974 0.283432 0.942905 -0.082849
C29   C     C_R   0.505313 0.341877 0.024486 -0.020160
C30   C     C_R   0.501429 0.329652 0.963643 0.004237
C31   C     C_R   0.390542 0.306698 0.064741 -0.015037
C32   C     C_R   0.615670 0.363212 0.922940 -0.063224
C33   C     C_R   0.742071 0.409090 0.004633 -0.068082
C34   C     C_R   0.277562 0.225030 0.982802 -0.105047
C35   C     C_R   0.738486 0.395375 0.943329 -0.112961
C36   C     C_R   0.282276 0.235278 0.044047 -0.118266
N1    N     N_R   0.498744 0.404476 0.142749 -0.372645
N2    N     N_R   0.475975 0.369628 0.848568 -0.318902
N3    N     N_2   0.842710 0.448880 0.476480 -0.193851
N4    N     N_2   0.157290 0.551120 0.523520 -0.203218
O1    O     O_R   0.431060 0.692470 0.504730 -0.581957
O2    O     O_R   0.568940 0.307530 0.495270 -0.609900
O3    O     O_R   0.651120 0.659650 0.489640 -0.576137
O4    O     O_R   0.348880 0.340350 0.510360 -0.591706
O5    O     O_R   0.389950 0.516450 0.591390 -0.625971
O6    O     O_R   0.610050 0.483550 0.408610 -0.576794
O7    O     O_R   0.610020 0.483630 0.576300 -0.556709
O8    O     O_R   0.389980 0.516370 0.423700 -0.607049
O9    O     O_2   0.276318 0.329715 0.163374 -0.490737
O10   O     O_2   0.704920 0.363864 0.819970 -0.536125
O11   O     O_2   0.716663 0.493625 0.126458 -0.494895
O12   O     O_2   0.266571 0.255899 0.860201 -0.486917
Zn1   Zn    Zn3+2 0.353060 0.521920 0.510080 1.056033
Zn2   Zn    Zn3+2 0.646940 0.478080 0.489920 1.084004
C37   C     C_2   0.871898 0.437150 0.025619 1.088586
O13   O     O_2   0.907810 0.364884 0.059282 -0.543158
O14   O     O_R   0.953218 0.545003 0.006313 -0.772456
H1    H     H_    0.039343 0.552742 0.023182 0.365492
C38   C     C_2   0.168267 0.144438 0.961043 1.010458
O15   O     O_2   0.053811 0.171701 0.974626 -0.569970
O16   O     O_R   0.197305 0.037229 0.924852 -0.727074
H2    H     H_    0.115185 0.989936 0.912649 0.370756
C39   C     C_2   0.103024 0.572070 0.583744 1.052327
O17   O     O_2   0.016582 0.496987 0.608301 -0.568979
O18   O     O_R   0.155500 0.674385 0.615654 -0.749629
H3    H     H_    0.111772 0.678106 0.658335 0.350266
C40   C     C_2   0.869632 0.318964 0.464961 1.021437
O19   O     O_2   0.918114 0.260783 0.500314 -0.607084
O20   O     O_R   0.838196 0.257987 0.413272 -0.741375
H4    H     H_    0.868417 0.168460 0.407943 0.364339
C41   C     C_2   0.862453 0.421097 0.901424 0.597758
H5    H     H_    0.868951 0.494212 0.869001 0.109261
O21   O     O_2   0.957783 0.359793 0.902761 -0.471425
C42   C     C_2   0.180530 0.160620 0.084982 0.571423
H6    H     H_    0.076467 0.160399 0.081287 0.125902
O22   O     O_2   0.213337 0.094504 0.121868 -0.467792
C43   C     C_2   0.217480 0.447230 0.795260 0.577858
H7    H     H_    0.131869 0.429997 0.772777 0.117564
O23   O     O_2   0.203393 0.501988 0.843537 -0.520654
C44   C     C_2   0.445353 0.651987 0.190025 0.573807
H8    H     H_    0.403882 0.627214 0.149958 0.051927
O24   O     O_2   0.480087 0.763533 0.199778 -0.474826
C45   C     C_2   0.284157 0.321413 0.672443 0.519210
H9    H     H_    0.301130 0.311234 0.624976 0.094067
O25   O     O_2   0.193346 0.254233 0.698919 -0.512281
C46   C     C_2   0.417326 0.692488 0.321343 0.605165
H10   H     H_    0.462009 0.732419 0.358622 0.042031
O26   O     O_2   0.326639 0.745237 0.306437 -0.452739
C47   C     C_2   0.682411 0.637166 0.682033 1.059051
O27   O     O_2   0.793259 0.600297 0.669450 -0.499886
O28   O     O_R   0.660355 0.764124 0.674612 -0.756806
H11   H     H_    0.743669 0.816509 0.657427 0.379177
C48   C     C_2   0.568767 0.254023 0.334525 1.013214
O29   O     O_2   0.678200 0.213491 0.321998 -0.537041
O30   O     O_R   0.476623 0.199291 0.379247 -0.791300
H12   H     H_    0.511700 0.124896 0.396964 0.326314
C49   C     C_2   0.631695 0.617118 0.810483 0.940581
O31   O     O_2   0.576274 0.648658 0.859361 -0.600782
O32   O     O_R   0.763827 0.660151 0.792571 -0.762722
H13   H     H_    0.801961 0.716561 0.823674 0.355562
C50   C     C_2   0.550507 0.203364 0.211854 0.992065
O33   O     O_2   0.489383 0.108770 0.234481 -0.520472
O34   O     O_R   0.641986 0.190298 0.160593 -0.754602
H14   H     H_    0.647991 0.098266 0.146306 0.375471
C51   C     C_2   0.601055 0.142394 0.584059 0.970522
O35   O     O_2   0.571118 0.236357 0.614318 -0.635823
O36   O     O_R   0.723284 0.093445 0.585169 -0.772269
H15   H     H_    0.779436 0.146740 0.611186 0.391967
C52   C     C_2   0.422614 0.874910 0.602737 1.097646
O37   O     O_2   0.445078 0.770880 0.618498 -0.612224
O38   O     O_R   0.323225 0.941813 0.636210 -0.729753
H16   H     H_    0.276706 0.893434 0.671726 0.368898
C53   C     C_2   0.305293 0.061946 0.496277 0.520081
H17   H     H_    0.250979 0.112245 0.468707 0.152856
O39   O     O_2   0.269557 0.950762 0.506786 -0.511470
C54   C     C_2   0.675446 0.939520 0.459899 0.422103
H18   H     H_    0.695306 0.041940 0.462921 0.110235
O40   O     O_2   0.732971 0.881100 0.417912 -0.512313
C55   C     C_2   0.132972 0.445357 0.429472 0.997172
O41   O     O_2   0.183185 0.343910 0.428598 -0.576818
O42   O     O_R   0.118910 0.500747 0.376766 -0.743371
H19   H     H_    0.158412 0.450099 0.340750 0.366919
C56   C     C_2   0.905045 0.661721 0.512340 1.002840
O43   O     O_2   0.829070 0.681293 0.557488 -0.592858
O44   O     O_R   0.971768 0.763933 0.480497 -0.721034
H20   H     H_    0.945892 0.849554 0.498460 0.372667

loop_
_geom_bond_atom_site_label_1
_geom_bond_atom_site_label_2
_ccdc_geom_bond_type
C33   C37   S    
C22   O8    A    
C37   O13   D    
C39   O18   S    
C48   O29   D    
C27   C29   A    
O30   H12   S    
C19   C20   S    
C16   C53   S    
C25   O11   S    
C49   O31   D    
C56   O43   D    
C43   H7    S    
C27   C33   A    
C51   O36   S    
C19   C56   S    
C50   O33   D    
N4    C39   S    
C42   O22   D    
C4    C44   S    
C52   O38   S    
C20   N4    D    
C46   O26   D    
C23   O9    S    
N3    Zn2   S    
C54   H18   S    
C15   C17   D    
C48   O30   S    
C25   N1    A    
O4    Zn1   S    
C1    O3    A    
O32   H13   S    
C2    O4    A    
C24   N2    A    
O36   H15   S    
C1    C15   S    
C47   O28   S    
C2    C16   S    
C3    C13   A    
C43   O23   D    
C35   C41   S    
C38   O15   D    
C50   O34   S    
O16   H2    S    
C10   C12   A    
C49   O32   S    
C21   O5    A    
C55   O42   S    
C24   O10   S    
O8    Zn1   S    
C38   O16   S    
C42   H6    S    
C40   O19   D    
C32   C35   A    
C4    C6    A    
C9    C47   S    
O28   H11   S    
C5    C7    A    
C46   H10   S    
C26   N2    A    
C6    C8    A    
C10   C48   S    
C23   N1    A    
C40   O20   S    
C23   C31   A    
C24   C32   A    
C29   C30   A    
C26   O12   S    
O3    Zn2   S    
C8    C22   S    
C45   H9    S    
O6    Zn2   S    
C17   C18   S    
O42   H19   S    
C16   C18   D    
C9    C11   A    
O1    Zn1   S    
C13   N2    S    
C19   N3    D    
O7    Zn2   S    
C44   O24   D    
C45   O25   D    
C12   C14   A    
N4    Zn1   S    
C37   O14   S    
O44   H20   S    
C3    C43   S    
C41   O21   D    
C53   H17   S    
C1    O1    A    
C7    C9    A    
C36   C42   S    
O38   H16   S    
C22   O6    A    
C15   C54   S    
N3    C40   S    
C44   H8    S    
C3    C5    A    
C17   C52   S    
C55   O41   D    
C25   C27   A    
C51   O35   D    
C26   C28   A    
C6    C46   S    
C11   C49   S    
C28   C30   A    
C18   C51   S    
C41   H5    S    
C29   C31   A    
C7    C21   S    
C52   O37   D    
O2    Zn2   S    
C14   N1    S    
C30   C32   A    
C11   C13   A    
O14   H1    S    
C34   C38   S    
C2    O2    A    
C5    C45   S    
C33   C35   A    
C54   O40   D    
C34   C36   A    
C28   C34   A    
C4    C14   A    
O20   H4    S    
C56   O44   S    
O5    Zn1   S    
C39   O17   D    
C12   C50   S    
C8    C10   A    
O18   H3    S    
O34   H14   S    
C31   C36   A    
C21   O7    A    
C47   O27   D    
C20   C55   S    
C53   O39   D    
