data_mof_unit_6839.cif
_audit_creation_date              2012-12-10T18:59:13-0500
_audit_creation_method            fapswitch 2.2
_symmetry_space_group_name_H-M    P1
_symmetry_Int_Tables_number       1
_space_group_crystal_system       triclinic
_cell_length_a                    10.769188
_cell_length_b                    10.810715
_cell_length_c                    9.571856
_cell_angle_alpha                 90.182013
_cell_angle_beta                  90.127085
_cell_angle_gamma                 89.700289
_cell_volume                      1114.35700586

loop_
_atom_site_label
_atom_site_type_symbol
_atom_type_description
_atom_site_fract_x
_atom_site_fract_y
_atom_site_fract_z
_atom_type_partial_charge
C1    C     C_R   0.496992 0.262405 0.499879 0.786634
C2    C     C_R   0.066453 0.391898 0.569380 0.089919
C3    C     C_R   0.129027 0.488267 0.499454 -0.093548
C4    C     C_R   0.063474 0.578618 0.425689 -0.206660
C5    C     C_R   0.935355 0.578650 0.425871 -0.215704
C6    C     C_R   0.871161 0.488006 0.499281 -0.079666
C7    C     C_R   0.480482 0.064101 0.625361 0.110845
C8    C     C_R   0.482717 0.129429 0.499828 -0.106323
C9    C     C_R   0.464958 0.064291 0.374100 -0.209225
C10   C     C_R   0.465629 0.935316 0.374087 -0.221441
C11   C     C_R   0.483227 0.870798 0.500044 -0.098464
C12   C     C_R   0.262694 0.496502 0.499889 0.782988
C13   C     C_R   0.480814 0.936878 0.625454 0.124941
C14   C     C_3   0.564817 0.930347 0.749620 -0.460657
C15   C     C_3   0.564134 0.070859 0.749776 -0.444369
C16   C     C_R   0.608811 0.505581 0.073510 0.175872
C17   C     C_R   0.392018 0.507974 0.073859 -0.053256
C18   C     C_R   0.391998 0.507645 0.925681 -0.067919
C19   C     C_R   0.608777 0.506828 0.926508 0.247748
C20   C     C_3   0.715200 0.418214 0.918071 -0.543362
C21   C     C_3   0.715536 0.415902 0.077253 -0.257859
C22   C     C_R   0.497155 0.737631 0.500100 0.796875
C23   C     C_R   0.737350 0.496262 0.499948 0.802380
C24   C     C_R   0.131046 0.294093 0.635867 -0.186368
C25   C     C_R   0.066635 0.198581 0.700509 -0.124455
C26   C     C_R   0.937484 0.197376 0.698106 -0.141003
C27   C     C_R   0.871975 0.291953 0.631482 -0.177450
C28   C     C_R   0.935190 0.391271 0.568234 0.114081
Cu1   Cu    Cu3+1 0.499990 0.499980 0.640670 0.937596
Cu2   Cu    Cu3+1 0.500010 0.500020 0.359330 0.962939
H1    H     H_    0.111903 0.651189 0.370420 0.145443
H2    H     H_    0.657116 0.889424 0.724517 0.195757
H3    H     H_    0.516558 0.111617 0.842130 0.234178
H4    H     H_    0.655994 0.111371 0.725203 0.184006
H5    H     H_    0.304066 0.511034 0.127619 0.144372
H6    H     H_    0.303982 0.510228 0.871622 0.146737
H7    H     H_    0.688990 0.329649 0.866759 0.219129
H8    H     H_    0.799533 0.462289 0.874219 0.196273
H9    H     H_    0.800363 0.458017 0.123316 0.153279
H10   H     H_    0.231298 0.288947 0.636595 0.147078
H11   H     H_    0.117224 0.124257 0.750924 0.137198
H12   H     H_    0.887984 0.122074 0.746692 0.132962
H13   H     H_    0.771957 0.285413 0.628024 0.136038
H14   H     H_    0.885854 0.651280 0.370806 0.144772
H15   H     H_    0.456660 0.112132 0.275414 0.209412
N1    N     N_R   0.500790 0.500930 0.147930 -0.183175
N2    N     N_R   0.500790 0.500890 0.852020 -0.176485
O1    O     O_R   0.500000 0.319640 0.618810 -0.587058
O2    O     O_R   0.500010 0.319680 0.381230 -0.555991
O3    O     O_R   0.319640 0.499980 0.618820 -0.597462
O4    O     O_R   0.319650 0.500020 0.381230 -0.589048
O5    O     O_R   0.499990 0.680320 0.618770 -0.574237
O6    O     O_R   0.500000 0.680360 0.381190 -0.588082
O7    O     O_R   0.680350 0.499980 0.618770 -0.591799
O8    O     O_R   0.680360 0.500020 0.381180 -0.574882
C29   C     C_2   0.685007 0.291258 0.138182 0.955925
O9    O     O_2   0.596559 0.232080 0.094175 -0.634107
O10   O     O_R   0.759144 0.243740 0.245537 -0.769747
H16   H     H_    0.729643 0.160106 0.279261 0.320343
H17   H     H_    0.458520 0.886918 0.275166 0.171264
H18   H     H_    0.517872 0.890080 0.842127 0.202818

loop_
_geom_bond_atom_site_label_1
_geom_bond_atom_site_label_2
_ccdc_geom_bond_type
C21   C29   S    
C12   O3    A    
Cu2   O4    S    
C1    O1    A    
C23   O8    A    
Cu1   Cu2   S    
C1    C8    S    
C20   H8    S    
C9    C10   A    
C11   C22   S    
C10   H17   S    
C19   C20   S    
C21   H9    S    
Cu2   N1    S    
C18   N2    A    
C7    C15   S    
C17   C18   A    
O10   H16   S    
C17   N1    A    
C7    C8    A    
C13   C14   S    
C20   C21   S    
C9    H15   S    
C20   H7    S    
C11   C13   A    
C26   C27   A    
C16   C21   S    
C1    O2    A    
Cu1   N2    S    
C16   C19   A    
C6    C23   S    
C24   H10   S    
Cu2   O2    S    
C15   H3    S    
C2    C3    A    
C22   O6    A    
Cu1   O3    S    
C2    C24   A    
C5    C6    A    
Cu2   O6    S    
C19   N2    A    
C4    H1    S    
C10   C11   A    
Cu1   O1    S    
C16   N1    A    
C3    C4    A    
C15   H4    S    
C27   H13   S    
C7    C13   A    
C12   O4    A    
C14   H2    S    
C24   C25   A    
C26   H12   S    
C23   O7    A    
C22   O5    A    
Cu1   O7    S    
C25   H11   S    
C27   C28   A    
C29   O9    D    
C14   C15   S    
C4    C5    A    
C2    C28   A    
C3    C12   S    
C17   H5    S    
C25   C26   A    
C14   H18   S    
C18   H6    S    
Cu2   O8    S    
C5    H14   S    
C6    C28   A    
C29   O10   S    
C8    C9    A    
Cu1   O5    S    
