data_mof_unit_22529.cif
_audit_creation_date              2012-12-10T17:32:57-0500
_audit_creation_method            fapswitch 2.2
_symmetry_space_group_name_H-M    P1
_symmetry_Int_Tables_number       1
_space_group_crystal_system       triclinic
_cell_length_a                    12.391771
_cell_length_b                    13.359521
_cell_length_c                    14.204304
_cell_angle_alpha                 94.154577
_cell_angle_beta                  107.488714
_cell_angle_gamma                 117.821528
_cell_volume                      1919.44749894

loop_
_atom_site_label
_atom_site_type_symbol
_atom_type_description
_atom_site_fract_x
_atom_site_fract_y
_atom_site_fract_z
_atom_type_partial_charge
C1    C     C_R   0.650717 0.714013 0.508828 0.793255
C2    C     C_R   0.848289 0.499777 0.921377 0.079165
C3    C     C_R   0.809469 0.529258 0.998885 0.082799
C4    C     C_R   0.947843 0.469626 0.945460 0.036937
C5    C     C_R   0.021577 0.486362 0.048818 0.043364
C6    C     C_R   0.981285 0.515383 0.124350 -0.264601
C7    C     C_R   0.872860 0.530818 0.100603 -0.035208
C8    C     C_R   0.972378 0.419185 0.869074 -0.259449
C9    C     C_R   0.066335 0.385190 0.892501 0.141966
C10   C     C_R   0.140680 0.403260 0.995872 0.112304
C11   C     C_R   0.125813 0.462520 0.073637 0.067230
C12   C     C_R   0.618604 0.517352 0.687215 0.838817
C13   C     C_R   0.224066 0.357588 0.023917 -0.233537
C14   C     C_R   0.295855 0.373746 0.126218 0.006930
C15   C     C_R   0.214302 0.494019 0.174773 -0.265902
C16   C     C_R   0.119880 0.968351 0.346817 -0.170119
C17   C     C_R   0.244301 0.161895 0.459979 -0.048341
C18   C     C_R   0.737955 0.921217 0.584830 -0.186199
C19   C     C_R   0.828978 0.039228 0.604935 -0.155064
C20   C     C_R   0.923969 0.075448 0.562174 -0.204341
C21   C     C_R   0.925466 0.993405 0.494229 0.088923
C22   C     C_R   0.820538 0.875752 0.462557 0.107713
C23   C     C_R   0.344473 0.285204 0.484576 0.819542
C24   C     C_R   0.028441 0.023539 0.457758 0.082088
C25   C     C_R   0.016234 0.940878 0.380522 0.154951
C26   C     C_R   0.900810 0.831897 0.338043 -0.171312
C27   C     C_R   0.804349 0.798937 0.379031 -0.146816
C28   C     C_R   0.145145 0.132390 0.498137 -0.249218
C29   C     C_R   0.234095 0.078387 0.387032 -0.151007
C30   C     C_R   0.735124 0.838249 0.515957 -0.104810
C31   C     C_R   0.246244 0.635350 0.691994 -0.288178
C32   C     C_R   0.651677 0.347070 0.357455 0.043090
C33   C     C_R   0.720402 0.300138 0.330160 -0.219962
C34   C     C_R   0.376688 0.475966 0.312298 0.814373
C35   C     C_R   0.853258 0.342517 0.389204 0.174477
C36   C     C_R   0.921480 0.442430 0.473407 -0.026212
C37   C     C_R   0.843639 0.482974 0.502900 0.196993
C38   C     C_R   0.062365 0.503320 0.532438 -0.025314
C39   C     C_R   0.110884 0.571440 0.632356 0.160907
C40   C     C_R   0.025863 0.585346 0.668978 -0.345001
C41   C     C_R   0.908196 0.567134 0.599105 -0.026622
C42   C     C_R   0.158947 0.505833 0.496376 0.033222
C43   C     C_R   0.334693 0.631424 0.653255 0.070592
C44   C     C_R   0.684288 0.525087 0.795152 -0.032853
C45   C     C_R   0.297706 0.449016 0.202624 -0.128957
C46   C     C_R   0.710448 0.558912 0.972288 -0.138666
C47   C     C_R   0.646513 0.554020 0.871255 -0.211263
C48   C     C_R   0.787269 0.502605 0.821547 -0.198517
Cu1   Cu    Cu3+1 0.416420 0.526630 0.522910 0.934571
Cu2   Cu    Cu3+1 0.583580 0.473370 0.477090 0.962748
H1    H     H_    0.224942 0.299676 0.967348 0.166571
H2    H     H_    0.311606 0.099698 0.358220 0.156096
H3    H     H_    0.886597 0.771081 0.274580 0.163612
H4    H     H_    0.111787 0.905323 0.288527 0.144406
H5    H     H_    0.161625 0.196999 0.559288 0.145235
H6    H     H_    0.671357 0.894662 0.625086 0.157192
H7    H     H_    0.992861 0.168223 0.582015 0.126920
H8    H     H_    0.828862 0.102525 0.656910 0.137402
H9    H     H_    0.717242 0.712817 0.344707 0.151118
H10   H     H_    0.438437 0.676375 0.700984 0.123550
H11   H     H_    0.219364 0.553992 0.233461 0.163495
H12   H     H_    0.066897 0.641331 0.745058 0.176641
H13   H     H_    0.283645 0.688558 0.768356 0.138869
H14   H     H_    0.131141 0.460201 0.420004 0.148903
H15   H     H_    0.548643 0.308725 0.313252 0.169623
H16   H     H_    0.666342 0.224417 0.265784 0.156766
H17   H     H_    0.682863 0.588619 0.028799 0.174472
H18   H     H_    0.569156 0.574847 0.853122 0.150625
H19   H     H_    0.820890 0.490574 0.762687 0.160930
H20   H     H_    0.026415 0.516556 0.202525 0.170313
H21   H     H_    0.913601 0.397872 0.789401 0.142552
N1    N     N_R   0.290690 0.566960 0.557640 -0.185322
N2    N     N_R   0.709100 0.433710 0.442970 -0.218114
O1    O     O_R   0.545970 0.684450 0.528810 -0.579440
O2    O     O_R   0.687130 0.639470 0.490120 -0.564631
O3    O     O_R   0.519670 0.535100 0.660030 -0.598277
O4    O     O_R   0.660830 0.490120 0.621340 -0.582880
O5    O     O_R   0.312870 0.360530 0.509880 -0.589456
O6    O     O_R   0.454030 0.315550 0.471190 -0.580733
O7    O     O_R   0.339170 0.509880 0.378660 -0.586538
O8    O     O_R   0.480330 0.464900 0.339970 -0.589648
C49   C     C_2   0.826756 0.542690 0.184231 0.796843
O9    O     O_2   0.906135 0.587823 0.272465 -0.606612
O10   O     O_R   0.692618 0.496236 0.163839 -0.744016
H22   H     H_    0.674920 0.510745 0.227174 0.340061
C50   C     C_3   0.905232 0.262682 0.371892 -0.440928
C51   C     C_3   0.924272 0.258259 0.270454 -0.783310
H23   H     H_    0.827740 0.216207 0.205480 0.249465
H24   H     H_    0.987673 0.346983 0.263619 0.244996
H25   H     H_    0.971472 0.206055 0.265190 0.250730
H26   H     H_    0.996724 0.284755 0.435674 0.197104
H27   H     H_    0.832693 0.172525 0.370814 0.209411
C52   C     C_2   0.909003 0.677131 0.612391 0.935307
O11   O     O_2   0.945412 0.741871 0.557881 -0.582196
O12   O     O_R   0.888386 0.715681 0.695938 -0.790636
H28   H     H_    0.899504 0.796212 0.700035 0.318968
C53   C     C_2   0.349011 0.296275 0.149226 0.827672
O13   O     O_2   0.420024 0.290470 0.107786 -0.577926
O14   O     O_R   0.306987 0.221386 0.210746 -0.787878
H29   H     H_    0.336123 0.162006 0.210559 0.306610
C54   C     C_3   0.084023 0.330371 0.804623 -0.420359
C55   C     C_3   0.219920 0.407388 0.800706 -0.794959
H30   H     H_    0.251244 0.501010 0.821686 0.256046
H31   H     H_    0.295659 0.394148 0.853641 0.249056
H32   H     H_    0.216097 0.385039 0.722427 0.241311
H33   H     H_    0.067195 0.242020 0.809615 0.198685
H34   H     H_    0.009298 0.317183 0.730296 0.196814

loop_
_geom_bond_atom_site_label_1
_geom_bond_atom_site_label_2
_ccdc_geom_bond_type
C54   H34   S    
C51   H23   S    
Cu2   O4    S    
C54   C55   S    
C17   C29   A    
O12   H28   S    
C48   H19   S    
C4    C8    A    
Cu2   O6    S    
C53   O13   D    
C26   C27   A    
C17   C23   S    
C31   C43   A    
C1    O1    A    
C36   C37   A    
C38   C42   A    
C3    C7    A    
C50   H26   S    
C5    C6    A    
C35   C50   S    
C16   C25   A    
C40   H12   S    
Cu1   O5    S    
C55   H32   S    
C18   C19   A    
C34   O7    A    
C13   H1    S    
C11   C15   A    
C41   C52   S    
C19   C20   A    
C8    C9    A    
Cu1   N1    S    
C18   C30   A    
C34   O8    A    
C9    C10   A    
C44   C47   A    
C18   H6    S    
C52   O12   S    
C21   C22   A    
C53   O14   S    
C28   H5    S    
C33   H16   S    
C14   C45   A    
C19   H8    S    
C1    O2    A    
C31   H13   S    
O10   H22   S    
Cu2   N2    S    
C39   C40   A    
C50   C51   S    
C2    C48   A    
C16   C29   A    
C35   C36   A    
C2    C4    A    
O14   H29   S    
C12   O4    A    
C42   N1    A    
C15   H11   S    
Cu1   O3    S    
C34   C45   S    
C24   C25   A    
C55   H31   S    
C43   H10   S    
C40   C41   A    
Cu1   Cu2   S    
C49   O10   S    
C22   C27   A    
C12   O3    A    
C51   H25   S    
C15   C45   A    
C26   H3    S    
C42   H14   S    
C47   H18   S    
C32   N2    A    
C14   C53   S    
C54   H33   S    
C6    H20   S    
C43   N1    A    
C37   N2    A    
C46   C47   A    
C8    H21   S    
C22   C30   A    
C17   C28   A    
C24   C28   A    
C4    C5    A    
C10   C13   A    
C5    C11   A    
C6    C7    A    
C52   O11   D    
C3    C46   A    
Cu1   O7    S    
C32   C33   A    
C36   C38   A    
C2    C3    A    
C25   C26   A    
C46   H17   S    
C12   C44   S    
C50   H27   S    
Cu2   O2    S    
C38   C39   A    
C1    C30   S    
C33   C35   A    
C31   C39   A    
C23   O5    A    
C37   C41   A    
C55   H30   S    
C16   H4    S    
C10   C11   A    
C7    C49   S    
C20   C21   A    
C9    C54   S    
C49   O9    D    
C21   C24   A    
C51   H24   S    
Cu1   O1    S    
C27   H9    S    
C23   O6    A    
C20   H7    S    
C13   C14   A    
C44   C48   A    
Cu2   O8    S    
C32   H15   S    
C29   H2    S    
