data_mof_unit_57187.cif
_audit_creation_date              2012-12-10T18:31:54-0500
_audit_creation_method            fapswitch 2.2
_symmetry_space_group_name_H-M    P1
_symmetry_Int_Tables_number       1
_space_group_crystal_system       triclinic
_cell_length_a                    10.635024
_cell_length_b                    14.963482
_cell_length_c                    15.432425
_cell_angle_alpha                 81.402816
_cell_angle_beta                  90.267703
_cell_angle_gamma                 104.512986
_cell_volume                      2349.41111268

loop_
_atom_site_label
_atom_site_type_symbol
_atom_type_description
_atom_site_fract_x
_atom_site_fract_y
_atom_site_fract_z
_atom_type_partial_charge
C1    C     C_R   0.478644 0.440808 0.662423 0.892483
C2    C     C_3   0.122457 0.501396 0.492220 -0.013194
C3    C     C_3   0.108464 0.595854 0.439378 0.317157
C4    C     C_3   0.069309 0.491034 0.587831 -0.536256
C5    C     C_R   0.463312 0.401718 0.755978 -0.162159
C6    C     C_R   0.549212 0.593357 0.245186 -0.156315
C7    C     C_R   0.365236 0.283520 0.878388 -0.282504
C8    C     C_R   0.380389 0.313024 0.786817 0.515312
C9    C     C_R   0.530858 0.456917 0.814498 -0.326294
C10   C     C_R   0.515832 0.428721 0.905026 0.024901
C11   C     C_R   0.429985 0.341124 0.937328 -0.012309
C12   C     C_R   0.742536 0.502366 0.495910 0.857595
C13   C     C_R   0.574427 0.489851 0.963832 0.089012
C14   C     C_R   0.528903 0.469559 0.051915 -0.013215
C15   C     C_R   0.457653 0.377863 0.084551 -0.276577
C16   C     C_R   0.405662 0.314205 0.028044 0.506667
C17   C     C_R   0.676040 0.570753 0.937776 -0.211092
C18   C     C_R   0.720977 0.634737 0.994525 -0.220367
C19   C     C_R   0.662342 0.621706 0.077525 0.115783
C20   C     C_R   0.560970 0.540636 0.105388 -0.008886
C21   C     C_R   0.705127 0.687827 0.133777 -0.215215
C22   C     C_R   0.651987 0.671818 0.218679 -0.318409
C23   C     C_R   0.518933 0.558606 0.337803 0.901216
C24   C     C_R   0.493332 0.534972 0.185111 0.466660
C25   C     C_R   0.742205 0.858213 0.589386 0.368850
C26   C     C_R   0.689081 0.762212 0.591130 0.538606
C27   C     C_R   0.501479 0.790405 0.519401 -0.174784
C28   C     C_R   0.550134 0.887911 0.514323 -0.126333
C29   C     C_R   0.678532 0.921828 0.542712 -0.154102
C30   C     C_R   0.478046 0.952557 0.479551 0.132680
C31   C     C_R   0.537059 0.049540 0.473526 0.012140
C32   C     C_R   0.671800 0.079047 0.482180 -0.316043
C33   C     C_R   0.743213 0.017220 0.519932 0.548305
C34   C     C_R   0.258602 0.500570 0.496389 0.932218
C35   C     C_R   0.349354 0.924486 0.451228 -0.208393
C36   C     C_R   0.281899 0.990216 0.418847 -0.156327
C37   C     C_R   0.335441 0.084887 0.421678 0.119477
C38   C     C_R   0.460852 0.114896 0.454668 -0.101051
C39   C     C_R   0.263155 0.149620 0.394923 -0.308371
C40   C     C_R   0.312051 0.241994 0.406634 -0.081184
C41   C     C_R   0.500160 0.208012 0.473305 0.625161
C42   C     C_3   0.900615 0.415880 0.454181 0.340852
C43   C     C_3   0.044708 0.419415 0.447275 -0.482844
C44   C     C_3   0.963843 0.598899 0.440763 0.306712
C45   C     C_3   0.926789 0.495568 0.588039 -0.463838
C46   C     C_3   0.880017 0.504205 0.492376 -0.084757
H1    H     H_    0.694787 0.718099 0.264485 0.171243
H2    H     H_    0.588601 0.525212 0.787924 0.172802
H3    H     H_    0.860692 0.355500 0.506637 0.168595
H4    H     H_    0.255631 0.292138 0.387296 0.174662
H5    H     H_    0.059731 0.351699 0.480540 0.159957
H6    H     H_    0.298010 0.852409 0.452762 0.131019
H7    H     H_    0.168373 0.128594 0.367242 0.170661
H8    H     H_    0.866360 0.431622 0.628892 0.159301
H9    H     H_    0.077098 0.423182 0.625474 0.204761
N1    N     N_R   0.573860 0.731700 0.552730 -0.164608
N2    N     N_R   0.426060 0.268290 0.447230 -0.130355
O1    O     O_R   0.462770 0.383110 0.605620 -0.571207
O2    O     O_R   0.510160 0.531900 0.639510 -0.603723
O3    O     O_R   0.661510 0.425600 0.483070 -0.548450
O4    O     O_R   0.708900 0.574390 0.516960 -0.529659
O5    O     O_R   0.489840 0.468100 0.360490 -0.567813
O6    O     O_R   0.537230 0.616890 0.394380 -0.647613
O7    O     O_R   0.291100 0.425610 0.483040 -0.626780
O8    O     O_R   0.338490 0.574400 0.516930 -0.652978
Zn1   Zn    Zn3+2 0.468350 0.400660 0.477370 1.017528
Zn2   Zn    Zn3+2 0.531650 0.599340 0.522630 0.961620
O9    O     O_3   0.830599 0.388020 0.379415 -0.574364
C47   C     C_3   0.848248 0.457797 0.305217 -0.279605
H10   H     H_    0.951158 0.496537 0.291362 0.180466
H11   H     H_    0.784349 0.505070 0.310998 0.146197
H12   H     H_    0.816171 0.423357 0.247220 0.187250
H13   H     H_    0.127460 0.547561 0.621803 0.206893
O10   O     O_3   0.952989 0.674755 0.483738 -0.576119
C48   C     C_3   0.926829 0.748631 0.424142 -0.231502
H14   H     H_    0.828073 0.727262 0.397992 0.158049
H15   H     H_    0.000806 0.772933 0.369544 0.116475
H16   H     H_    0.929806 0.808461 0.459409 0.217372
H17   H     H_    0.164291 0.653059 0.474308 0.127972
O11   O     O_3   0.334597 0.224523 0.061104 -0.610766
C49   C     C_3   0.217697 0.228544 0.101469 -0.329709
H18   H     H_    0.164776 0.272162 0.058020 0.155331
H19   H     H_    0.235685 0.254392 0.165413 0.186384
H20   H     H_    0.153418 0.156781 0.114964 0.190729
O12   O     O_3   0.375669 0.470286 0.207884 -0.620352
C50   C     C_3   0.275930 0.503704 0.164280 -0.327804
H21   H     H_    0.285252 0.506392 0.092127 0.162804
H22   H     H_    0.274249 0.573553 0.179874 0.180281
H23   H     H_    0.181203 0.454807 0.187059 0.192080
H24   H     H_    0.800296 0.695355 0.972772 0.135314
H25   H     H_    0.297209 0.218275 0.904259 0.188266
O13   O     O_3   0.304976 0.264326 0.726291 -0.607160
C51   C     C_3   0.271123 0.166559 0.752408 -0.387095
H26   H     H_    0.354120 0.140666 0.781019 0.158683
H27   H     H_    0.242795 0.132765 0.693505 0.198994
H28   H     H_    0.185212 0.145135 0.798451 0.176872
H29   H     H_    0.444517 0.353648 0.154201 0.219196
H30   H     H_    0.726592 0.583676 0.875258 0.124768
H31   H     H_    0.784311 0.749021 0.113767 0.149303
O14   O     O_3   0.878193 0.044745 0.525056 -0.561624
C52   C     C_3   0.922434 0.134587 0.549104 -0.311369
H32   H     H_    0.857463 0.147793 0.599534 0.146737
H33   H     H_    0.935070 0.188925 0.490168 0.168160
H34   H     H_    0.019400 0.140150 0.577854 0.202870
O15   O     O_3   0.607411 0.238353 0.522115 -0.603296
C53   C     C_3   0.575575 0.204656 0.611691 -0.356757
H35   H     H_    0.651983 0.243254 0.651177 0.179714
H36   H     H_    0.572816 0.129318 0.627551 0.151836
H37   H     H_    0.481450 0.215863 0.631901 0.216253
H38   H     H_    0.184599 0.966345 0.395666 0.144284
O16   O     O_3   0.861479 0.888170 0.626155 -0.540150
C54   C     C_3   0.841429 0.920274 0.705354 -0.292034
H39   H     H_    0.936087 0.939091 0.737286 0.183634
H40   H     H_    0.773929 0.865387 0.751872 0.115207
H41   H     H_    0.803771 0.983748 0.693805 0.167575
O17   O     O_3   0.763688 0.699949 0.615838 -0.525302
C55   C     C_3   0.775755 0.686375 0.707361 -0.267695
H42   H     H_    0.791869 0.615911 0.726968 0.155295
H43   H     H_    0.687651 0.690137 0.744130 0.111548
H44   H     H_    0.863384 0.736551 0.726157 0.197449
H45   H     H_    0.411476 0.759664 0.491173 0.157650
H46   H     H_    0.722265 0.150283 0.457447 0.216443
H47   H     H_    0.079281 0.427059 0.378123 0.227334
H48   H     H_    0.930867 0.607407 0.372417 0.071163
O18   O     O_3   0.154452 0.604907 0.351220 -0.654063
C56   C     C_3   0.243152 0.692322 0.325094 -0.375570
H49   H     H_    0.335233 0.696261 0.360137 0.197110
H50   H     H_    0.201611 0.751051 0.335701 0.157620
H51   H     H_    0.266263 0.700408 0.253985 0.192591
H52   H     H_    0.917025 0.555702 0.619638 0.262255

loop_
_geom_bond_atom_site_label_1
_geom_bond_atom_site_label_2
_ccdc_geom_bond_type
C51   H26   S    
C35   C36   A    
N2    Zn1   S    
C3    H17   S    
C54   H40   S    
C49   H18   S    
C27   H45   S    
C7    C8    A    
O12   C50   S    
C7    C11   A    
C52   H32   S    
C41   O15   S    
C30   C35   A    
C1    C5    S    
C28   C29   A    
C19   C21   A    
C1    O2    A    
C30   C31   A    
C21   H31   S    
C50   H22   S    
C53   H35   S    
C15   C16   A    
C6    C22   A    
C29   C33   A    
O17   C55   S    
C18   C19   A    
C42   C46   S    
C47   H11   S    
C20   C24   A    
O13   C51   S    
O2    Zn2   S    
O1    Zn1   S    
C23   O5    A    
O16   C54   S    
O9    C47   S    
O8    Zn2   S    
C8    O13   S    
C24   O12   S    
C2    C34   S    
C23   O6    A    
C22   H1    S    
C7    H25   S    
C45   H52   S    
C52   H33   S    
C21   C22   A    
C42   O9    S    
C15   H29   S    
C34   O8    A    
C54   H39   S    
C49   H19   S    
C44   C46   S    
C4    C45   S    
C25   C29   A    
O6    Zn2   S    
C3    C44   S    
O10   C48   S    
O5    Zn1   S    
C18   H24   S    
C32   H46   S    
C38   C41   A    
C12   C46   S    
C55   H44   S    
C39   C40   A    
C50   H21   S    
C56   H51   S    
C25   C26   A    
C45   C46   S    
C50   H23   S    
C16   O11   S    
O7    Zn1   S    
C47   H12   S    
C2    C4    S    
C48   H14   S    
C5    C9    A    
C37   C38   A    
C14   C20   A    
C11   C16   A    
O4    Zn2   S    
C31   C32   A    
C2    C43   S    
C6    C24   A    
C34   O7    A    
C17   C18   A    
C44   O10   S    
C48   H15   S    
C4    H13   S    
C45   H8    S    
C52   H34   S    
C4    H9    S    
C36   H38   S    
O18   C56   S    
C42   C43   S    
C43   H47   S    
C35   H6    S    
C49   H20   S    
C17   H30   S    
C36   C37   A    
C56   H50   S    
C40   N2    A    
C27   N1    A    
O11   C49   S    
C10   C13   A    
C26   N1    A    
C5    C8    A    
C3    O18   S    
C51   H28   S    
N1    Zn2   S    
O15   C53   S    
C55   H42   S    
C31   C38   A    
C13   C17   A    
C33   O14   S    
C32   C33   A    
C19   C20   A    
C55   H43   S    
C2    C3    S    
C41   N2    A    
C37   C39   A    
C1    O1    A    
C12   O4    A    
C43   H5    S    
C39   H7    S    
C53   H36   S    
C56   H49   S    
C40   H4    S    
C6    C23   S    
C28   C30   A    
O14   C52   S    
C44   H48   S    
C9    C10   A    
C47   H10   S    
C48   H16   S    
C26   O17   S    
C10   C11   A    
C25   O16   S    
C42   H3    S    
O3    Zn1   S    
C12   O3    A    
C9    H2    S    
C51   H27   S    
C27   C28   A    
C14   C15   A    
C13   C14   A    
C54   H41   S    
C53   H37   S    
