data_mof_unit_68090.cif
_audit_creation_date              2013-03-05T15:55:56-0500
_audit_creation_method            fapswitch 2.2
_symmetry_space_group_name_H-M    P1
_symmetry_Int_Tables_number       1
_space_group_crystal_system       triclinic
_cell_length_a                    21.674437
_cell_length_b                    7.227222
_cell_length_c                    14.972793
_cell_angle_alpha                 90.047646
_cell_angle_beta                  107.173963
_cell_angle_gamma                 89.787638
_cell_volume                      2240.83575415

loop_
_atom_site_label
_atom_site_type_symbol
_atom_site_description
_atom_site_fract_x
_atom_site_fract_y
_atom_site_fract_z
_atom_type_partial_charge
O1    O     O_R   0.335860 0.638190 0.002110 -0.578414
O2    O     O_R   0.664140 0.361810 0.997890 -0.581376
O3    O     O_R   0.164140 0.138190 0.997890 -0.583564
O4    O     O_R   0.835860 0.861810 0.002110 -0.581638
O5    O     O_R   0.217530 0.305920 0.861960 -0.595920
O6    O     O_R   0.782470 0.694080 0.138040 -0.603169
O7    O     O_R   0.282470 0.805920 0.138040 -0.605148
O8    O     O_R   0.717530 0.194080 0.861960 -0.593969
C1    C     C_R   0.207112 0.478102 0.825525 1.079483
C2    C     C_R   0.791744 0.522224 0.174743 1.039901
C3    C     C_R   0.294807 0.977476 0.174381 1.078573
C4    C     C_R   0.708167 0.021972 0.825032 1.022496
O9    O     O_R   0.338690 0.308320 0.993240 -0.570866
O10   O     O_R   0.661310 0.691680 0.006760 -0.569627
O11   O     O_R   0.161310 0.808320 0.006760 -0.564865
O12   O     O_R   0.838690 0.191680 0.993240 -0.562309
O13   O     O_R   0.286170 0.140430 0.130100 -0.588066
O14   O     O_R   0.713830 0.859570 0.869900 -0.581206
O15   O     O_R   0.213830 0.640430 0.869900 -0.604080
O16   O     O_R   0.786170 0.359570 0.130100 -0.590779
C5    C     C_R   0.364885 0.476782 0.998105 0.962924
C6    C     C_R   0.635554 0.522760 0.004287 0.963516
C7    C     C_R   0.135090 0.976756 0.002038 0.954673
C8    C     C_R   0.864582 0.022253 0.996683 0.964900
O17   O     O_3   0.232630 0.472410 0.044750 -0.300253
O18   O     O_3   0.767370 0.527590 0.955250 -0.288752
O19   O     O_3   0.267370 0.972410 0.955250 -0.302131
O20   O     O_3   0.732630 0.027590 0.044750 -0.304063
V1    V     V_3+5 0.253220 0.196620 0.991700 1.187068
V2    V     V_3+5 0.746780 0.803380 0.008300 1.181546
V3    V     V_3+5 0.246780 0.696620 0.008300 1.187348
V4    V     V_3+5 0.753220 0.303380 0.991700 1.185270
C9    C     C_R   0.034244 0.832466 0.027710 0.560692
C10   C     C_R   0.963753 0.158736 0.963566 0.579648
C11   C     C_R   0.465040 0.338849 0.967476 0.567715
C12   C     C_R   0.536378 0.657529 0.040835 0.557548
C13   C     C_R   0.968891 0.846329 0.024149 -0.310914
C14   C     C_R   0.029579 0.147282 0.969678 -0.309961
C15   C     C_R   0.530665 0.351548 0.972824 -0.283221
C16   C     C_R   0.470629 0.645144 0.035078 -0.279861
H1    H     H_    0.946439 0.727661 0.045767 0.213206
H2    H     H_    0.051858 0.264803 0.946944 0.213979
H3    H     H_    0.552834 0.236588 0.947807 0.199950
H4    H     H_    0.448381 0.759581 0.060662 0.207652
C17   C     C_R   0.933099 0.009562 0.994411 -0.368561
C18   C     C_R   0.065779 0.985222 0.000850 -0.358036
C19   C     C_R   0.567007 0.511069 0.007014 -0.379684
C20   C     C_R   0.434140 0.486593 0.999488 -0.354783
C21   C     C_R   0.684304 0.002255 0.721625 -0.496054
C22   C     C_R   0.324183 0.990877 0.276673 -0.490120
C23   C     C_R   0.816676 0.506626 0.277827 -0.536165
C24   C     C_R   0.178039 0.494113 0.723454 -0.477605
C25   C     C_R   0.683171 0.809784 0.587998 -0.318709
C26   C     C_R   0.317968 0.092367 0.427989 -0.296609
C27   C     C_R   0.815238 0.352194 0.421005 -0.290352
C28   C     C_R   0.184485 0.576668 0.569632 -0.318711
C29   C     C_R   0.716385 0.881543 0.675588 0.564599
C30   C     C_R   0.287302 0.056809 0.333529 0.525587
C31   C     C_R   0.783655 0.400765 0.328238 0.547990
C32   C     C_R   0.216109 0.537404 0.664287 0.530214
C33   C     C_R   0.622443 0.068823 0.672599 0.475543
C34   C     C_R   0.391395 0.961408 0.315325 0.512911
C35   C     C_R   0.878692 0.574842 0.323771 0.536392
C36   C     C_R   0.110195 0.486964 0.687200 0.491810
C37   C     C_R   0.585198 0.974127 0.590352 -0.060807
C38   C     C_R   0.420229 0.971972 0.414667 -0.076721
C39   C     C_R   0.914412 0.500038 0.412231 -0.031085
C40   C     C_R   0.079939 0.499856 0.588858 -0.052687
C41   C     C_R   0.618103 0.851434 0.546236 0.013355
C42   C     C_R   0.382947 0.047904 0.468874 0.012208
C43   C     C_R   0.879980 0.398118 0.462687 -0.009623
C44   C     C_R   0.117938 0.556002 0.532014 0.020345
C45   C     C_R   0.516260 0.987243 0.553317 -0.149176
C46   C     C_R   0.485472 0.919060 0.461528 -0.160249
C47   C     C_R   0.983113 0.516324 0.451014 -0.140843
C48   C     C_R   0.013109 0.461900 0.545513 -0.160785
C49   C     C_R   0.518824 0.783758 0.424789 0.578778
C50   C     C_R   0.475408 0.040971 0.607889 0.629815
C51   C     C_R   0.978636 0.340046 0.587117 0.654096
C52   C     C_R   0.024440 0.552739 0.395062 0.641481
C53   C     C_R   0.584769 0.757763 0.464859 -0.364502
C54   C     C_R   0.410376 0.077146 0.564431 -0.347759
C55   C     C_R   0.912279 0.320103 0.549231 -0.378970
C56   C     C_R   0.090090 0.581307 0.436353 -0.378403
H5    H     H_    0.609475 0.657366 0.433963 0.159622
H6    H     H_    0.380875 0.126860 0.606503 0.138631
H7    H     H_    0.887138 0.227404 0.583403 0.153028
H8    H     H_    0.120125 0.611363 0.391726 0.147189
H9    H     H_    0.706800 0.707954 0.556097 0.163179
H10   H     H_    0.291376 0.159748 0.469610 0.160551
H11   H     H_    0.791292 0.261948 0.457786 0.167221
H12   H     H_    0.211392 0.621365 0.523569 0.154782
O21   O     O_3   0.064979 0.663452 0.051324 -0.611936
C57   C     C_3   0.095680 0.660542 0.148504 0.213153
H13   H     H_    0.060714 0.689263 0.188395 0.135034
H14   H     H_    0.135160 0.763700 0.167034 0.064718
C58   C     C_3   0.126026 0.471324 0.177262 -0.741004
H15   H     H_    0.167174 0.449491 0.149233 0.276962
H16   H     H_    0.144490 0.462581 0.254607 0.194604
H17   H     H_    0.090423 0.359828 0.150210 0.238940
O22   O     O_3   0.930073 0.318204 0.927680 -0.611014
C59   C     C_3   0.894416 0.283915 0.833714 0.189725
H18   H     H_    0.864788 0.157150 0.827232 0.050053
H19   H     H_    0.927581 0.268880 0.789788 0.125961
C60   C     C_3   0.847467 0.441953 0.796408 -0.727738
H20   H     H_    0.870469 0.577405 0.819858 0.272824
H21   H     H_    0.830816 0.436383 0.718937 0.178973
H22   H     H_    0.804565 0.427827 0.821450 0.269888
O23   O     O_3   0.432497 0.177078 0.934074 -0.620433
C61   C     C_3   0.398503 0.202767 0.838892 0.195716
H23   H     H_    0.432654 0.229021 0.797636 0.142537
H24   H     H_    0.363877 0.320172 0.829656 0.101335
C62   C     C_3   0.359617 0.030437 0.800881 -0.756740
H25   H     H_    0.323135 0.006634 0.837686 0.280905
H26   H     H_    0.333791 0.049482 0.725611 0.177285
H27   H     H_    0.391562 0.907339 0.810471 0.241209
O24   O     O_3   0.568956 0.818239 0.076010 -0.613617
C63   C     C_3   0.605474 0.786079 0.169627 0.200409
H28   H     H_    0.642213 0.676402 0.173740 0.066542
H29   H     H_    0.573736 0.746227 0.212977 0.107164
C64   C     C_3   0.641697 0.960478 0.210212 -0.748138
H30   H     H_    0.607281 0.074088 0.210456 0.242007
H31   H     H_    0.672102 0.932439 0.282712 0.184169
H32   H     H_    0.673475 0.003772 0.168188 0.288955
O25   O     O_3   0.427131 0.930186 0.253205 -0.595331
C65   C     C_3   0.476063 0.065141 0.262677 0.252393
H33   H     H_    0.524023 0.996906 0.285101 0.133121
H34   H     H_    0.476281 0.175792 0.314081 0.073051
C66   C     C_3   0.468841 0.155724 0.169141 -0.871248
H35   H     H_    0.419066 0.209128 0.141002 0.263934
H36   H     H_    0.503433 0.272134 0.177741 0.205183
H37   H     H_    0.478551 0.054207 0.119483 0.291406
O26   O     O_3   0.598327 0.218980 0.708939 -0.591054
C67   C     C_3   0.596825 0.377340 0.652717 0.364053
H38   H     H_    0.608045 0.351102 0.585543 0.052140
H39   H     H_    0.633181 0.477290 0.693502 0.114951
C68   C     C_3   0.530441 0.467104 0.630165 -0.978729
H40   H     H_    0.515222 0.481163 0.694459 0.268279
H41   H     H_    0.531445 0.604359 0.598651 0.204117
H42   H     H_    0.494335 0.384472 0.578236 0.238603
O27   O     O_3   0.074025 0.472237 0.749315 -0.591454
C69   C     C_3   0.052684 0.650325 0.765498 0.219978
H43   H     H_    0.034827 0.730668 0.700126 0.090859
H44   H     H_    0.092140 0.726276 0.816411 0.128523
C70   C     C_3   0.996131 0.634569 0.804515 -0.818157
H45   H     H_    0.009345 0.548360 0.868531 0.297594
H46   H     H_    0.981506 0.774308 0.821741 0.199228
H47   H     H_    0.955135 0.571861 0.750460 0.242898
O28   O     O_3   0.904727 0.707582 0.279156 -0.600626
C71   C     C_3   0.885887 0.885218 0.300870 0.382134
H48   H     H_    0.834723 0.891903 0.302300 0.082780
H49   H     H_    0.889563 0.981362 0.244894 0.118609
C72   C     C_3   0.931024 0.953054 0.393167 -1.097525
H50   H     H_    0.982124 0.933207 0.394627 0.265297
H51   H     H_    0.922288 0.101400 0.400851 0.246989
H52   H     H_    0.921723 0.878189 0.452433 0.257053
O29   O     O_3   0.224369 0.116999 0.293571 -0.648248
C73   C     C_3   0.180126 0.000359 0.319624 0.265872
H53   H     H_    0.195704 0.852372 0.327744 0.065883
H54   H     H_    0.134195 0.006451 0.261939 0.102013
C74   C     C_3   0.164667 0.068655 0.407436 -1.006741
H55   H     H_    0.164831 0.222240 0.410127 0.272807
H56   H     H_    0.116143 0.018856 0.407055 0.227322
H57   H     H_    0.199977 0.012337 0.471239 0.249160
O30   O     O_3   0.777941 0.816942 0.720200 -0.646501
C75   C     C_3   0.823707 0.910236 0.685723 0.249525
H58   H     H_    0.870565 0.904940 0.741534 0.115767
H59   H     H_    0.811654 0.059329 0.670253 0.064220
C76   C     C_3   0.834508 0.815229 0.600198 -0.989887
H60   H     H_    0.796640 0.857039 0.535574 0.243813
H61   H     H_    0.881863 0.858151 0.592680 0.229904
H62   H     H_    0.834724 0.662641 0.607750 0.274280
O31   O     O_3   0.282583 0.560158 0.703047 -0.657978
C77   C     C_3   0.318663 0.500491 0.642764 0.275708
H63   H     H_    0.292867 0.400517 0.587867 0.071043
H64   H     H_    0.361586 0.425012 0.685521 0.095192
C78   C     C_3   0.344215 0.664564 0.600150 -0.953665
H65   H     H_    0.359474 0.775978 0.652550 0.270441
H66   H     H_    0.386508 0.620190 0.577759 0.220329
H67   H     H_    0.307598 0.721712 0.538113 0.242556
O32   O     O_3   0.723394 0.327484 0.283831 -0.645678
C79   C     C_3   0.675198 0.414147 0.316281 0.282178
H68   H     H_    0.629861 0.413291 0.257351 0.107012
H69   H     H_    0.685878 0.562131 0.336082 0.055811
C80   C     C_3   0.661648 0.307858 0.396958 -1.023939
H70   H     H_    0.691954 0.361963 0.465139 0.234052
H71   H     H_    0.610268 0.326075 0.394622 0.230803
H72   H     H_    0.671218 0.157921 0.392729 0.279271
O33   O     O_3   0.487279 0.667328 0.352547 -0.610643
C81   C     C_3   0.450095 0.537436 0.384877 0.229731
H73   H     H_    0.431318 0.589570 0.441994 0.082959
H74   H     H_    0.480440 0.414028 0.411749 0.090802
C82   C     C_3   0.391925 0.481864 0.304199 -0.780031
H75   H     H_    0.406789 0.450250 0.241115 0.251724
H76   H     H_    0.368729 0.359078 0.324086 0.198468
H77   H     H_    0.355868 0.595348 0.287350 0.246438
O34   O     O_3   0.496569 0.055597 0.704199 -0.601002
C83   C     C_3   0.511560 0.877898 0.743637 0.160236
H78   H     H_    0.547795 0.805978 0.717354 0.108266
H79   H     H_    0.467627 0.791206 0.729939 0.097254
C84   C     C_3   0.541844 0.894904 0.847806 -0.722994
H80   H     H_    0.506114 0.943541 0.882191 0.265320
H81   H     H_    0.559015 0.756467 0.874521 0.195503
H82   H     H_    0.583656 0.990335 0.863580 0.255182
O35   O     O_3   0.010785 0.211373 0.653000 -0.606096
C85   C     C_3   0.038733 0.073704 0.609083 0.240092
H83   H     H_    0.043826 0.113147 0.539497 0.082488
H84   H     H_    0.007191 0.950469 0.596892 0.100672
C86   C     C_3   0.106040 0.023649 0.671575 -0.851081
H85   H     H_    0.141552 0.128481 0.664875 0.241313
H86   H     H_    0.106621 0.015765 0.745837 0.258304
H87   H     H_    0.121350 0.888838 0.649703 0.201778
O36   O     O_3   0.004197 0.525450 0.299643 -0.602823
C87   C     C_3   0.007747 0.334276 0.281854 0.175867
H88   H     H_    0.991212 0.246083 0.330989 0.092855
H89   H     H_    0.058210 0.294647 0.287514 0.121155
C88   C     C_3   0.965006 0.291608 0.184266 -0.802496
H90   H     H_    0.978036 0.380033 0.132049 0.275363
H91   H     H_    0.971261 0.143779 0.169129 0.188915
H92   H     H_    0.913737 0.317086 0.179945 0.250394

loop_
_geom_bond_atom_site_label_1
_geom_bond_atom_site_label_2
_geom_bond_distance
_ccdc_geom_bond_type
O17   V3    1.766821 S    
C55   H7    1.084199 S    
O21   C57   1.410171 S    
O1    C5    1.333002 A    
C65   H33   1.107637 S    
C9    C18   1.420005 A    
C27   C31   1.399514 A    
O19   V1    1.763902 S    
O13   V1    2.023461 S    
C76   H60   1.109455 S    
O3    C7    1.337989 A    
C48   C51   1.415117 A    
C52   C56   1.389968 A    
O15   V3    2.023833 S    
C70   H47   1.108007 S    
C67   C68   1.520417 S    
C58   H15   1.102869 S    
C33   O26   1.381929 S    
C38   C42   1.412861 A    
O36   C87   1.412987 S    
C88   H92   1.108602 S    
O7    C3    1.349181 A    
C68   H41   1.101872 S    
O30   C75   1.418790 S    
C59   C60   1.519495 S    
C8    C17   1.497917 S    
C36   C40   1.427021 A    
O9    V1    2.017394 S    
C26   H10   1.080396 S    
C70   H45   1.107469 S    
O4    C8    1.331962 A    
C87   H89   1.108380 S    
C80   H71   1.111139 S    
C29   O30   1.383421 S    
C36   O27   1.386457 S    
C11   C20   1.414866 A    
C38   C46   1.431328 A    
O32   C79   1.419151 S    
O1    V3    2.003576 S    
C86   H87   1.108102 S    
C37   C45   1.434857 A    
C12   C19   1.417752 A    
O2    V4    2.003573 S    
C45   C46   1.427113 A    
O3    V1    2.006620 S    
C79   H68   1.110032 S    
C35   O28   1.383000 S    
C64   H32   1.107281 S    
C27   H11   1.081645 S    
C24   C32   1.413386 A    
C73   C74   1.530504 S    
C70   H46   1.110148 S    
C61   H23   1.112088 S    
C1    O15   1.334855 A    
O29   C73   1.417669 S    
C2    O16   1.339900 A    
C82   H76   1.105022 S    
C46   C49   1.417770 A    
O2    C6    1.332534 A    
C65   H34   1.108505 S    
C45   C50   1.423571 A    
C74   H56   1.111279 S    
C83   H78   1.104984 S    
O14   V2    2.023462 S    
C50   O34   1.382218 S    
C72   H51   1.099864 S    
C47   C52   1.420823 A    
C88   H91   1.108104 S    
O5    V1    2.026470 S    
C11   O23   1.382524 S    
C40   C44   1.408687 A    
C71   H48   1.116340 S    
C66   H37   1.107155 S    
C82   H77   1.107377 S    
O11   C7    1.334592 A    
C6    C19   1.500979 S    
C68   H40   1.110395 S    
C25   C41   1.395336 A    
C69   H44   1.109763 S    
O12   C8    1.339739 A    
C7    C18   1.498130 S    
C63   H28   1.110240 S    
C75   H59   1.116045 S    
C32   O31   1.395539 S    
C84   H81   1.099784 S    
C69   C70   1.510201 S    
C75   H58   1.108987 S    
O34   C83   1.410126 S    
C1    C24   1.475523 S    
O10   V2    2.017390 S    
C2    C23   1.481310 S    
C58   H16   1.109736 S    
O16   V4    2.023831 S    
C53   H5    1.081700 S    
C74   H55   1.110670 S    
C43   C55   1.396311 A    
C4    C21   1.487388 S    
C61   H24   1.111999 S    
C60   H22   1.105591 S    
C35   C39   1.427755 A    
C10   O22   1.383126 S    
O7    V3    2.027445 S    
C34   C38   1.435287 A    
O9    C5    1.338117 A    
O8    V4    2.027446 S    
O22   C59   1.413110 S    
C12   C16   1.405235 A    
C21   C33   1.408064 A    
C24   C36   1.410232 A    
C25   C29   1.396862 A    
C85   H83   1.116984 S    
C80   H72   1.107816 S    
C67   H39   1.111280 S    
C57   C58   1.521575 S    
C78   H66   1.111170 S    
C88   H90   1.109946 S    
O31   C77   1.423342 S    
C71   C72   1.520284 S    
C9    C13   1.404881 A    
C28   C32   1.408709 A    
C63   C64   1.516133 S    
C22   C30   1.410372 A    
C11   C15   1.404190 A    
C47   C48   1.426590 A    
C81   H73   1.114828 S    
O5    C1    1.350337 A    
O26   C67   1.415886 S    
C60   H21   1.109134 S    
C50   C54   1.390861 A    
C26   C42   1.396184 A    
C49   C53   1.389237 A    
O8    C4    1.352235 A    
C78   H67   1.107305 S    
C83   C84   1.508090 S    
C4    O14   1.339976 A    
C86   H85   1.107507 S    
C23   C35   1.407600 A    
C57   H13   1.113616 S    
C10   C17   1.415780 A    
C40   C48   1.429021 A    
C72   H52   1.108194 S    
C57   H14   1.108704 S    
C12   O24   1.382198 S    
C61   C62   1.519465 S    
C64   H30   1.108020 S    
C44   C56   1.392238 A    
C77   C78   1.527981 S    
C63   H29   1.114857 S    
O6    V2    2.026469 S    
C16   H4    1.081154 S    
C82   H75   1.107676 S    
C25   H9    1.083127 S    
O25   C65   1.419441 S    
C22   C34   1.415111 A    
C84   H82   1.109373 S    
C71   H49   1.110136 S    
C81   C82   1.521058 S    
C39   C47   1.434887 A    
C13   C17   1.407806 A    
C74   H57   1.109311 S    
C15   C19   1.406879 A    
C62   H25   1.103187 S    
C26   C30   1.397736 A    
O33   C81   1.414891 S    
C16   C20   1.406885 A    
O35   C85   1.420899 S    
C3    O13   1.337156 A    
C81   H74   1.109023 S    
C58   H17   1.108317 S    
C79   H69   1.116297 S    
C28   C44   1.393444 A    
C10   C14   1.404575 A    
C56   H8    1.084263 S    
C87   C88   1.513362 S    
C9    O21   1.384358 S    
O6    C2    1.348750 A    
C34   O25   1.392751 S    
C15   H3    1.079024 S    
C62   H27   1.108358 S    
O11   V3    2.011903 S    
C67   H38   1.118245 S    
O18   V4    1.766822 S    
O12   V4    2.011907 S    
C60   H20   1.108979 S    
C52   O36   1.379334 S    
O24   C63   1.410417 S    
C65   C66   1.511874 S    
C84   H80   1.105225 S    
C59   H19   1.113368 S    
C31   O32   1.385715 S    
C49   O33   1.382589 S    
C5    C20   1.497011 S    
O20   V2    1.763901 S    
C66   H35   1.104151 S    
C3    C22   1.478130 S    
C54   H6    1.081923 S    
O28   C71   1.412244 S    
C14   C18   1.408229 A    
C51   C55   1.389502 A    
C73   H54   1.109486 S    
C85   C86   1.524851 S    
O10   C6    1.340219 A    
C80   H70   1.109857 S    
C73   H53   1.116243 S    
C37   C41   1.415567 A    
C30   O29   1.386308 S    
C87   H88   1.110896 S    
C76   H62   1.108517 S    
C77   H64   1.103655 S    
C39   C43   1.417103 A    
C13   H1    1.083364 S    
C59   H18   1.108396 S    
C42   C54   1.394006 A    
O4    V2    2.006622 S    
C64   H31   1.109344 S    
C41   C53   1.395452 A    
C77   H63   1.113945 S    
C14   H2    1.082146 S    
C33   C37   1.432550 A    
C21   C29   1.413245 A    
C28   H12   1.076776 S    
C23   C31   1.411152 A    
C75   C76   1.529863 S    
C78   H65   1.104988 S    
O23   C61   1.409852 S    
C69   H43   1.104800 S    
C86   H86   1.109764 S    
C68   H42   1.103162 S    
C83   H79   1.109157 S    
C62   H26   1.108851 S    
C72   H50   1.110083 S    
O27   C69   1.410853 S    
C85   H84   1.106574 S    
C79   C80   1.532401 S    
C27   C43   1.398102 A    
C51   O35   1.383556 S    
C66   H36   1.110865 S    
C76   H61   1.110411 S    
