data_mof_unit_53459.cif
_audit_creation_date              2012-12-10T19:48:41-0500
_audit_creation_method            fapswitch 2.2
_symmetry_space_group_name_H-M    P1
_symmetry_Int_Tables_number       1
_space_group_crystal_system       triclinic
_cell_length_a                    13.111148
_cell_length_b                    14.164238
_cell_length_c                    14.908611
_cell_angle_alpha                 89.336248
_cell_angle_beta                  90.364887
_cell_angle_gamma                 69.626282
_cell_volume                      2595.1325445

loop_
_atom_site_label
_atom_site_type_symbol
_atom_type_description
_atom_site_fract_x
_atom_site_fract_y
_atom_site_fract_z
_atom_type_partial_charge
C1    C     C_R   0.499725 0.499469 0.672998 1.013551
C2    C     C_R   0.988942 0.445604 0.511662 -0.066315
C3    C     C_R   0.881460 0.462786 0.539627 -0.170893
C4    C     C_R   0.030557 0.525410 0.524540 0.124356
C5    C     C_R   0.972776 0.610803 0.576853 -0.065486
C6    C     C_R   0.878595 0.611555 0.620532 -0.237421
C7    C     C_R   0.834593 0.537397 0.604506 0.568444
C8    C     C_R   0.126903 0.524002 0.485564 -0.270822
C9    C     C_R   0.117494 0.680107 0.554192 0.465706
C10   C     C_R   0.824058 0.404820 0.502336 -0.225750
C11   C     C_R   0.596630 0.397244 0.902763 0.424694
C12   C     C_R   0.704904 0.443692 0.501507 0.977195
C13   C     C_R   0.569203 0.400541 0.812000 0.383623
C14   C     C_R   0.510524 0.494471 0.770282 -0.303134
C15   C     C_R   0.473312 0.583391 0.821497 -0.094134
C16   C     C_R   0.497272 0.577130 0.912554 -0.282344
C17   C     C_R   0.556052 0.484939 0.953140 -0.119890
C18   C     C_R   0.589276 0.547711 0.099611 -0.189521
C19   C     C_R   0.569954 0.555357 0.190809 -0.168551
C20   C     C_R   0.519218 0.494334 0.232095 -0.047481
C21   C     C_R   0.491559 0.423137 0.182868 -0.231776
C22   C     C_R   0.510301 0.415928 0.091797 -0.091296
C23   C     C_R   0.502403 0.499625 0.327487 0.835088
C24   C     C_R   0.557663 0.479201 0.049979 0.183144
C25   C     C_R   0.547913 0.875918 0.577283 -0.244313
C26   C     C_R   0.543614 0.777996 0.572925 0.038462
C27   C     C_R   0.461540 0.813058 0.428552 -0.054200
C28   C     C_R   0.465634 0.911882 0.430110 0.447548
C29   C     C_R   0.507891 0.944606 0.505769 0.115122
C30   C     C_R   0.583953 0.077968 0.458622 0.495886
C31   C     C_R   0.576599 0.180148 0.453546 -0.119390
C32   C     C_R   0.427971 0.227996 0.552392 -0.023196
C33   C     C_R   0.428068 0.128124 0.558403 -0.244188
C34   C     C_R   0.294925 0.556301 0.499800 0.947328
C35   C     C_R   0.507347 0.051215 0.509597 -0.046516
C36   C     C_R   0.013957 0.690648 0.588298 -0.110702
C37   C     C_R   0.176731 0.591484 0.509571 -0.223344
C38   C     C_R   0.881158 0.313821 0.459230 0.383436
C39   C     C_R   0.994743 0.279391 0.459831 -0.268325
C40   C     C_R   0.048944 0.348407 0.475699 0.460469
H1    H     H_    0.464104 0.643601 0.953386 0.205200
H2    H     H_    0.625483 0.597062 0.067168 0.156813
H3    H     H_    0.594867 0.608415 0.228915 0.187117
H4    H     H_    0.453269 0.374871 0.214354 0.161217
H5    H     H_    0.483216 0.364462 0.053299 0.154390
H6    H     H_    0.581835 0.898126 0.636403 0.174085
H7    H     H_    0.575533 0.726236 0.628547 0.187995
H8    H     H_    0.839193 0.667897 0.669579 0.191933
H9    H     H_    0.632258 0.202163 0.412400 0.170126
H10   H     H_    0.369535 0.287469 0.589519 0.207384
H11   H     H_    0.168562 0.469246 0.437667 0.216281
N1    N     N_R   0.500000 0.747530 0.500020 -0.148428
N2    N     N_R   0.499940 0.252470 0.500020 -0.124424
O1    O     O_R   0.499990 0.420530 0.630930 -0.591507
O2    O     O_R   0.499990 0.579480 0.630940 -0.593754
O3    O     O_R   0.653620 0.381060 0.499970 -0.570476
O4    O     O_R   0.653620 0.540010 0.499980 -0.601916
O5    O     O_R   0.500010 0.420520 0.369060 -0.631105
O6    O     O_R   0.500010 0.579470 0.369070 -0.615904
O7    O     O_R   0.346380 0.459990 0.500020 -0.626656
O8    O     O_R   0.346380 0.618940 0.500030 -0.519441
Zn1   Zn    Zn3+2 0.500000 0.393860 0.499990 0.979998
Zn2   Zn    Zn3+2 0.500000 0.606140 0.500010 1.025271
O9    O     O_3   0.162881 0.753518 0.568029 -0.574775
C41   C     C_3   0.125754 0.827489 0.499478 -0.136990
H12   H     H_    0.134539 0.794027 0.431482 0.155003
H13   H     H_    0.175384 0.876896 0.501647 0.224329
H14   H     H_    0.039575 0.875575 0.510092 0.145975
O10   O     O_3   0.610872 0.313786 0.762249 -0.585174
C42   C     C_3   0.543750 0.255430 0.773841 -0.173146
H15   H     H_    0.571838 0.190339 0.728155 0.172769
H16   H     H_    0.457283 0.298996 0.756144 0.147015
H17   H     H_    0.549652 0.225033 0.843503 0.186514
C43   C     C_2   0.403970 0.682890 0.784302 0.963417
O11   O     O_2   0.417480 0.759555 0.809741 -0.612075
O12   O     O_R   0.320659 0.689676 0.722962 -0.763676
H18   H     H_    0.278465 0.761969 0.704552 0.396023
C44   C     C_2   0.412843 0.783445 0.349229 0.972723
O13   O     O_2   0.446307 0.792310 0.274364 -0.602615
O14   O     O_R   0.325046 0.750258 0.359237 -0.810637
H19   H     H_    0.297728 0.733533 0.299860 0.326144
O15   O     O_3   0.432757 0.974800 0.355708 -0.580140
C45   C     C_3   0.320246 0.028231 0.361596 -0.223274
H20   H     H_    0.302650 0.081112 0.418509 0.192211
H21   H     H_    0.272395 0.977288 0.368186 0.179589
H22   H     H_    0.292916 0.072862 0.298801 0.188028
O16   O     O_3   0.660359 0.004115 0.409677 -0.585311
C46   C     C_3   0.766409 0.002592 0.429528 -0.226817
H23   H     H_    0.779219 0.011710 0.502446 0.168291
H24   H     H_    0.785134 0.060977 0.389465 0.184286
H25   H     H_    0.825430 0.928351 0.410210 0.197812
C47   C     C_2   0.342888 0.109215 0.614409 0.999434
O17   O     O_2   0.332588 0.026728 0.616343 -0.600376
O18   O     O_R   0.272543 0.187337 0.664875 -0.795281
H26   H     H_    0.217530 0.166061 0.699373 0.362505
C48   C     C_2   0.951351 0.784110 0.636352 0.904227
O19   O     O_2   0.996896 0.819373 0.691615 -0.562504
O20   O     O_R   0.840877 0.833138 0.616591 -0.837010
H27   H     H_    0.807355 0.896171 0.653111 0.337899
O21   O     O_3   0.827454 0.254306 0.423077 -0.592600
C49   C     C_3   0.794266 0.288672 0.334486 -0.313340
H28   H     H_    0.766205 0.232646 0.300644 0.192511
H29   H     H_    0.861456 0.297595 0.293950 0.130408
H30   H     H_    0.725260 0.361331 0.334167 0.164274
O22   O     O_3   0.161257 0.315186 0.468453 -0.579008
C50   C     C_3   0.190100 0.298942 0.376900 -0.388739
H31   H     H_    0.144702 0.364915 0.333455 0.145670
H32   H     H_    0.176279 0.231835 0.350452 0.155016
H33   H     H_    0.278161 0.286298 0.370755 0.213421
C51   C     C_2   0.056321 0.169606 0.453508 1.003808
O23   O     O_2   0.116134 0.126543 0.515582 -0.563033
O24   O     O_R   0.047332 0.113727 0.379171 -0.811786
H34   H     H_    0.007310 0.157071 0.326860 0.307939
O25   O     O_3   0.748907 0.535767 0.657230 -0.616988
C52   C     C_3   0.791303 0.466932 0.728873 -0.333248
H35   H     H_    0.865136 0.474960 0.760489 0.158243
H36   H     H_    0.809320 0.388417 0.705996 0.193978
H37   H     H_    0.729450 0.482411 0.782062 0.188976
O26   O     O_3   0.658045 0.306669 0.943117 -0.605916
C53   C     C_3   0.767869 0.299913 0.943708 -0.257217
H38   H     H_    0.779829 0.361580 0.983167 0.142979
H39   H     H_    0.798507 0.300196 0.874269 0.172504
H40   H     H_    0.817426 0.227499 0.976262 0.198489

loop_
_geom_bond_atom_site_label_1
_geom_bond_atom_site_label_2
_ccdc_geom_bond_type
O5    Zn1   S    
C23   O5    A    
O16   C46   S    
C49   H28   S    
C34   C37   S    
C19   C20   A    
C4    C8    A    
C27   C44   S    
C11   O26   S    
O25   C52   S    
C53   H38   S    
C23   O6    A    
C6    H8    S    
C30   C35   A    
C18   C24   A    
C7    O25   S    
C28   C29   A    
C3    C7    A    
C18   H2    S    
C30   C31   A    
C44   O14   S    
C50   H31   S    
C15   C16   A    
C9    O9    S    
C5    C36   A    
O7    Zn1   S    
C18   C19   A    
O8    Zn2   S    
C51   O23   D    
C47   O17   D    
C39   C51   S    
C19   H3    S    
C16   C17   A    
C41   H13   S    
C48   O20   S    
C9    C36   A    
C20   C23   S    
C42   H15   S    
C53   H40   S    
C46   H23   S    
C41   H14   S    
C49   H29   S    
C21   C22   A    
C34   O7    A    
O10   C42   S    
C31   H9    S    
C10   C12   S    
C47   O18   S    
O24   H34   S    
C53   H39   S    
O4    Zn2   S    
C25   C29   A    
C38   C39   A    
C17   C24   S    
C43   O11   D    
C28   O15   S    
O12   H18   S    
C38   O21   S    
C33   C47   S    
C39   C40   A    
C44   O13   D    
O14   H19   S    
O1    Zn1   S    
C52   H36   S    
C25   C26   A    
C34   O8    A    
O2    Zn2   S    
C15   C43   S    
C2    C4    A    
C1    O1    A    
C26   N1    A    
C21   H4    S    
N2    Zn1   S    
C36   C48   S    
C45   H20   S    
C46   H25   S    
C52   H37   S    
C48   O19   D    
C22   H5    S    
C42   H17   S    
C9    C37   A    
C31   N2    A    
C8    H11   S    
C32   H10   S    
C12   O3    A    
C43   O12   S    
C26   H7    S    
C12   O4    A    
C45   H21   S    
C46   H24   S    
O20   H27   S    
C49   H30   S    
C22   C24   A    
C8    C37   A    
C32   N2    A    
C27   N1    A    
C11   C17   A    
C4    C5    A    
N1    Zn2   S    
O26   C53   S    
C6    C7    A    
O22   C50   S    
C29   C35   S    
O6    Zn2   S    
C10   C38   A    
C32   C33   A    
C13   O10   S    
C2    C3    A    
C1    O2    A    
C3    C10   A    
O9    C41   S    
C11   C13   A    
C5    C6    A    
C50   H32   S    
C16   H1    S    
O21   C49   S    
C33   C35   A    
O3    Zn1   S    
C41   H12   S    
O18   H26   S    
C51   O24   S    
C2    C40   A    
C45   H22   S    
C20   C21   A    
O15   C45   S    
C27   C28   A    
C14   C15   A    
C42   H16   S    
C1    C14   S    
C30   O16   S    
C13   C14   A    
C25   H6    S    
C52   H35   S    
C40   O22   S    
C50   H33   S    
