data_mof_unit_9745.cif
_audit_creation_date              2012-12-11T15:32:31-0500
_audit_creation_method            fapswitch 2.2
_symmetry_space_group_name_H-M    P1
_symmetry_Int_Tables_number       1
_space_group_crystal_system       triclinic
_cell_length_a                    6.979822
_cell_length_b                    20.452103
_cell_length_c                    24.384574
_cell_angle_alpha                 89.587035
_cell_angle_beta                  90.04923
_cell_angle_gamma                 89.885096
_cell_volume                      3480.848901

loop_
_atom_site_label
_atom_site_type_symbol
_atom_type_description
_atom_site_fract_x
_atom_site_fract_y
_atom_site_fract_z
_atom_type_partial_charge
O1    O     O_R   0.507320 0.423560 0.460500 -0.534645
O2    O     O_R   0.170760 0.556250 0.437010 -0.538332
O3    O     O_R   0.004030 0.576440 0.539500 -0.537957
C1    C     C_R   0.339539 0.576348 0.421165 0.712849
O4    O     O_R   0.177370 0.422820 0.454110 -0.538962
O5    O     O_R   0.010680 0.442050 0.556720 -0.524160
C2    C     C_R   0.346090 0.398902 0.443595 0.704815
O6    O     O_R   0.500680 0.557950 0.443280 -0.538294
O7    O     O_3   0.340380 0.506470 0.533650 -0.361917
V1    V     V_3+5 0.064130 0.498800 0.493760 1.454521
O8    O     O_R   0.681160 0.443750 0.562990 -0.527891
C3    C     C_R   0.849559 0.423634 0.578831 0.717259
O9    O     O_R   0.674560 0.577180 0.545890 -0.539756
C4    C     C_R   0.842788 0.601063 0.556498 0.686735
V2    V     V_3+5 0.564560 0.501200 0.506240 1.468747
O10   O     O_3   0.838180 0.493530 0.466350 -0.373375
C5    C     C_R   0.976086 0.838187 0.911250 -0.041373
C6    C     C_R   0.847819 0.661775 0.588702 -0.044236
C7    C     C_R   0.042143 0.722381 0.905791 -0.163683
C8    C     C_R   0.032466 0.779611 0.936162 -0.169838
C9    C     C_R   0.929924 0.839277 0.855071 -0.214183
C10   C     C_R   0.942135 0.781580 0.822700 0.086499
C11   C     C_R   0.999024 0.722860 0.849556 0.140829
C12   C     C_R   0.902764 0.780077 0.764817 0.056726
C13   C     C_R   0.921051 0.719883 0.735133 0.059064
C14   C     C_R   0.977433 0.663228 0.764355 -0.186568
C15   C     C_R   0.015037 0.664870 0.820221 -0.202694
C16   C     C_R   0.846376 0.836732 0.735594 -0.185203
C17   C     C_R   0.808789 0.835090 0.679726 -0.193897
C18   C     C_R   0.824822 0.777101 0.650389 0.133008
C19   C     C_R   0.881697 0.718382 0.677249 0.086621
C20   C     C_R   0.781750 0.777580 0.594149 -0.151925
C21   C     C_R   0.791461 0.720349 0.563780 -0.161308
C22   C     C_R   0.893934 0.660686 0.644882 -0.213324
H1    H     H_    0.058526 0.620005 0.840715 0.121416
H2    H     H_    0.933842 0.613921 0.662017 0.094591
H3    H     H_    0.753556 0.721636 0.520681 0.116186
H4    H     H_    0.765306 0.879955 0.659230 0.130452
H5    H     H_    0.086346 0.677597 0.926249 0.111385
H6    H     H_    0.070430 0.778323 0.979256 0.105302
H7    H     H_    0.890019 0.886042 0.837938 0.095057
H8    H     H_    0.994663 0.616335 0.745220 0.123110
H9    H     H_    0.829136 0.883622 0.754731 0.125438
H10   H     H_    0.737571 0.822363 0.573686 0.126251
C23   C     C_3   0.830062 0.303075 0.768088 -0.149442
C24   C     C_3   0.027084 0.277959 0.789021 -0.282052
H11   H     H_    0.116674 0.301150 0.821060 0.144248
H12   H     H_    0.758476 0.347561 0.783939 0.162905
C25   C     C_1   0.967557 0.121937 0.875217 -0.195032
C26   C     C_1   0.857938 0.377869 0.624575 -0.112742
C27   C     C_3   0.750158 0.232198 0.770198 0.010941
C28   C     C_3   0.946209 0.207704 0.790742 0.054138
C29   C     C_3   0.816283 0.221092 0.710067 -0.091450
C30   C     C_3   0.893502 0.291610 0.708325 0.049061
C31   C     C_3   0.012091 0.196017 0.731236 -0.230351
C32   C     C_3   0.087039 0.266861 0.728866 0.469177
C33   C     C_1   0.961099 0.160483 0.837055 -0.014641
C34   C     C_1   0.869240 0.339106 0.662475 0.123479
H13   H     H_    0.089129 0.152100 0.716261 0.161441
H14   H     H_    0.742078 0.195778 0.676147 0.185785
H15   H     H_    0.609563 0.217713 0.787693 0.157011
C35   C     C_3   0.506607 0.721068 0.208957 -0.208808
C36   C     C_3   0.311302 0.698307 0.232820 -0.130044
H16   H     H_    0.227914 0.655449 0.218674 0.118444
H17   H     H_    0.584453 0.697144 0.174845 0.129521
H18   H     H_    0.096668 0.786539 0.217345 0.173927
C37   C     C_1   0.350873 0.622053 0.375314 -0.190306
C38   C     C_1   0.473226 0.878188 0.124823 -0.152655
C39   C     C_3   0.585155 0.729960 0.268096 -0.202038
C40   C     C_3   0.389773 0.707955 0.291335 0.090484
C41   C     C_3   0.510927 0.801002 0.267258 0.452953
C42   C     C_3   0.434233 0.792413 0.208904 0.062497
C43   C     C_3   0.317087 0.779251 0.291537 -0.189947
C44   C     C_3   0.239271 0.770210 0.232327 -0.148593
C45   C     C_1   0.366312 0.660640 0.337357 -0.021692
C46   C     C_1   0.457655 0.839670 0.162812 0.046972
H19   H     H_    0.240168 0.803532 0.325650 0.167964
H20   H     H_    0.728152 0.713977 0.283081 0.141951
C47   C     C_R   0.472494 0.161731 0.088738 -0.044190
C48   C     C_R   0.352224 0.338168 0.411462 -0.051451
C49   C     C_R   0.528091 0.278117 0.093520 -0.162082
C50   C     C_R   0.521053 0.220721 0.063322 -0.170171
C51   C     C_R   0.431608 0.160362 0.145219 -0.202112
C52   C     C_R   0.440930 0.218265 0.177371 0.086514
C53   C     C_R   0.489751 0.277424 0.150019 0.142231
C54   C     C_R   0.405924 0.219606 0.235467 0.043870
C55   C     C_R   0.420046 0.280118 0.264845 0.060805
C56   C     C_R   0.468469 0.337198 0.235146 -0.184601
C57   C     C_R   0.502164 0.335681 0.179094 -0.202134
C58   C     C_R   0.357922 0.162501 0.265195 -0.159044
C59   C     C_R   0.324211 0.164036 0.321256 -0.165435
C60   C     C_R   0.336106 0.222342 0.350298 0.118164
C61   C     C_R   0.384724 0.281498 0.322918 0.089045
C62   C     C_R   0.297482 0.221714 0.406789 -0.145353
C63   C     C_R   0.303963 0.279175 0.436930 -0.153001
C64   C     C_R   0.393435 0.339460 0.355009 -0.213621
H21   H     H_    0.539487 0.380884 0.158227 0.120289
H22   H     H_    0.427434 0.386521 0.337515 0.091747
H23   H     H_    0.270161 0.277712 0.480288 0.136443
H24   H     H_    0.287212 0.118817 0.342148 0.155170
H25   H     H_    0.566099 0.323246 0.072681 0.111906
H26   H     H_    0.554706 0.222230 0.019958 0.106693
H27   H     H_    0.397286 0.113309 0.162680 0.111227
H28   H     H_    0.482264 0.384349 0.254029 0.121392
H29   H     H_    0.344624 0.115318 0.246330 0.152633
H30   H     H_    0.259682 0.176585 0.427661 0.131300
O11   O     O_R   0.323550 0.942140 0.056770 -0.535743
O12   O     O_R   0.647080 0.077200 0.045890 -0.536046
O13   O     O_R   0.813610 0.057920 0.943260 -0.536583
C65   C     C_R   0.478397 0.101068 0.056519 0.700604
O14   O     O_R   0.653470 0.943760 0.063000 -0.530570
O15   O     O_R   0.820050 0.923540 0.960490 -0.538703
C66   C     C_R   0.484660 0.923775 0.078910 0.722494
O16   O     O_R   0.317110 0.076520 0.039540 -0.535974
O17   O     O_3   0.483830 0.993580 0.966380 -0.371482
V3    V     V_3+5 0.760140 0.001190 0.006240 1.451751
O18   O     O_R   0.149510 0.922740 0.954070 -0.539158
C67   C     C_R   0.981231 0.898896 0.943463 0.689131
O19   O     O_R   0.143120 0.056170 0.936970 -0.538120
C68   C     C_R   0.974805 0.076310 0.921117 0.718284
V4    V     V_3+5 0.259690 0.998700 0.993700 1.438160
O20   O     O_3   0.986130 0.006420 0.033620 -0.362091
S1    S     S_3+6 0.307322 0.288847 0.697787 -0.045914
O21   O     O_2   0.415420 0.226844 0.687786 -0.353460
O22   O     O_2   0.276831 0.323224 0.643818 -0.344722
O23   O     O_3   0.429297 0.337927 0.740055 -0.526414
H31   H     H_    0.347191 0.377138 0.744163 0.317098
S2    S     S_3+6 0.645345 0.869247 0.290750 0.023768
O24   O     O_2   0.819881 0.877618 0.255407 -0.316262
O25   O     O_2   0.524707 0.930079 0.287320 -0.313088
O26   O     O_3   0.714033 0.856305 0.356021 -0.483579
H32   H     H_    0.593677 0.847718 0.376305 0.323943

loop_
_geom_bond_atom_site_label_1
_geom_bond_atom_site_label_2
_ccdc_geom_bond_type
C13   C19   A    
C47   C51   A    
C31   C32   S    
O23   H31   S    
O17   V4    S    
C31   H13   S    
C43   C44   S    
C4    C6    S    
O2    C1    A    
C7    C8    A    
C27   H15   S    
C1    O6    A    
S2    O24   D    
C49   C50   A    
S1    O21   D    
C49   H25   S    
C23   C24   S    
C14   C15   A    
C17   C18   A    
C51   H27   S    
C7    H5    S    
C16   C17   A    
C52   C54   A    
O5    C3    A    
C18   C19   A    
C8    H6    S    
C63   H23   S    
S1    O22   D    
C25   C68   S    
C23   C27   S    
O17   V3    S    
H18   C44   S    
C24   C28   S    
C5    C8    A    
C25   C33   T    
C39   C41   S    
O18   V4    S    
O11   C66   A    
O13   V3    S    
O16   V4    S    
O8    V2    S    
C64   H22   S    
C17   H4    S    
O14   V3    S    
O1    V2    S    
C11   C15   A    
C59   H24   S    
C48   C64   A    
O7    V1    S    
C65   O16   A    
C35   H17   S    
C28   C31   S    
C42   C46   S    
C38   C66   S    
C29   C31   S    
O9    C4    A    
C39   H20   S    
C62   C63   A    
C56   H28   S    
C29   H14   S    
O19   V4    S    
C20   H10   S    
C30   C32   S    
C27   C28   S    
C26   C34   T    
C32   S1    S    
C52   C53   A    
C42   C44   S    
C54   C58   A    
C59   C60   A    
O4    C2    A    
C53   C57   A    
C54   C55   A    
S1    O23   S    
C15   H1    S    
C13   C14   A    
C29   C30   S    
C21   H3    S    
C35   C39   S    
C57   H21   S    
C27   C29   S    
C7    C11   A    
C35   C36   S    
C18   C20   A    
C47   C50   A    
C51   C52   A    
C36   C40   S    
O19   C68   A    
C40   C43   S    
C60   C62   A    
C50   H26   S    
C19   C22   A    
C35   C42   S    
O14   C66   A    
C38   C46   T    
C12   C13   A    
C48   C63   A    
C6    C22   A    
V4    O20   S    
O3    C4    A    
V3    O20   S    
C5    C67   S    
C9    H7    S    
C23   C30   S    
C61   C64   A    
O9    V2    S    
C10   C12   A    
C41   S2    S    
C37   C45   T    
O11   V4    S    
O26   H32   S    
O2    V1    S    
S2    O26   S    
O15   V3    S    
C14   H8    S    
C41   C43   S    
C30   C34   S    
C23   H12   S    
C24   H11   S    
C62   H30   S    
C47   C65   S    
O1    C2    A    
C12   C16   A    
C58   H29   S    
S2    O25   D    
O5    V1    S    
C1    C37   S    
C3    C26   S    
O8    C3    A    
C36   C44   S    
O6    V2    S    
C16   H9    S    
C20   C21   A    
O12   V3    S    
O7    V2    S    
O4    V1    S    
O3    V1    S    
V1    O10   S    
O18   C67   A    
O15   C67   A    
C58   C59   A    
C55   C61   A    
C60   C61   A    
O12   C65   A    
C22   H2    S    
C39   C40   S    
C6    C21   A    
C5    C9    A    
C28   C33   S    
C36   H16   S    
C41   C42   S    
C56   C57   A    
C55   C56   A    
C24   C32   S    
C40   C45   S    
C43   H19   S    
C10   C11   A    
C9    C10   A    
C49   C53   A    
V2    O10   S    
O13   C68   A    
C2    C48   S    
