data_mof_unit_66969.cif
_audit_creation_date              2013-03-05T15:58:12-0500
_audit_creation_method            fapswitch 2.2
_symmetry_space_group_name_H-M    P1
_symmetry_Int_Tables_number       1
_space_group_crystal_system       triclinic
_cell_length_a                    8.183375
_cell_length_b                    12.661993
_cell_length_c                    14.401733
_cell_angle_alpha                 93.39556
_cell_angle_beta                  90.930874
_cell_angle_gamma                 98.081833
_cell_volume                      1474.40583532

loop_
_atom_site_label
_atom_site_type_symbol
_atom_site_description
_atom_site_fract_x
_atom_site_fract_y
_atom_site_fract_z
_atom_type_partial_charge
P1    P     P_3+3 0.054400 0.427280 0.286870 0.462617
O1    O     O_2   0.887370 0.460630 0.272300 -0.370864
O2    O     O_3   0.129410 0.451380 0.388510 -0.402046
O3    O     O_3   0.670210 0.653170 0.329170 -0.390377
O4    O     O_2   0.802356 0.599386 0.168477 -0.377953
O5    O     O_3   0.018786 0.289014 0.261920 -0.571896
O6    O     O_3   0.700312 0.786037 0.178585 -0.524151
H1    H     H_    0.749551 0.860159 0.309606 0.157036
C1    C     C_3   0.644613 0.962810 0.218807 -1.028363
H2    H     H_    0.643480 0.021886 0.279100 0.250745
H3    H     H_    0.753728 0.987003 0.177001 0.278820
P2    P     P_3+3 0.668300 0.742890 0.573060 0.442273
P3    P     P_3+3 0.130891 0.843441 0.381522 0.444182
O7    O     O_2   0.845380 0.761330 0.544970 -0.363050
O8    O     O_3   0.088930 0.704860 0.376040 -0.374921
O9    O     O_2   0.012649 0.887040 0.451474 -0.378580
O10   O     O_3   0.684873 0.768006 0.693955 -0.580523
O11   O     O_3   0.071988 0.890189 0.276260 -0.521512
C2    C     C_3   0.158409 0.844992 0.204351 0.474011
H4    H     H_    0.116359 0.757198 0.193847 0.116276
H5    H     H_    0.293180 0.859770 0.219527 0.017152
C3    C     C_3   0.125372 0.898544 0.115508 -0.998125
H6    H     H_    0.994994 0.873646 0.090952 0.286929
H7    H     H_    0.148969 0.987167 0.128393 0.260665
C4    C     C_3   0.235217 0.761916 0.656398 0.380394
H8    H     H_    0.367166 0.753242 0.654355 0.093853
H9    H     H_    0.171546 0.730125 0.589869 0.138042
C5    C     C_3   0.217765 0.879596 0.668840 -0.898870
H10   H     H_    0.259518 0.911455 0.739736 0.259598
H11   H     H_    0.291047 0.925843 0.617018 0.231934
H12   H     H_    0.086294 0.889393 0.660488 0.273758
Ba1   Ba    Ba6+2 0.855630 0.555280 0.454520 1.534618
C6    C     C_3   0.964440 0.235455 0.340354 0.356692
H13   H     H_    0.830285 0.235128 0.344882 0.096916
H14   H     H_    0.027268 0.270173 0.406354 0.140569
C7    C     C_3   0.999738 0.121357 0.327077 -0.872093
H15   H     H_    0.955649 0.087212 0.257373 0.262521
H16   H     H_    0.938602 0.071799 0.380980 0.239494
H17   H     H_    0.134639 0.120646 0.331010 0.265431
C8    C     C_3   0.719060 0.677004 0.736467 0.449805
H18   H     H_    0.825378 0.645857 0.703649 0.107936
H19   H     H_    0.609317 0.614383 0.731145 0.110372
C9    C     C_3   0.761500 0.707937 0.838879 -1.046740
H20   H     H_    0.884224 0.758427 0.845873 0.277314
H21   H     H_    0.764428 0.635593 0.878270 0.228845
H22   H     H_    0.667157 0.753665 0.869711 0.270512
P4    P     P_3+3 0.135310 0.572810 0.713130 0.477153
O12   O     O_2   0.302330 0.539400 0.727760 -0.374849
O13   O     O_3   0.060300 0.548700 0.611500 -0.404213
O14   O     O_3   0.519500 0.346920 0.670840 -0.381494
O15   O     O_3   0.167199 0.711738 0.733468 -0.555424
P5    P     P_3+3 0.063240 0.155835 0.621949 0.448955
O16   O     O_3   0.614310 0.373510 0.452640 -0.393727
O17   O     O_3   0.100780 0.295230 0.623970 -0.375757
O18   O     O_2   0.194767 0.112418 0.560575 -0.376332
O19   O     O_3   0.107973 0.117261 0.732874 -0.542213
Ba2   Ba    Ba6+2 0.334200 0.444810 0.545490 1.532086
P6    P     P_3+3 0.659013 0.653442 0.209008 0.458065
C10   C     C_3   0.654862 0.852545 0.252516 0.490825
H23   H     H_    0.532891 0.821151 0.279826 0.016247
H24   H     H_    0.532077 0.962308 0.174298 0.260979
O20   O     O_3   0.575400 0.626570 0.547370 -0.404928
C11   C     C_3   0.476872 0.308163 0.259514 0.435038
H25   H     H_    0.354982 0.328009 0.282531 0.102050
H26   H     H_    0.575076 0.376891 0.277412 0.120647
C12   C     C_3   0.470562 0.286958 0.153815 -0.999921
H27   H     H_    0.369883 0.220681 0.133155 0.269070
H28   H     H_    0.446603 0.359559 0.119154 0.223586
H29   H     H_    0.591027 0.264907 0.129906 0.259484
P7    P     P_3+3 0.526317 0.241222 0.421732 0.406679
O21   O     O_2   0.344320 0.238700 0.455090 -0.363933
O22   O     O_3   0.511886 0.216091 0.300798 -0.586523
H30   H     H_    0.209265 0.875776 0.060817 0.225395
C13   C     C_3   0.030855 0.178841 0.798710 0.347090
H31   H     H_    0.095457 0.262460 0.805299 0.121875
H32   H     H_    0.899781 0.179825 0.778287 0.034133
C14   C     C_3   0.037583 0.129632 0.892752 -0.444166
H33   H     H_    0.157548 0.160902 0.930250 0.196048
H34   H     H_    0.032406 0.040549 0.880151 0.222128
P8    P     P_3+3 0.536761 0.345751 0.792189 0.444885
C15   C     C_3   0.530740 0.144495 0.749058 0.507207
H35   H     H_    0.644861 0.176869 0.713613 0.022075
O23   O     O_2   0.396139 0.401477 0.834397 -0.407217
O24   O     O_3   0.491717 0.213283 0.823208 -0.517129
H36   H     H_    0.426901 0.131113 0.697260 0.157211
H37   H     H_    0.682320 0.043510 0.818446 0.274703
C16   C     C_3   0.557337 0.037607 0.785637 -1.042115
H38   H     H_    0.548368 0.975410 0.727165 0.240386
H39   H     H_    0.463343 0.012999 0.838018 0.278558
C17   C     C_R   0.985162 0.449586 0.061229 -0.144809
C18   C     C_R   0.184127 0.496961 0.196873 0.276802
C19   C     C_R   0.340732 0.545762 0.227861 -0.523928
C20   C     C_R   0.455888 0.589628 0.165901 0.263016
C21   C     C_R   0.413614 0.592112 0.072862 -0.322329
C22   C     C_R   0.253485 0.551395 0.038596 0.017073
C23   C     C_R   0.139092 0.497905 0.099579 -0.017450
H40   H     H_    0.375669 0.546264 0.300677 0.177100
C24   C     C_R   0.055911 0.510363 0.904586 -0.057184
C25   C     C_R   0.942661 0.455707 0.966130 0.026291
C26   C     C_R   0.009990 0.505811 0.806400 0.286015
C27   C     C_R   0.856429 0.451159 0.776056 -0.537615
C28   C     C_R   0.741621 0.407580 0.838199 0.263351
C29   C     C_R   0.784846 0.408304 0.932523 -0.308999
C30   C     C_R   0.208291 0.564617 0.944443 0.185385
H41   H     H_    0.508428 0.627784 0.028510 0.160864
H42   H     H_    0.695689 0.370616 0.979545 0.159986
H43   H     H_    0.822171 0.446868 0.702875 0.172908
H44   H     H_    0.896578 0.405740 0.104703 0.166750
C31   C     C_R   0.767546 0.176393 0.532530 -0.510776
C32   C     C_R   0.429412 0.813038 0.463017 -0.516247
C33   C     C_R   0.407445 0.994062 0.428070 -0.201138
C34   C     C_R   0.342191 0.886914 0.424250 0.205186
C35   C     C_R   0.576493 0.846370 0.513282 0.275859
C36   C     C_R   0.641760 0.957127 0.521768 -0.069453
C37   C     C_R   0.556624 0.031210 0.476609 -0.066213
C38   C     C_R   0.620948 0.140976 0.482987 0.252875
C39   C     C_R   0.855307 0.104769 0.574029 0.218266
C40   C     C_R   0.789698 0.996486 0.572300 -0.185315
H45   H     H_    0.337515 0.047414 0.394821 0.181637
H46   H     H_    0.856351 0.944478 0.609449 0.180950
H47   H     H_    0.817621 0.260316 0.535210 0.171254
H48   H     H_    0.377144 0.729479 0.458900 0.175872
N1    N     N_2   0.899145 0.155136 0.948518 -0.098897
H49   H     H_    0.918844 0.230625 0.982591 0.197924
C41   C     C_3   0.827667 0.072307 0.007572 -0.833107
H50   H     H_    0.716413 0.097063 0.041721 0.254776
H51   H     H_    0.919877 0.060526 0.061902 0.246754
H52   H     H_    0.789195 0.995277 0.965372 0.256314
N2    N     N_2   0.314659 0.635808 0.891834 -0.069400
H53   H     H_    0.430476 0.614451 0.882491 0.192699
C42   C     C_3   0.317263 0.748551 0.916728 -0.865740
H54   H     H_    0.387074 0.796221 0.864224 0.261822
H55   H     H_    0.380113 0.770950 0.985310 0.226780
H56   H     H_    0.189339 0.768586 0.917876 0.262232

loop_
_geom_bond_atom_site_label_1
_geom_bond_atom_site_label_2
_geom_bond_distance
_ccdc_geom_bond_type
C27   H43   1.082418 S    
C12   H28   1.111098 S    
C16   H38   1.112625 S    
C11   H26   1.113399 S    
C21   H41   1.079713 S    
C20   C21   1.381677 A    
N1    H49   1.038730 S    
C17   C25   1.416833 A    
C25   C29   1.410575 A    
C33   C34   1.383951 A    
P8    O24   1.751873 S    
C42   H56   1.111413 S    
C36   C37   1.424638 A    
C31   C39   1.388830 A    
O12   Ba2   2.851452 S    
P4    O13   1.573989 S    
C14   H33   1.122650 S    
C4    C5    1.517184 S    
C27   C28   1.388595 A    
C13   H32   1.109570 S    
O4    P6    1.544634 D    
C1    H24   1.112524 S    
O1    Ba1   2.850920 S    
C5    H10   1.105932 S    
C2    H5    1.108344 S    
P6    C20   1.825042 S    
O11   C2    1.402696 S    
P3    C34   1.824638 S    
O14   P8    1.752153 S    
H1    C10   1.111146 S    
N1    C41   1.454222 S    
C12   H29   1.115959 S    
C37   C38   1.412375 A    
C6    C7    1.514461 S    
O13   Ba2   2.899708 S    
C33   H45   1.072966 S    
P1    O1    1.501383 D    
C19   C20   1.389851 A    
C31   C38   1.390107 A    
C28   C29   1.397332 A    
C18   C23   1.444223 A    
C35   C36   1.426154 A    
C8    C9    1.525157 S    
C22   C23   1.423121 A    
C13   C14   1.527340 S    
P2    O10   1.750873 S    
C41   H52   1.121170 S    
P7    O21   1.568975 D    
C1    H2    1.113051 S    
O6    P6    1.748537 S    
P5    O18   1.543275 D    
P5    C39   1.841034 S    
C8    H19   1.109705 S    
C12   H27   1.113392 S    
C11   C12   1.528769 S    
C10   H23   1.108466 S    
P1    C18   1.871411 S    
P2    Ba1   3.396497 S    
O2    Ba1   2.898949 S    
Ba1   Ba2   4.538852 S    
P8    O23   1.546562 D    
O16   P7    1.756275 S    
O6    C10   1.405656 S    
P5    O17   1.746899 S    
C19   H40   1.081885 S    
C15   H35   1.110584 S    
C32   C34   1.390257 A    
C14   H34   1.126551 S    
O19   C13   1.405516 S    
C13   H31   1.112912 S    
P1    O5    1.748625 S    
Ba2   O20   2.811936 S    
C2    C3    1.520873 S    
C18   C19   1.396231 A    
O16   Ba2   2.897587 S    
H37   C16   1.110658 S    
P4    O15   1.748077 S    
P7    C38   1.837368 S    
C4    H8    1.101301 S    
C7    H17   1.105805 S    
P1    Ba1   3.392275 S    
P4    C26   1.873732 S    
P8    C28   1.842790 S    
P1    O2    1.574110 S    
O10   C8    1.396240 S    
C9    H20   1.111771 S    
C4    O15   1.396300 S    
C14   N1    1.460969 S    
P4    Ba2   3.392724 S    
P2    O20   1.579743 S    
P4    O12   1.501745 D    
C6    H13   1.100273 S    
O3    Ba1   2.793301 S    
Ba2   O21   2.859108 S    
C9    H21   1.108508 S    
C32   C35   1.394099 A    
C36   C40   1.415064 A    
P3    O11   1.744601 S    
C8    H18   1.106184 S    
P2    O7    1.501067 D    
C24   C26   1.452944 A    
C30   N2    1.423375 S    
C1    H3    1.102746 S    
C41   H50   1.116037 S    
C3    H7    1.115422 S    
C42   H54   1.110676 S    
O2    Ba2   2.804459 S    
Ba1   O16   2.812602 S    
C15   O24   1.407165 S    
C22   C30   1.425293 A    
P2    C35   1.847099 S    
C7    H15   1.103541 S    
O14   Ba2   2.792716 S    
C5    H12   1.105646 S    
O7    Ba1   2.858898 S    
C42   H55   1.108972 S    
O8    Ba1   2.795814 S    
C33   C37   1.404315 A    
C17   C23   1.409531 A    
C4    H9    1.109356 S    
O5    C6    1.398550 S    
C2    H4    1.117083 S    
P3    O8    1.736790 S    
N2    H53   1.030248 S    
C17   H44   1.080969 S    
C5    H11   1.107744 S    
C39   C40   1.399025 A    
C32   H48   1.081846 S    
C15   C16   1.523217 S    
C31   H47   1.082033 S    
C24   C30   1.430228 A    
C7    H16   1.108479 S    
C26   C27   1.396721 A    
C6    H14   1.110021 S    
C29   H42   1.084013 S    
C21   C22   1.409028 A    
C9    H22   1.111232 S    
C40   H46   1.072683 S    
Ba1   O13   2.803901 S    
Ba1   O20   2.898364 S    
C11   H25   1.113253 S    
C11   O22   1.401879 S    
C24   C25   1.429147 A    
P3    O9    1.540121 D    
O3    P6    1.731707 S    
C41   H51   1.109120 S    
C16   H39   1.112269 S    
C3    H6    1.114793 S    
P7    O22   1.750903 S    
C3    H30   1.105055 S    
C1    C10   1.517862 S    
C15   H36   1.109602 S    
P5    O19   1.745941 S    
N2    C42   1.448266 S    
O17   Ba2   2.796398 S    
