data_mof_unit_49021.cif
_audit_creation_date              2012-12-10T16:58:26-0500
_audit_creation_method            fapswitch 2.2
_symmetry_space_group_name_H-M    P1
_symmetry_Int_Tables_number       1
_space_group_crystal_system       triclinic
_cell_length_a                    7.875907
_cell_length_b                    8.540155
_cell_length_c                    23.402249
_cell_angle_alpha                 93.131965
_cell_angle_beta                  84.637412
_cell_angle_gamma                 93.467238
_cell_volume                      1562.41019552

loop_
_atom_site_label
_atom_site_type_symbol
_atom_type_description
_atom_site_fract_x
_atom_site_fract_y
_atom_site_fract_z
_atom_type_partial_charge
C1    C     C_R   0.545159 0.794275 0.498973 0.919505
C2    C     C_R   0.449428 0.360291 0.297339 -0.060911
C3    C     C_R   0.548104 0.641193 0.761982 -0.032134
C4    C     C_R   0.450736 0.362288 0.237730 -0.033314
C5    C     C_R   0.502769 0.503493 0.790625 0.203345
C6    C     C_R   0.495734 0.500711 0.209493 0.203448
C7    C     C_2   0.568932 0.957847 0.498150 -0.351530
C8    C     C_2   0.431067 0.042168 0.501950 -0.351554
C9    C     C_R   0.500259 0.500417 0.609991 0.800840
C10   C     C_R   0.499747 0.499669 0.390007 0.800860
C11   C     C_R   0.350569 0.456063 0.123501 0.517020
C12   C     C_R   0.454840 0.205730 0.501072 0.920453
C13   C     C_R   0.647086 0.550183 0.876721 0.517383
C14   C     C_R   0.643438 0.546444 0.116707 0.540329
C15   C     C_R   0.354269 0.459631 0.883432 0.540239
C16   C     C_R   0.643586 0.563757 0.057239 -0.075610
C17   C     C_R   0.353754 0.442983 0.942957 -0.075543
C18   C     C_R   0.498269 0.502804 0.030123 0.003225
C19   C     C_R   0.498989 0.504073 0.970087 0.003023
C20   C     C_R   0.352314 0.440404 0.063263 -0.077768
C21   C     C_R   0.645007 0.566376 0.936954 -0.077641
C22   C     C_R   0.783381 0.639382 0.024739 -0.016959
C23   C     C_R   0.457318 0.364664 0.760046 -0.034853
C24   C     C_R   0.213821 0.367612 0.975480 -0.016801
C25   C     C_R   0.783729 0.641343 0.964426 -0.016382
C26   C     C_R   0.213465 0.365638 0.035797 -0.016913
C27   C     C_2   0.915692 0.735614 0.054464 0.528380
C28   C     C_2   0.081408 0.271460 0.945788 0.530236
C29   C     C_2   0.915670 0.740404 0.931116 0.533136
C30   C     C_2   0.081474 0.266564 0.069093 0.531920
C31   C     C_2   0.399531 0.213576 0.669277 0.506114
C32   C     C_2   0.600870 0.787664 0.331477 0.504189
C33   C     C_2   0.601876 0.789341 0.672693 0.521109
C34   C     C_R   0.541698 0.638780 0.240422 -0.033760
C35   C     C_2   0.398028 0.211987 0.326550 0.522087
C36   C     C_2   0.015503 0.343280 0.443544 0.597304
C37   C     C_2   0.984499 0.656719 0.556455 0.597518
C38   C     C_R   0.453215 0.362056 0.700577 -0.060815
C39   C     C_R   0.546625 0.639928 0.299831 -0.060386
C40   C     C_R   0.501103 0.501401 0.671766 -0.182093
C41   C     C_R   0.498980 0.499887 0.328247 -0.181929
C42   C     C_R   0.550203 0.641734 0.702323 -0.060045
H1    H     H_    0.876761 0.824638 0.087160 0.060739
H2    H     H_    0.409092 0.203976 0.372119 0.030907
H3    H     H_    0.581193 0.747825 0.786723 0.183483
H4    H     H_    0.417265 0.256252 0.212713 0.183108
H5    H     H_    0.699460 0.008248 0.494251 0.202090
H6    H     H_    0.300539 0.991767 0.505853 0.202036
H7    H     H_    0.147193 0.319892 0.436439 0.079298
H8    H     H_    0.852812 0.680110 0.563555 0.079260
H9    H     H_    0.120166 0.181642 0.913379 0.059784
H10   H     H_    0.876210 0.826189 0.903187 0.063528
H11   H     H_    0.120876 0.181155 0.097183 0.064648
H12   H     H_    0.424377 0.258972 0.783200 0.184869
H13   H     H_    0.574421 0.745029 0.217580 0.185400
H14   H     H_    0.406704 0.205457 0.622801 0.042886
H15   H     H_    0.594822 0.794570 0.377929 0.043472
H16   H     H_    0.590973 0.796391 0.627077 0.030264
N1    N     N_R   0.496564 0.500868 0.148391 -0.350318
N2    N     N_R   0.501343 0.504776 0.851773 -0.350439
N3    N     N_2   0.950330 0.457950 0.484560 -0.170576
N4    N     N_2   0.049670 0.542050 0.515440 -0.170586
O1    O     O_R   0.389250 0.738570 0.503790 -0.573332
O2    O     O_2   0.793773 0.575187 0.842976 -0.505826
O3    O     O_2   0.788943 0.571195 0.142925 -0.495710
O4    O     O_2   0.208981 0.434505 0.857115 -0.495392
O5    O     O_2   0.066961 0.711120 0.044868 -0.504685
O6    O     O_2   0.930304 0.296876 0.955092 -0.504228
O7    O     O_2   0.067681 0.722366 0.932493 -0.497787
O8    O     O_2   0.929441 0.284014 0.067463 -0.498881
O9    O     O_2   0.345145 0.098012 0.695213 -0.522310
O10   O     O_2   0.654508 0.903964 0.305850 -0.522527
O11   O     O_2   0.658330 0.905519 0.698986 -0.532584
O12   O     O_R   0.610750 0.261430 0.496210 -0.573227
O13   O     O_2   0.341673 0.096295 0.299962 -0.532521
O14   O     O_2   0.917198 0.265844 0.414488 -0.551261
O15   O     O_2   0.082802 0.734139 0.585518 -0.551490
O16   O     O_R   0.678390 0.711620 0.493890 -0.671425
O17   O     O_R   0.321610 0.288380 0.506110 -0.671299
O18   O     O_R   0.355400 0.513520 0.588790 -0.559071
O19   O     O_R   0.644600 0.486480 0.411210 -0.559031
O20   O     O_R   0.644550 0.486570 0.578900 -0.660382
O21   O     O_R   0.355450 0.513430 0.421100 -0.660413
O22   O     O_2   0.204024 0.431014 0.157315 -0.506225
Zn1   Zn    Zn3+2 0.306930 0.518000 0.506610 0.985479
Zn2   Zn    Zn3+2 0.693070 0.482000 0.493390 0.985554

loop_
_geom_bond_atom_site_label_1
_geom_bond_atom_site_label_2
_ccdc_geom_bond_type
C2    C35   S    
C3    C42   A    
C33   H16   S    
C12   O12   A    
C15   N2    A    
C37   N4    S    
C7    C8    D    
C32   O10   D    
C13   N2    A    
C4    H4    S    
C14   N1    A    
C35   O13   D    
C33   C42   S    
C28   O6    D    
C24   C26   A    
C28   H9    S    
C2    C41   A    
C12   O17   A    
C10   O21   A    
C18   C19   A    
C32   C39   S    
C36   O14   D    
C22   C25   A    
C31   H14   S    
O19   Zn2   S    
C9    O20   A    
O16   Zn2   S    
C31   O9    D    
C34   H13   S    
O1    Zn1   S    
C10   C41   S    
C1    O16   A    
C32   H15   S    
C11   N1    A    
C1    O1    A    
C30   O8    D    
C29   O7    D    
C25   C29   S    
C30   H11   S    
C11   C20   A    
C17   C24   A    
C34   C39   A    
C4    C6    A    
O20   Zn2   S    
C15   O4    S    
C37   O15   D    
C3    H3    S    
C9    C40   S    
C6    C34   A    
C9    O18   A    
C7    H5    S    
C2    C4    A    
C8    H6    S    
O18   Zn1   S    
C5    C23   A    
C8    C12   S    
C13   C21   A    
O12   Zn2   S    
C35   H2    S    
C33   O11   D    
O21   Zn1   S    
C26   C30   S    
C22   C27   S    
C14   C16   A    
C36   N3    S    
O17   Zn1   S    
C23   H12   S    
C15   C17   A    
C21   C25   A    
C16   C22   A    
C5    N2    S    
C19   C21   A    
C1    C7    S    
C6    N1    S    
C24   C28   S    
C3    C5    A    
C11   O22   S    
C23   C38   A    
C10   O19   A    
C31   C38   S    
C38   C40   A    
C37   H8    S    
C13   O2    S    
C20   C26   A    
C40   C42   A    
C17   C19   A    
C14   O3    S    
C18   C20   A    
N3    N4    D    
C27   O5    D    
N3    Zn2   S    
C27   H1    S    
C39   C41   A    
C16   C18   A    
N4    Zn1   S    
C36   H7    S    
C29   H10   S    
