data_mof_unit_14404.cif
_audit_creation_date              2012-12-10T20:28:39-0500
_audit_creation_method            fapswitch 2.2
_symmetry_space_group_name_H-M    P1
_symmetry_Int_Tables_number       1
_space_group_crystal_system       triclinic
_cell_length_a                    10.726995
_cell_length_b                    10.668655
_cell_length_c                    9.865698
_cell_angle_alpha                 89.922514
_cell_angle_beta                  89.578032
_cell_angle_gamma                 90.915619
_cell_volume                      1128.88021616

loop_
_atom_site_label
_atom_site_type_symbol
_atom_type_description
_atom_site_fract_x
_atom_site_fract_y
_atom_site_fract_z
_atom_type_partial_charge
C1    C     C_R   0.505564 0.259846 0.500212 0.881076
C2    C     C_R   0.060875 0.526661 0.628725 0.109602
C3    C     C_R   0.127721 0.530604 0.504572 -0.132560
C4    C     C_R   0.064723 0.527599 0.381208 -0.203710
C5    C     C_R   0.937677 0.511826 0.380647 -0.168243
C6    C     C_R   0.874006 0.486349 0.501909 -0.116626
C7    C     C_R   0.531379 0.063335 0.623512 0.150428
C8    C     C_R   0.529965 0.128880 0.501232 -0.116932
C9    C     C_R   0.557318 0.065827 0.380094 -0.217652
C10   C     C_R   0.556252 0.935949 0.379304 -0.216164
C11   C     C_R   0.529775 0.871341 0.500287 -0.107474
C12   C     C_R   0.260742 0.513536 0.501105 0.883168
C13   C     C_R   0.531192 0.935462 0.622805 0.144064
C14   C     C_3   0.445219 0.925233 0.742105 -0.476527
C15   C     C_3   0.445618 0.067098 0.743472 -0.501828
C16   C     C_R   0.393543 0.470064 0.071149 0.173456
C17   C     C_R   0.600280 0.543425 0.071209 -0.080945
C18   C     C_R   0.600370 0.543230 0.927242 -0.100929
C19   C     C_R   0.393752 0.471411 0.928830 0.146854
C20   C     C_3   0.319680 0.353451 0.918532 -0.485580
C21   C     C_3   0.315075 0.351255 0.072609 -0.072481
C22   C     C_R   0.505665 0.740050 0.499821 0.874899
C23   C     C_R   0.740103 0.491277 0.500140 0.877702
C24   C     C_R   0.111010 0.563827 0.755032 -0.219155
C25   C     C_R   0.051667 0.528147 0.875832 -0.222710
C26   C     C_R   0.945363 0.451737 0.871313 0.295364
C27   C     C_R   0.887387 0.429442 0.747382 -0.198084
C28   C     C_R   0.938879 0.479760 0.626063 0.054091
H1    H     H_    0.113406 0.536555 0.284944 0.169342
H2    H     H_    0.491325 0.883779 0.831837 0.207844
H3    H     H_    0.353280 0.107044 0.719108 0.206180
H4    H     H_    0.492950 0.106434 0.834153 0.210627
H5    H     H_    0.681955 0.576641 0.124673 0.165288
H6    H     H_    0.682142 0.576391 0.872594 0.165053
H7    H     H_    0.227624 0.364836 0.871331 0.209695
H8    H     H_    0.375305 0.278786 0.871539 0.217516
H9    H     H_    0.219489 0.366781 0.113138 0.187096
H10   H     H_    0.195882 0.619502 0.761668 0.170866
H11   H     H_    0.093582 0.551976 0.972116 0.154147
H12   H     H_    0.804532 0.370327 0.746885 0.186206
H13   H     H_    0.889642 0.518945 0.285027 0.204744
H14   H     H_    0.570556 0.115375 0.285353 0.181580
H15   H     H_    0.566975 0.887350 0.283680 0.172688
H16   H     H_    0.352965 0.882917 0.716294 0.201153
N1    N     N_R   0.499160 0.499140 0.142800 -0.105921
N2    N     N_R   0.499160 0.499180 0.857150 -0.107528
O1    O     O_R   0.500020 0.316790 0.614690 -0.614373
O2    O     O_R   0.500000 0.316760 0.385350 -0.615328
O3    O     O_R   0.316770 0.500020 0.614690 -0.624194
O4    O     O_R   0.316760 0.499980 0.385350 -0.620182
O5    O     O_R   0.500000 0.683240 0.614650 -0.622220
O6    O     O_R   0.499980 0.683210 0.385310 -0.627574
O7    O     O_R   0.683240 0.500020 0.614650 -0.634871
O8    O     O_R   0.683230 0.499980 0.385310 -0.613957
Zn1   Zn    Zn3+2 0.500010 0.500020 0.653130 0.940364
Zn2   Zn    Zn3+2 0.499990 0.499980 0.346870 0.954891
C29   C     C_3   0.375374 0.234109 0.130208 -0.780750
H17   H     H_    0.478272 0.238320 0.117129 0.250784
H18   H     H_    0.348789 0.223547 0.238237 0.256595
H19   H     H_    0.338873 0.149392 0.077425 0.228251
Br1   Br    Br    0.880962 0.375335 0.032727 -0.627115

loop_
_geom_bond_atom_site_label_1
_geom_bond_atom_site_label_2
_ccdc_geom_bond_type
C16   N1    A    
N2    Zn1   S    
C4    H1    S    
C24   H10   S    
C24   C25   A    
C1    O2    A    
C21   C29   S    
C16   C21   S    
C1    C8    S    
C11   C13   A    
C9    C10   A    
C10   H15   S    
C11   C22   S    
C12   O4    A    
C19   C20   S    
C9    H14   S    
C27   H12   S    
C7    C15   S    
C2    C3    A    
C29   H17   S    
C19   N2    A    
C7    C8    A    
C13   C14   S    
C25   H11   S    
C15   H3    S    
C4    C5    A    
C18   H6    S    
C26   C27   A    
C17   H5    S    
C14   H2    S    
C16   C19   A    
C6    C23   S    
C18   N2    A    
C23   O7    A    
C14   H16   S    
C26   Br1   S    
C17   N1    A    
C17   C18   A    
O5    Zn1   S    
O7    Zn1   S    
C2    C24   A    
C5    C6    A    
O8    Zn2   S    
C29   H18   S    
C12   O3    A    
C10   C11   A    
C3    C4    A    
C20   H8    S    
O4    Zn2   S    
C7    C13   A    
C21   H9    S    
C20   C21   S    
C23   O8    A    
C22   O6    A    
C27   C28   A    
O2    Zn2   S    
O1    Zn1   S    
C5    H13   S    
C14   C15   S    
C1    O1    A    
C29   H19   S    
C2    C28   A    
C3    C12   S    
C25   C26   A    
O3    Zn1   S    
C20   H7    S    
C22   O5    A    
C6    C28   A    
O6    Zn2   S    
N1    Zn2   S    
C8    C9    A    
C15   H4    S    
