data_mof_unit_19805.cif
_audit_creation_date              2012-12-10T16:51:16-0500
_audit_creation_method            fapswitch 2.2
_symmetry_space_group_name_H-M    P1
_symmetry_Int_Tables_number       1
_space_group_crystal_system       triclinic
_cell_length_a                    27.754276
_cell_length_b                    8.715319
_cell_length_c                    7.435673
_cell_angle_alpha                 102.556062
_cell_angle_beta                  94.121897
_cell_angle_gamma                 92.49574
_cell_volume                      1747.80158349

loop_
_atom_site_label
_atom_site_type_symbol
_atom_type_description
_atom_site_fract_x
_atom_site_fract_y
_atom_site_fract_z
_atom_type_partial_charge
C1    C     C_R   0.497457 0.200435 0.454890 0.856625
C2    C     C_R   0.502618 0.799577 0.545106 0.858393
C3    C     C_R   0.102065 0.482052 0.512274 -0.040967
C4    C     C_R   0.898046 0.482895 0.479662 -0.040240
C5    C     C_R   0.124841 0.342849 0.442129 -0.017499
C6    C     C_R   0.875059 0.625595 0.499052 -0.003117
C7    C     C_R   0.096703 0.202956 0.370633 -0.123909
C8    C     C_R   0.903050 0.767588 0.532841 -0.125709
C9    C     C_R   0.130538 0.621416 0.591035 -0.031410
C10   C     C_R   0.869842 0.340818 0.455879 -0.030789
C11   C     C_R   0.354987 0.496125 0.508775 -0.075184
C12   C     C_R   0.645162 0.497460 0.491073 -0.075106
C13   C     C_R   0.971680 0.337024 0.447136 0.045920
C14   C     C_R   0.028418 0.626115 0.558039 0.040850
C15   C     C_R   0.977343 0.627443 0.532973 0.046790
C16   C     C_R   0.022663 0.337874 0.440410 0.043338
C17   C     C_R   0.949207 0.482423 0.486152 0.077266
C18   C     C_R   0.050872 0.481969 0.503602 0.079634
C19   C     C_R   0.942221 0.195831 0.417919 -0.205021
C20   C     C_R   0.057943 0.763857 0.637945 -0.208337
C21   C     C_R   0.892321 0.198234 0.425447 -0.115402
C22   C     C_R   0.108055 0.760760 0.656301 -0.104189
C23   C     C_R   0.407631 0.499251 0.502565 0.856914
C24   C     C_R   0.592436 0.499909 0.497363 0.857636
C25   C     C_R   0.046582 0.199760 0.371881 -0.211797
C26   C     C_R   0.953265 0.769007 0.552288 -0.208159
C27   C     C_2   0.488210 0.035512 0.438787 -0.209866
C28   C     C_2   0.511935 0.964517 0.561189 -0.208821
C29   C     C_R   0.175456 0.347705 0.443416 0.654594
C30   C     C_R   0.824356 0.622688 0.486613 0.635471
C31   C     C_R   0.181089 0.618031 0.601767 0.690715
C32   C     C_R   0.819623 0.345270 0.465487 0.684477
C33   C     C_R   0.276238 0.556566 0.387713 0.380740
C34   C     C_R   0.715069 0.420590 0.321190 0.404060
C35   C     C_R   0.326425 0.557784 0.382240 -0.264359
C36   C     C_R   0.665025 0.427151 0.327881 -0.273290
C37   C     C_R   0.333261 0.430446 0.640830 -0.293453
C38   C     C_R   0.675699 0.562886 0.649554 -0.231950
C39   C     C_R   0.282963 0.423046 0.646553 -0.011818
C40   C     C_R   0.725959 0.558270 0.647947 -0.010602
C41   C     C_R   0.254080 0.487739 0.519428 0.222098
C42   C     C_R   0.746105 0.486706 0.481919 0.208566
Cu1   Cu    Cu3+1 0.505380 0.517380 0.684380 0.986522
Cu2   Cu    Cu3+1 0.494620 0.482620 0.315620 0.981070
H1    H     H_    0.355689 0.381954 0.737768 0.147308
H2    H     H_    0.660207 0.617375 0.775993 0.161825
H3    H     H_    0.462351 0.378120 0.948667 0.220235
H4    H     H_    0.537645 0.621890 0.051328 0.224817
H5    H     H_    0.113351 0.094535 0.314705 0.200451
H6    H     H_    0.886201 0.878830 0.549896 0.181608
H7    H     H_    0.641312 0.374617 0.205909 0.184491
H8    H     H_    0.343552 0.609831 0.281586 0.206366
H9    H     H_    0.871204 0.087467 0.403725 0.193348
H10   H     H_    0.129161 0.869112 0.719222 0.202395
H11   H     H_    0.956890 0.081464 0.395171 0.135641
H12   H     H_    0.043213 0.875159 0.693344 0.147928
H13   H     H_    0.027360 0.088048 0.312214 0.146433
H14   H     H_    0.972419 0.882866 0.577526 0.135156
N1    N     N_R   0.202404 0.484007 0.522955 -0.444331
N2    N     N_R   0.797755 0.484386 0.475908 -0.441707
N3    N     N_2   0.486510 0.456430 0.038510 -0.210935
N4    N     N_2   0.513490 0.543570 0.961490 -0.209844
O1    O     O_R   0.503500 0.286120 0.619780 -0.556188
O2    O     O_R   0.496500 0.713880 0.380220 -0.554634
O3    O     O_R   0.494410 0.256780 0.308360 -0.611093
O4    O     O_R   0.505590 0.743220 0.691640 -0.610631
O5    O     O_R   0.434810 0.514700 0.655690 -0.590183
O6    O     O_R   0.565190 0.485300 0.344310 -0.599790
O7    O     O_R   0.425720 0.485350 0.344280 -0.572448
O8    O     O_R   0.574280 0.514650 0.655720 -0.562590
O9    O     O_2   0.197669 0.217542 0.366860 -0.488262
O10   O     O_2   0.801777 0.757267 0.490147 -0.506577
O11   O     O_2   0.792896 0.212172 0.465406 -0.453756
O12   O     O_2   0.208803 0.747782 0.688415 -0.462259
C43   C     C_2   0.262779 0.347236 0.788039 0.578930
H15   H     H_    0.287060 0.298866 0.879611 0.051559
O13   O     O_2   0.219498 0.338072 0.806305 -0.487866
C44   C     C_2   0.755435 0.628100 0.824204 0.590301
H16   H     H_    0.738201 0.696369 0.939450 0.080696
O14   O     O_2   0.798492 0.607943 0.846181 -0.511279
S1    S     S_3+6 0.736938 0.325107 0.109880 0.029861
O15   O     O_2   0.785586 0.396746 0.085738 -0.245741
O16   O     O_2   0.741696 0.153883 0.109558 -0.246746
O17   O     O_3   0.697937 0.339662 0.931194 -0.540256
H17   H     H_    0.675507 0.244667 0.908939 0.376910
S2    S     S_3+6 0.242274 0.645535 0.230984 0.039628
O18   O     O_2   0.197350 0.544276 0.150937 -0.242286
O19   O     O_2   0.227606 0.803186 0.331668 -0.238856
O20   O     O_3   0.275270 0.671483 0.057516 -0.520101
H18   H     H_    0.294066 0.773331 0.104768 0.370128
C45   C     C_2   0.445760 0.962644 0.308316 0.358997
H19   H     H_    0.438893 0.999691 0.179057 0.086720
O21   O     O_2   0.416558 0.869393 0.348785 -0.544457
C46   C     C_2   0.554404 0.037391 0.691670 0.355445
H20   H     H_    0.561419 0.999731 0.820475 0.081574
O22   O     O_2   0.583457 0.131393 0.651724 -0.526622

loop_
_geom_bond_atom_site_label_1
_geom_bond_atom_site_label_2
_ccdc_geom_bond_type
C38   C40   A    
C8    C26   A    
C14   C18   A    
C34   C42   A    
C20   H12   S    
S1    O15   D    
Cu1   O1    S    
C39   C41   A    
Cu2   O2    S    
C19   C21   A    
C44   O14   D    
C9    C22   A    
C23   O5    A    
C3    C18   A    
C28   C46   S    
C31   N1    A    
C11   C37   A    
C23   O7    A    
C29   N1    A    
C30   N2    A    
C1    O3    A    
C27   C45   S    
C34   S1    S    
C39   C43   S    
C12   C36   A    
C34   C36   A    
C40   C42   A    
Cu2   O3    S    
N3    N4    D    
C25   H13   S    
C1    O1    A    
S1    O16   D    
C2    O2    A    
C5    C29   A    
C10   C21   A    
C13   C19   A    
C24   O8    A    
C14   C20   A    
O17   H17   S    
C7    H5    S    
C22   H10   S    
C42   N2    S    
C32   O11   S    
C5    C7    A    
C9    C31   A    
S2    O18   D    
C15   C26   A    
C6    C8    A    
C2    O4    A    
C43   H15   S    
C3    C9    A    
C45   O21   D    
C26   H14   S    
H4    N4    S    
Cu2   O7    S    
C16   C18   A    
C46   O22   D    
C43   O13   D    
C41   N1    S    
C36   H7    S    
C4    C17   A    
C4    C6    A    
C6    C30   A    
C20   C22   A    
Cu1   O8    S    
Cu1   Cu2   S    
C40   C44   S    
Cu2   O6    S    
C32   N2    A    
C37   H1    S    
C8    H6    S    
C45   H19   S    
S1    O17   S    
C19   H11   S    
C16   C25   A    
C15   C17   A    
C44   H16   S    
C3    C5    A    
S2    O20   S    
H3    N3    S    
C30   O10   S    
Cu2   N3    S    
C12   C24   S    
C7    C25   A    
C13   C17   A    
C33   C41   A    
C11   C35   A    
C37   C39   A    
C21   H9    S    
C35   H8    S    
Cu1   O4    S    
C11   C23   S    
C33   C35   A    
S2    O19   D    
C12   C38   A    
C46   H20   S    
C31   O12   S    
C38   H2    S    
C24   O6    A    
C10   C32   A    
Cu1   O5    S    
C13   C16   A    
C27   C28   D    
C1    C27   S    
C14   C15   A    
C2    C28   S    
O20   H18   S    
C4    C10   A    
C33   S2    S    
Cu1   N4    S    
C29   O9    S    
