data_mof_unit_14904.cif
_audit_creation_date              2012-10-26T21:00:15-0400
_audit_creation_method            fapswitch 2.2
_symmetry_space_group_name_H-M    P1
_symmetry_Int_Tables_number       1
_space_group_crystal_system       triclinic
_cell_length_a                    19.299007
_cell_length_b                    8.703799
_cell_length_c                    7.526073
_cell_angle_alpha                 103.063332
_cell_angle_beta                  96.212698
_cell_angle_gamma                 95.365562
_cell_volume                      1215.12314707

loop_
_atom_site_label
_atom_site_type_symbol
_atom_type_description
_atom_site_fract_x
_atom_site_fract_y
_atom_site_fract_z
_atom_type_partial_charge
C1    C     C_R   0.496449 0.199543 0.453246 0.518795
C2    C     C_R   0.804513 0.418944 0.314240 -0.026814
C3    C     C_R   0.147506 0.545426 0.521988 -0.000569
C4    C     C_R   0.852495 0.454586 0.478010 -0.000564
C5    C     C_R   0.172288 0.505848 0.351925 -0.134316
C6    C     C_R   0.827713 0.494163 0.648073 -0.134309
C7    C     C_R   0.242113 0.477437 0.339300 0.243564
C8    C     C_R   0.757888 0.522568 0.660700 0.243564
C9    C     C_R   0.290938 0.513981 0.501792 0.000189
C10   C     C_R   0.709063 0.486021 0.498207 0.000187
C11   C     C_R   0.929107 0.469129 0.480435 0.336001
C12   C     C_R   0.503551 0.800457 0.546754 0.518794
C13   C     C_R   0.070893 0.530884 0.519562 0.336008
C14   C     C_3   0.173134 0.635524 0.875044 -0.247388
C15   C     C_3   0.152884 0.804486 0.906956 -0.305417
C16   C     C_3   0.128114 0.855503 0.095013 -0.446947
C17   C     C_3   0.826866 0.364483 0.124954 -0.247384
C18   C     C_3   0.847130 0.195533 0.093053 -0.305408
C19   C     C_3   0.871868 0.144491 0.904960 -0.446951
C20   C     C_3   0.225620 0.271378 0.078837 -0.014782
C21   C     C_3   0.222355 0.247029 0.870948 -0.373575
C22   C     C_3   0.774378 0.728622 0.921169 -0.014781
C23   C     C_2   0.489959 0.030800 0.429400 -0.175980
C24   C     C_3   0.777638 0.752967 0.129056 -0.373570
C25   C     C_3   0.433780 0.205538 0.911117 0.064467
C26   C     C_3   0.381627 0.120226 0.004944 -0.369379
C27   C     C_3   0.566219 0.794463 0.088884 0.064465
C28   C     C_3   0.618371 0.879777 0.995057 -0.369381
C29   C     C_2   0.510040 0.969199 0.570600 -0.175980
C30   C     C_R   0.367113 0.501273 0.499277 0.538082
C31   C     C_R   0.632887 0.498727 0.500722 0.538082
C32   C     C_R   0.266795 0.567476 0.672674 -0.176400
C33   C     C_R   0.733205 0.432526 0.327325 -0.176404
C34   C     C_R   0.195488 0.581063 0.685758 -0.026812
Cu1   Cu    Cu3+1 0.507710 0.517380 0.684380 1.044966
Cu2   Cu    Cu3+1 0.492290 0.482620 0.315620 1.044966
H1    H     H_    0.303742 0.597839 0.797973 0.163987
H2    H     H_    0.199529 0.886965 0.900797 0.152002
H3    H     H_    0.110262 0.812218 0.798769 0.184061
H4    H     H_    0.129134 0.552310 0.894523 0.172218
H5    H     H_    0.216812 0.634302 0.983708 0.182730
H6    H     H_    0.829322 0.146138 0.793673 0.155933
H7    H     H_    0.918609 0.225392 0.895069 0.184310
H8    H     H_    0.886446 0.021984 0.885557 0.138722
H9    H     H_    0.889772 0.187837 0.201207 0.184066
H10   H     H_    0.800497 0.113045 0.099284 0.152010
H11   H     H_    0.783184 0.365685 0.016290 0.182733
H12   H     H_    0.696258 0.402161 0.202027 0.163984
H13   H     H_    0.870860 0.447709 0.105466 0.172210
H14   H     H_    0.170612 0.252850 0.108058 0.112961
H15   H     H_    0.252668 0.177495 0.124731 0.125916
H16   H     H_    0.273375 0.291302 0.834043 0.202619
H17   H     H_    0.209111 0.119393 0.801783 0.087782
H18   H     H_    0.180638 0.310594 0.818622 0.151582
H19   H     H_    0.747330 0.822503 0.875272 0.125918
H20   H     H_    0.829386 0.747152 0.891955 0.112960
H21   H     H_    0.790876 0.880604 0.198224 0.087775
H22   H     H_    0.726619 0.708683 0.165953 0.202627
H23   H     H_    0.135827 0.486420 0.226642 0.125865
H24   H     H_    0.819358 0.689413 0.181389 0.151578
H25   H     H_    0.488351 0.186498 0.959382 0.128636
H26   H     H_    0.422272 0.145121 0.763395 0.135653
H27   H     H_    0.331481 0.079983 0.912470 0.104160
H28   H     H_    0.402246 0.012015 0.032827 0.084897
H29   H     H_    0.372277 0.197908 0.136013 0.208417
H30   H     H_    0.577726 0.854879 0.236606 0.135654
H31   H     H_    0.511647 0.813500 0.040619 0.128637
H32   H     H_    0.627721 0.802095 0.863987 0.208415
H33   H     H_    0.597751 0.987987 0.967175 0.084898
H34   H     H_    0.864175 0.513593 0.773355 0.125860
H35   H     H_    0.668517 0.920021 0.087530 0.104162
H36   H     H_    0.467053 0.956738 0.296241 0.103557
H37   H     H_    0.532947 0.043262 0.703759 0.103557
H38   H     H_    0.081350 0.774634 0.104810 0.184304
H39   H     H_    0.170632 0.853782 0.206333 0.155955
H40   H     H_    0.113563 0.978033 0.114446 0.138713
N1    N     N_R   0.030113 0.585980 0.395057 -0.250595
N2    N     N_R   0.969887 0.414033 0.604939 -0.250603
N3    N     N_R   0.960492 0.557500 0.377740 -0.246050
N4    N     N_R   0.039509 0.442513 0.622256 -0.246052
N5    N     N_2   0.480680 0.456420 0.038530 0.092768
N6    N     N_2   0.519320 0.543580 0.961470 0.092768
O1    O     O_R   0.505010 0.286130 0.619770 -0.503334
O2    O     O_3   0.736996 0.577395 0.832075 -0.545848
O3    O     O_3   0.424393 0.367605 0.928819 -0.455308
O4    O     O_3   0.575606 0.632396 0.071181 -0.455310
O5    O     O_R   0.494990 0.713870 0.380230 -0.503334
O6    O     O_R   0.491990 0.256780 0.308370 -0.535698
O7    O     O_R   0.508010 0.743220 0.691630 -0.535698
O8    O     O_R   0.406650 0.514660 0.655750 -0.487485
O9    O     O_R   0.593350 0.485340 0.344250 -0.487486
O10   O     O_R   0.393640 0.485310 0.344340 -0.448967
O11   O     O_R   0.606360 0.514690 0.655660 -0.448967
O12   O     O_3   0.263004 0.422604 0.167925 -0.545847

loop_
_geom_bond_atom_site_label_1
_geom_bond_atom_site_label_2
_ccdc_geom_bond_type
C12   C29   S    
C16   H39   S    
Cu1   Cu2   S    
C30   O8    A    
N5    N6    D    
Cu2   O6    S    
C16   H38   S    
C23   C29   D    
C28   H32   S    
C20   H15   S    
C21   H18   S    
N2    N4    A    
C29   H37   S    
C15   C16   S    
C7    C9    A    
C18   C19   S    
C26   H28   S    
C20   H14   S    
C9    C32   A    
C10   C31   S    
C28   H33   S    
C24   H21   S    
C3    C13   S    
C19   H6    S    
Cu2   O10   S    
C1    O6    A    
N1    N3    A    
C13   N4    A    
C16   H40   S    
C2    C17   S    
C18   H10   S    
Cu1   N6    S    
C19   H7    S    
Cu1   O11   S    
Cu2   O5    S    
C13   N1    A    
C5    H23   S    
C12   O7    A    
C4    C6    A    
C17   H13   S    
C5    C7    A    
Cu1   O1    S    
C6    C8    A    
C3    C34   A    
C25   C26   S    
C31   O11   A    
C22   O2    S    
C27   O4    S    
C2    C4    A    
C26   H27   S    
C15   H2    S    
C11   N2    A    
Cu2   N5    S    
C24   H24   S    
C25   O3    S    
C17   C18   S    
C25   H25   S    
C32   H1    S    
C4    C11   S    
C15   H3    S    
C11   N3    A    
C9    C30   S    
C14   H5    S    
Cu1   O7    S    
Cu2   O9    S    
C24   H22   S    
C1    C23   S    
C31   O9    A    
C22   C24   S    
C28   H35   S    
C18   H9    S    
C19   H8    S    
C2    C33   A    
C6    H34   S    
C7    O12   S    
C20   O12   S    
C12   O5    A    
C8    O2    S    
C26   H29   S    
C23   H36   S    
C17   H11   S    
C3    C5    A    
C14   C34   S    
C22   H20   S    
C22   H19   S    
C1    O1    A    
C27   H30   S    
N6    O4    S    
C21   H17   S    
C10   C33   A    
C25   H26   S    
C27   H31   S    
C14   H4    S    
Cu1   O8    S    
C20   C21   S    
C8    C10   A    
C27   C28   S    
C33   H12   S    
C14   C15   S    
C21   H16   S    
N5    O3    S    
C32   C34   A    
C30   O10   A    
