data_mof_unit_55325.cif
_audit_creation_date              2012-12-10T19:47:57-0500
_audit_creation_method            fapswitch 2.2
_symmetry_space_group_name_H-M    P1
_symmetry_Int_Tables_number       1
_space_group_crystal_system       triclinic
_cell_length_a                    15.063587
_cell_length_b                    14.133481
_cell_length_c                    10.597328
_cell_angle_alpha                 88.974495
_cell_angle_beta                  91.543559
_cell_angle_gamma                 89.760679
_cell_volume                      2254.97645134

loop_
_atom_site_label
_atom_site_type_symbol
_atom_type_description
_atom_site_fract_x
_atom_site_fract_y
_atom_site_fract_z
_atom_type_partial_charge
C1    C     C_R   0.327382 0.500176 0.499677 0.935335
C2    C     C_R   0.672379 0.499931 0.494292 0.926914
C3    C     C_R   0.047331 0.504872 0.462033 0.043043
C4    C     C_R   0.951340 0.502107 0.459015 0.043661
C5    C     C_R   0.448146 0.107025 0.411218 -0.470290
C6    C     C_R   0.566526 0.893858 0.562854 -0.412606
C7    C     C_R   0.545737 0.104003 0.594491 -0.401191
C8    C     C_R   0.429328 0.895063 0.441865 -0.420965
C9    C     C_R   0.449161 0.207652 0.411059 0.567727
C10   C     C_R   0.564029 0.793685 0.567959 0.595540
C11   C     C_R   0.550256 0.204139 0.588957 0.582689
C12   C     C_R   0.434342 0.795117 0.433855 0.589934
C13   C     C_R   0.496772 0.053707 0.503105 0.088022
C14   C     C_R   0.497310 0.946433 0.502961 0.113772
C15   C     C_R   0.514354 0.501113 0.261279 0.866985
C16   C     C_R   0.487546 0.499049 0.739982 0.865480
C17   C     C_R   0.538164 0.678933 0.105823 -0.339209
C18   C     C_R   0.475253 0.320604 0.897724 -0.302122
C19   C     C_R   0.436763 0.668104 0.884229 -0.355926
C20   C     C_R   0.580383 0.338464 0.115176 -0.308629
C21   C     C_R   0.510900 0.763260 0.042737 0.473426
C22   C     C_R   0.514714 0.238996 0.954700 0.500859
C23   C     C_R   0.453811 0.758156 0.936471 0.489281
C24   C     C_R   0.574247 0.250269 0.057079 0.485657
C25   C     C_R   0.474575 0.584788 0.938930 0.027584
C26   C     C_R   0.534495 0.417893 0.063666 0.021114
C27   C     C_R   0.514659 0.589511 0.058446 0.030465
C28   C     C_R   0.493536 0.411747 0.944804 0.018099
C29   C     C_R   0.474700 0.497027 0.876375 -0.152113
C30   C     C_R   0.531221 0.504287 0.126554 -0.148027
C31   C     C_R   0.090843 0.580738 0.518438 -0.309567
C32   C     C_R   0.908973 0.419263 0.496372 -0.286146
C33   C     C_R   0.902524 0.582622 0.423435 -0.305164
C34   C     C_R   0.094793 0.427553 0.419743 -0.291336
C35   C     C_R   0.183479 0.581662 0.529513 0.490779
C36   C     C_R   0.817361 0.416005 0.499036 0.468786
C37   C     C_R   0.810383 0.583787 0.435056 0.481725
C38   C     C_R   0.185726 0.422329 0.440476 0.465454
C39   C     C_R   0.230909 0.500922 0.491477 -0.275794
C40   C     C_R   0.767950 0.500047 0.476873 -0.279028
H1    H     H_    0.579651 0.683186 0.190243 0.201368
H2    H     H_    0.431655 0.312942 0.816052 0.175153
H3    H     H_    0.394285 0.661542 0.801153 0.193408
H4    H     H_    0.624438 0.346290 0.196687 0.158192
H5    H     H_    0.052277 0.637679 0.556881 0.151268
H6    H     H_    0.946866 0.356654 0.524448 0.155029
H7    H     H_    0.936669 0.644044 0.386823 0.150873
H8    H     H_    0.060875 0.369240 0.374470 0.158341
H9    H     H_    0.411427 0.070263 0.338874 0.165858
H10   H     H_    0.622816 0.929776 0.604545 0.151960
H11   H     H_    0.578494 0.065850 0.671577 0.189167
H12   H     H_    0.372027 0.931816 0.402091 0.153582
N1    N     N_R   0.500000 0.252470 0.500000 -0.176666
N2    N     N_R   0.500000 0.747530 0.500000 -0.173552
O1    O     O_R   0.369060 0.579480 0.500010 -0.538674
O2    O     O_R   0.630940 0.420520 0.499990 -0.565821
O3    O     O_R   0.630940 0.579480 0.499990 -0.534977
O4    O     O_R   0.369060 0.420520 0.500010 -0.570657
O5    O     O_R   0.499990 0.579480 0.316780 -0.601983
O6    O     O_R   0.500010 0.420520 0.683220 -0.587712
O7    O     O_R   0.500010 0.579480 0.683220 -0.597186
O8    O     O_R   0.499990 0.420520 0.316780 -0.575517
Zn1   Zn    Zn3+2 0.500000 0.606140 0.500000 1.051051
Zn2   Zn    Zn3+2 0.500000 0.393860 0.500000 1.036536
O9    O     O_3   0.633616 0.178277 0.089350 -0.600389
C41   C     C_3   0.611538 0.137584 0.206393 -0.301426
H13   H     H_    0.549516 0.095936 0.196307 0.201187
H14   H     H_    0.606279 0.191037 0.281459 0.141624
H15   H     H_    0.665321 0.087858 0.237161 0.170760
O10   O     O_3   0.423117 0.844408 0.884923 -0.584296
C42   C     C_3   0.356957 0.835575 0.789431 -0.334074
H16   H     H_    0.299621 0.793637 0.823114 0.175389
H17   H     H_    0.385257 0.805311 0.703249 0.179651
H18   H     H_    0.331641 0.907238 0.763137 0.174682
O11   O     O_3   0.504899 0.148891 0.905699 -0.578046
C43   C     C_3   0.415938 0.130422 0.869096 -0.315701
H19   H     H_    0.407092 0.052675 0.865618 0.238909
H20   H     H_    0.401045 0.159206 0.772622 0.155143
H21   H     H_    0.367674 0.157880 0.937501 0.124103
O12   O     O_3   0.531163 0.852729 0.088100 -0.578862
C44   C     C_3   0.619488 0.858184 0.135346 -0.311642
H22   H     H_    0.667042 0.818474 0.077074 0.148920
H23   H     H_    0.623595 0.833754 0.235575 0.167967
H24   H     H_    0.640073 0.933338 0.132683 0.205670
O13   O     O_3   0.228546 0.655030 0.589121 -0.594114
C45   C     C_3   0.196130 0.744611 0.547598 -0.281702
H25   H     H_    0.177162 0.746651 0.445207 0.163685
H26   H     H_    0.139357 0.766493 0.605232 0.138141
H27   H     H_    0.249390 0.797517 0.561670 0.181570
O14   O     O_3   0.776699 0.331402 0.529366 -0.582324
C46   C     C_3   0.779506 0.272071 0.423631 -0.291495
H28   H     H_    0.847982 0.245220 0.409881 0.147965
H29   H     H_    0.753723 0.308480 0.335948 0.157181
H30   H     H_    0.736391 0.210008 0.440231 0.167816
O15   O     O_3   0.759727 0.661169 0.392538 -0.591560
C47   C     C_3   0.792707 0.746549 0.442347 -0.262639
H31   H     H_    0.813409 0.739084 0.543810 0.167943
H32   H     H_    0.848103 0.773914 0.385349 0.130980
H33   H     H_    0.738971 0.800424 0.435651 0.184340
O16   O     O_3   0.230595 0.342098 0.404326 -0.548780
C48   C     C_3   0.216499 0.269540 0.494938 -0.261919
H34   H     H_    0.238572 0.291351 0.591252 0.141398
H35   H     H_    0.256470 0.206732 0.470818 0.184297
H36   H     H_    0.145756 0.247289 0.494834 0.127238
O17   O     O_3   0.400302 0.265373 0.326146 -0.524048
C49   C     C_3   0.361401 0.218011 0.222744 -0.270392
H37   H     H_    0.306145 0.171954 0.253485 0.154054
H38   H     H_    0.411478 0.177582 0.170686 0.131915
H39   H     H_    0.332625 0.271807 0.155818 0.197157
O18   O     O_3   0.627996 0.739143 0.632779 -0.560671
C50   C     C_3   0.656920 0.780245 0.747103 -0.340398
H40   H     H_    0.602170 0.815492 0.797058 0.194180
H41   H     H_    0.711741 0.830704 0.729655 0.147451
H42   H     H_    0.683650 0.723287 0.810915 0.191917
O19   O     O_3   0.599060 0.257179 0.675777 -0.551465
C51   C     C_3   0.675302 0.209651 0.725642 -0.197556
H43   H     H_    0.711630 0.170849 0.652574 0.135452
H44   H     H_    0.657832 0.160794 0.804016 0.194885
H45   H     H_    0.721279 0.263045 0.765789 0.207005
O20   O     O_3   0.371398 0.741398 0.368887 -0.556159
C52   C     C_3   0.332462 0.789325 0.263138 -0.331806
H46   H     H_    0.381407 0.831504 0.209604 0.205526
H47   H     H_    0.276730 0.834854 0.292556 0.138643
H48   H     H_    0.304444 0.735929 0.197946 0.193463

loop_
_geom_bond_atom_site_label_1
_geom_bond_atom_site_label_2
_ccdc_geom_bond_type
C41   H14   S    
C48   H34   S    
C19   C23   A    
O15   C47   S    
C43   H21   S    
C44   H22   S    
C2    O3    A    
O13   C45   S    
C7    C11   A    
C20   C26   A    
C32   C36   A    
C28   C29   A    
C43   H20   S    
C37   C40   A    
C18   H2    S    
C38   C39   A    
N1    Zn2   S    
C45   H26   S    
C41   H15   S    
C46   H29   S    
C49   H37   S    
C9    O17   S    
O19   C51   S    
C47   H33   S    
C51   H43   S    
C37   O15   S    
C16   O6    A    
O7    Zn1   S    
O18   C50   S    
C52   H48   S    
O8    Zn2   S    
C44   H23   S    
C12   O20   S    
C20   C24   A    
C47   H32   S    
O2    Zn2   S    
O10   C42   S    
C11   O19   S    
C8    H12   S    
C5    C13   A    
C11   N1    A    
C41   H13   S    
C48   H35   S    
C34   C38   A    
C13   C14   S    
C27   C30   A    
C25   C29   A    
C23   O10   S    
C5    H9    S    
C15   O5    A    
C22   O11   S    
C10   N2    A    
C20   H4    S    
C19   H3    S    
O3    Zn1   S    
O4    Zn2   S    
C17   C27   A    
C36   C40   A    
C18   C28   A    
C43   H19   S    
C38   O16   S    
C46   H28   S    
C42   H17   S    
C45   H25   S    
C3    C34   A    
C16   C29   S    
C33   C37   A    
O1    Zn1   S    
C35   C39   A    
O11   C43   S    
C5    C9    A    
C6    C14   A    
C8    C12   A    
C47   H31   S    
C50   H41   S    
C6    H10   S    
C3    C31   A    
C52   H46   S    
C4    C32   A    
C24   O9    S    
C26   C30   A    
C48   H36   S    
C21   C23   A    
C31   H5    S    
C33   H7    S    
C31   C35   A    
O5    Zn1   S    
C9    N1    A    
C16   O7    A    
C3    C4    S    
C44   H24   S    
O20   C52   S    
C15   C30   S    
C36   O14   S    
C4    C33   A    
C8    C14   A    
C50   H40   S    
C18   C22   A    
C32   H6    S    
O12   C44   S    
C45   H27   S    
C6    C10   A    
C42   H18   S    
C25   C27   A    
O17   C49   S    
C26   C28   A    
C51   H45   S    
O6    Zn2   S    
C1    O1    A    
C7    H11   S    
C42   H16   S    
C2    O2    A    
C1    O4    A    
C46   H30   S    
C35   O13   S    
O14   C46   S    
C49   H38   S    
C21   O12   S    
O16   C48   S    
C15   O8    A    
C51   H44   S    
C10   O18   S    
C50   H42   S    
C22   C24   A    
C19   C25   A    
C17   H1    S    
C52   H47   S    
C1    C39   S    
C2    C40   S    
C7    C13   A    
C34   H8    S    
O9    C41   S    
N2    Zn1   S    
C12   N2    A    
C49   H39   S    
C17   C21   A    
