data_mof_unit_28913.cif
_audit_creation_date              2012-12-11T14:21:03-0500
_audit_creation_method            fapswitch 2.2
_symmetry_space_group_name_H-M    P1
_symmetry_Int_Tables_number       1
_space_group_crystal_system       triclinic
_cell_length_a                    21.923889
_cell_length_b                    7.213546
_cell_length_c                    14.900269
_cell_angle_alpha                 89.834218
_cell_angle_beta                  106.831451
_cell_angle_gamma                 89.884541
_cell_volume                      2255.49370441

loop_
_atom_site_label
_atom_site_type_symbol
_atom_type_description
_atom_site_fract_x
_atom_site_fract_y
_atom_site_fract_z
_atom_type_partial_charge
O1    O     O_R   0.584770 0.505770 0.002090 -0.544174
O2    O     O_R   0.415230 0.005770 0.997910 -0.545805
O3    O     O_R   0.467060 0.173340 0.861950 -0.537540
O4    O     O_R   0.532940 0.673340 0.138050 -0.533601
C1    C     C_R   0.454641 0.344609 0.826101 0.761157
C2    C     C_R   0.545399 0.843704 0.173965 0.759801
O5    O     O_R   0.587510 0.175890 0.993210 -0.541871
O6    O     O_R   0.412490 0.675890 0.006790 -0.539906
O7    O     O_R   0.536540 0.008150 0.130100 -0.540903
O8    O     O_R   0.463460 0.508150 0.869900 -0.538260
C3    C     C_R   0.612946 0.344780 0.997410 0.753373
C4    C     C_R   0.387054 0.845015 0.002596 0.753041
O9    O     O_3   0.483140 0.340040 0.044760 -0.381431
O10   O     O_3   0.516860 0.840040 0.955240 -0.381348
V1    V     V_3+5 0.503130 0.064190 0.991700 1.461886
V2    V     V_3+5 0.496870 0.564190 0.008300 1.472951
C5    C     C_2   0.214084 0.727399 0.003526 -0.130470
C6    C     C_2   0.786209 0.227687 0.996944 -0.127231
C7    C     C_2   0.180306 0.886440 0.996118 -0.303608
C8    C     C_2   0.819668 0.386858 0.003888 -0.304820
H1    H     H_    0.191069 0.596698 0.009561 0.139174
H2    H     H_    0.809511 0.097056 0.991324 0.139671
H3    H     H_    0.201775 0.018540 0.988888 0.127732
H4    H     H_    0.797951 0.518931 0.010757 0.127380
C9    C     C_2   0.281997 0.714592 0.003192 -0.127200
C10   C     C_2   0.718313 0.214408 0.997270 -0.131271
C11   C     C_2   0.319943 0.861485 0.003678 -0.276183
C12   C     C_2   0.680033 0.361100 0.996286 -0.273612
H5    H     H_    0.301271 0.575767 0.003274 0.135931
H6    H     H_    0.699353 0.075522 0.997620 0.135456
H7    H     H_    0.301985 0.001162 0.004605 0.126745
H8    H     H_    0.697733 0.500783 0.994973 0.127789
C13   C     C_R   0.928756 0.887788 0.723461 -0.074606
C14   C     C_R   0.071334 0.385293 0.276364 -0.070282
C15   C     C_R   0.574412 0.848202 0.275470 -0.146680
C16   C     C_R   0.425555 0.354719 0.724780 -0.145657
C17   C     C_R   0.940714 0.913352 0.566343 0.417699
C18   C     C_R   0.058502 0.365645 0.433300 0.424513
C19   C     C_R   0.967176 0.915488 0.664751 -0.296220
C20   C     C_R   0.032095 0.370762 0.334718 -0.298767
C21   C     C_R   0.863448 0.862006 0.685948 -0.214326
C22   C     C_R   0.137174 0.391892 0.313976 -0.214993
C23   C     C_R   0.834019 0.868316 0.588185 0.025211
C24   C     C_R   0.166257 0.382607 0.411680 0.024708
C25   C     C_R   0.873698 0.895542 0.528686 0.049203
C26   C     C_R   0.125882 0.368474 0.471012 0.048018
C27   C     C_R   0.766400 0.851818 0.548076 0.073789
C28   C     C_R   0.234128 0.385193 0.451921 0.074354
C29   C     C_R   0.739096 0.866610 0.448725 0.091014
C30   C     C_R   0.260918 0.370717 0.551343 0.091478
C31   C     C_R   0.780455 0.892014 0.392615 -0.215901
C32   C     C_R   0.218975 0.357809 0.607302 -0.215534
C33   C     C_R   0.845932 0.905100 0.431681 -0.185524
C34   C     C_R   0.153345 0.357278 0.568063 -0.184518
C35   C     C_R   0.725110 0.821392 0.604136 -0.175744
C36   C     C_R   0.276165 0.401562 0.395939 -0.176419
C37   C     C_R   0.659750 0.807843 0.565166 -0.136591
C38   C     C_R   0.341706 0.401328 0.435066 -0.137103
C39   C     C_R   0.632395 0.823515 0.468860 0.039684
C40   C     C_R   0.368526 0.385147 0.531450 0.038901
C41   C     C_R   0.671331 0.853994 0.408890 0.092299
C42   C     C_R   0.328816 0.369862 0.591359 0.092799
C43   C     C_R   0.566050 0.806331 0.432088 -0.223496
C44   C     C_R   0.435175 0.384850 0.568302 -0.223690
C45   C     C_R   0.537274 0.816648 0.335881 0.608740
C46   C     C_R   0.463569 0.369874 0.664473 0.607618
C47   C     C_R   0.640541 0.868439 0.311348 -0.313535
C48   C     C_R   0.359057 0.354456 0.688963 -0.312810
H9    H     H_    0.874887 0.924398 0.384534 0.165588
H10   H     H_    0.124009 0.347247 0.615202 0.166570
H11   H     H_    0.666315 0.891101 0.260791 0.120909
H12   H     H_    0.332727 0.342624 0.739519 0.119258
H13   H     H_    0.630233 0.783828 0.611211 0.152148
H14   H     H_    0.371813 0.414006 0.389040 0.154443
H15   H     H_    0.017439 0.940443 0.696545 0.103493
H16   H     H_    0.981256 0.362175 0.302062 0.096309
H17   H     H_    0.837072 0.843625 0.735992 0.109261
H18   H     H_    0.163977 0.402261 0.264051 0.107859
H19   H     H_    0.763914 0.901893 0.317378 0.123282
H20   H     H_    0.235160 0.348149 0.682559 0.122982
H21   H     H_    0.741410 0.805525 0.679066 0.125964
H22   H     H_    0.260403 0.415639 0.320904 0.126844
H23   H     H_    0.536458 0.781945 0.477960 0.154658
H24   H     H_    0.465391 0.396934 0.522438 0.155325
O11   O     O_R   0.036450 0.233070 0.130130 -0.536852
O12   O     O_R   0.963550 0.733070 0.869870 -0.538566
O13   O     O_R   0.912470 0.560570 0.006790 -0.545607
O14   O     O_R   0.087530 0.060570 0.993210 -0.545068
C49   C     C_R   0.887002 0.392042 0.002629 0.729990
C50   C     C_R   0.112991 0.891808 0.997384 0.730558
O15   O     O_R   0.032920 0.562940 0.138050 -0.539838
O16   O     O_R   0.967080 0.062940 0.861950 -0.537954
O17   O     O_R   0.084790 0.730500 0.002090 -0.537675
O18   O     O_R   0.915210 0.230500 0.997910 -0.537162
C51   C     C_R   0.043979 0.394029 0.174588 0.711391
C52   C     C_R   0.955951 0.894651 0.825354 0.711679
O19   O     O_3   0.016820 0.396170 0.955260 -0.379246
O20   O     O_3   0.983180 0.896170 0.044740 -0.379264
V3    V     V_3+5 0.996880 0.672090 0.008300 1.410976
V4    V     V_3+5 0.003120 0.172090 0.991700 1.416200
F1    F     F_    0.473247 0.794356 0.301537 -0.695710
F2    F     F_    0.528080 0.371337 0.698833 -0.695546
O21   O     O_3   0.976992 0.944959 0.504602 -0.552368
C53   C     C_3   0.039527 0.872220 0.537108 0.113989
H25   H     H_    0.040439 0.733320 0.570370 0.121422
H26   H     H_    0.070663 0.969868 0.587610 0.140345
C54   C     C_3   0.066718 0.850663 0.454577 -0.668840
H27   H     H_    0.070139 0.987393 0.422417 0.229591
H28   H     H_    0.115090 0.788274 0.478827 0.179559
H29   H     H_    0.035552 0.760158 0.400432 0.210500
O22   O     O_3   0.021901 0.345014 0.495681 -0.553024
C55   C     C_3   0.958171 0.406478 0.459717 0.117826
H30   H     H_    0.929758 0.302588 0.409979 0.143908
H31   H     H_    0.955425 0.544261 0.424864 0.116281
C56   C     C_3   0.928718 0.425954 0.540032 -0.668390
H32   H     H_    0.957118 0.522910 0.593504 0.210100
H33   H     H_    0.879235 0.479533 0.512982 0.179292
H34   H     H_    0.927462 0.289880 0.574017 0.232132

loop_
_geom_bond_atom_site_label_1
_geom_bond_atom_site_label_2
_ccdc_geom_bond_type
C43   C45   A    
C21   C23   A    
C46   F2    S    
O22   C55   S    
C14   C22   A    
C45   F1    S    
O2    C4    A    
C2    O7    A    
C53   H26   S    
C27   C29   A    
O5    C3    A    
C38   H14   S    
C13   C19   A    
C14   C20   A    
C21   H17   S    
C16   C46   A    
C37   C39   A    
C15   C45   A    
C38   C40   A    
C56   H32   S    
C1    C16   S    
O16   C52   A    
C2    C15   S    
C40   C42   A    
C37   H13   S    
C49   O18   A    
C44   H24   S    
C8    H4    S    
C24   C26   A    
C56   H33   S    
C6    C10   S    
C30   C32   A    
C54   H27   S    
C19   H15   S    
C35   H21   S    
O17   V3    S    
C47   H11   S    
C48   H12   S    
C28   C30   A    
C25   C33   A    
O6    V2    S    
C54   H28   S    
C22   C24   A    
C55   H31   S    
C53   H25   S    
C32   C34   A    
O13   V3    S    
C9    H5    S    
C39   C41   A    
C29   C41   A    
C4    C11   S    
C11   H7    S    
C12   H8    S    
C14   C51   S    
O4    C2    A    
C17   O21   S    
C29   C31   A    
C33   H9    S    
C5    H1    S    
C20   H16   S    
C43   H23   S    
C31   C33   A    
C44   C46   A    
O4    V2    S    
C7    H3    S    
O2    V1    S    
C41   C47   A    
C34   H10   S    
O18   V4    S    
O6    C4    A    
C56   H34   S    
C26   C34   A    
O1    V2    S    
C36   H22   S    
O12   V3    S    
C23   C25   A    
O14   V4    S    
O12   C52   A    
O14   C50   A    
C10   H6    S    
O13   C49   A    
C30   C42   A    
C54   H29   S    
C17   C25   A    
C13   C52   S    
O19   V4    S    
O3    V1    S    
O16   V4    S    
C50   O17   A    
C27   C35   A    
C8    C49   S    
C28   C36   A    
C6    H2    S    
C10   C12   D    
O3    C1    A    
C16   C48   A    
C22   H18   S    
C9    C11   D    
C55   H30   S    
C39   C43   A    
C42   C48   A    
C40   C44   A    
C13   C21   A    
C35   C37   A    
O7    V1    S    
C5    C9    S    
C1    O8    A    
C17   C19   A    
C7    C50   S    
O8    V2    S    
C18   C20   A    
O11   C51   A    
C3    C12   S    
O5    V1    S    
C5    C7    D    
C36   C38   A    
C6    C8    D    
C55   C56   S    
C31   H19   S    
C18   C26   A    
C15   C47   A    
O15   C51   A    
O20   V3    S    
O9    V2    S    
O21   C53   S    
O11   V4    S    
O10   V1    S    
O1    C3    A    
O15   V3    S    
C18   O22   S    
C32   H20   S    
C23   C27   A    
C53   C54   S    
C24   C28   A    
