data_mof_unit_46579.cif
_audit_creation_date              2012-12-10T17:24:42-0500
_audit_creation_method            fapswitch 2.2
_symmetry_space_group_name_H-M    P1
_symmetry_Int_Tables_number       1
_space_group_crystal_system       triclinic
_cell_length_a                    23.493608
_cell_length_b                    10.84037
_cell_length_c                    9.610218
_cell_angle_alpha                 89.856494
_cell_angle_beta                  90.139141
_cell_angle_gamma                 93.537463
_cell_volume                      2442.84723795

loop_
_atom_site_label
_atom_site_type_symbol
_atom_type_description
_atom_site_fract_x
_atom_site_fract_y
_atom_site_fract_z
_atom_type_partial_charge
C1    C     C_R   0.504116 0.263103 0.500905 0.785006
C2    C     C_R   0.959324 0.288148 0.412813 -0.205684
C3    C     C_R   0.018458 0.278951 0.410017 0.087876
C4    C     C_R   0.054794 0.382090 0.452574 -0.064013
C5    C     C_R   0.030034 0.484256 0.515583 -0.046672
C6    C     C_R   0.065224 0.580220 0.573724 -0.033275
C7    C     C_R   0.040882 0.678277 0.641115 -0.197411
C8    C     C_R   0.981679 0.686371 0.648065 0.080435
C9    C     C_R   0.114697 0.389343 0.433586 0.581248
C10   C     C_R   0.124533 0.575014 0.566459 0.514996
C11   C     C_R   0.241405 0.582758 0.432171 -0.158048
C12   C     C_R   0.391307 0.498321 0.499391 0.846739
C13   C     C_R   0.300751 0.588047 0.436789 -0.300604
C14   C     C_R   0.329055 0.490762 0.495636 -0.189758
C15   C     C_R   0.297714 0.383590 0.541979 0.319111
C16   C     C_R   0.237940 0.380830 0.543862 0.404575
C17   C     C_R   0.209435 0.480755 0.487927 0.192732
C18   C     C_R   0.760513 0.507835 0.633287 -0.111570
C19   C     C_R   0.701182 0.505851 0.630255 -0.225415
C20   C     C_R   0.671840 0.505943 0.502479 -0.038972
C21   C     C_R   0.703087 0.510361 0.377869 -0.222478
C22   C     C_R   0.762541 0.512458 0.381227 -0.101504
C23   C     C_R   0.496038 0.737035 0.500929 0.784827
C24   C     C_R   0.791446 0.510243 0.508959 0.364418
C25   C     C_R   0.530568 0.118447 0.758658 -0.165831
C26   C     C_R   0.521216 0.057929 0.885409 -0.173548
C27   C     C_R   0.492081 0.942635 0.888333 -0.135852
C28   C     C_R   0.477837 0.882479 0.763913 -0.152938
C29   C     C_R   0.493178 0.937048 0.633800 0.093175
C30   C     C_R   0.510980 0.063343 0.632182 0.098605
C31   C     C_R   0.507961 0.128945 0.504411 -0.122978
C32   C     C_R   0.500560 0.063939 0.379265 -0.214806
C33   C     C_R   0.495408 0.936383 0.379571 -0.223513
C34   C     C_R   0.609048 0.501862 0.500339 0.783329
C35   C     C_R   0.492178 0.871281 0.505498 -0.118815
C36   C     C_R   0.575192 0.667880 0.143652 -0.155712
C37   C     C_R   0.611854 0.750305 0.071412 -0.219494
C38   C     C_R   0.612169 0.749676 0.927935 -0.187780
C39   C     C_R   0.575769 0.666738 0.855740 -0.138457
C40   C     C_R   0.537080 0.582318 0.924972 0.165465
C41   C     C_R   0.536789 0.582812 0.074474 0.198437
C42   C     C_R   0.466326 0.419525 0.076513 -0.082666
C43   C     C_R   0.464146 0.421002 0.929155 0.160538
C44   C     C_R   0.885269 0.601109 0.568182 0.514195
C45   C     C_R   0.875860 0.401465 0.463419 0.534141
C46   C     C_R   0.935030 0.393506 0.463927 -0.033945
C47   C     C_R   0.970080 0.490837 0.520331 -0.038075
C48   C     C_R   0.945253 0.594498 0.580503 -0.040581
Cu1   Cu    Cu3+1 0.500000 0.499990 0.640660 0.913248
Cu2   Cu    Cu3+1 0.500000 0.500010 0.359340 0.920579
H1    H     H_    0.932030 0.210159 0.377282 0.187551
H2    H     H_    0.678359 0.503111 0.728097 0.162873
H3    H     H_    0.681673 0.511414 0.277990 0.162322
H4    H     H_    0.786197 0.514488 0.284609 0.139207
H5    H     H_    0.499112 0.111546 0.280174 0.163169
H6    H     H_    0.554420 0.206813 0.761536 0.170306
H7    H     H_    0.535011 0.102279 0.981600 0.137285
H8    H     H_    0.481733 0.898322 0.986950 0.136993
H9    H     H_    0.453452 0.795074 0.772078 0.167144
H10   H     H_    0.493399 0.888815 0.280493 0.167804
H11   H     H_    0.439588 0.353160 0.135140 0.146298
H12   H     H_    0.579210 0.674130 0.253503 0.202259
H13   H     H_    0.640577 0.814531 0.127498 0.160321
H14   H     H_    0.641021 0.813635 0.871831 0.160997
H15   H     H_    0.579829 0.673006 0.745927 0.202427
H16   H     H_    0.068230 0.750120 0.689702 0.182899
H17   H     H_    0.220088 0.659453 0.387766 0.176840
H18   H     H_    0.324665 0.668896 0.396193 0.171016
H19   H     H_    0.782497 0.505470 0.732335 0.137325
N1    N     N_R   0.852362 0.504687 0.512759 -0.462084
N2    N     N_R   0.148162 0.482099 0.494777 -0.445609
N3    N     N_R   0.500540 0.501210 0.147910 -0.211256
N4    N     N_R   0.500560 0.501290 0.852040 -0.217706
O1    O     O_R   0.500000 0.319640 0.618810 -0.610008
O2    O     O_2   0.841827 0.306579 0.413827 -0.547229
O3    O     O_2   0.139391 0.308320 0.350413 -0.547092
O4    O     O_2   0.158482 0.662230 0.631088 -0.559887
O5    O     O_R   0.500000 0.319660 0.381240 -0.581568
O6    O     O_R   0.417880 0.499950 0.618810 -0.578271
O7    O     O_R   0.417880 0.499980 0.381240 -0.583686
O8    O     O_R   0.500000 0.680340 0.618760 -0.609613
O9    O     O_R   0.500000 0.680360 0.381190 -0.597908
O10   O     O_R   0.582120 0.500020 0.618760 -0.602265
O11   O     O_R   0.582120 0.500050 0.381190 -0.593009
O12   O     O_2   0.859746 0.703693 0.605920 -0.560712
C49   C     C_3   0.038898 0.152545 0.376032 -0.356215
C50   C     C_3   0.038316 0.129274 0.218932 -0.313935
C51   C     C_3   0.054426 0.998216 0.186184 -0.854062
H20   H     H_    0.098712 0.984872 0.221311 0.267265
H21   H     H_    0.024732 0.929377 0.238763 0.254642
H22   H     H_    0.051591 0.982212 0.072236 0.238216
H23   H     H_    0.995020 0.141769 0.176237 0.210269
H24   H     H_    0.068726 0.196821 0.167187 0.256487
H25   H     H_    0.081242 0.137685 0.422013 0.240074
H26   H     H_    0.009713 0.081418 0.426407 0.170489
C52   C     C_3   0.421222 0.326652 0.866652 -0.345276
C53   C     C_3   0.359489 0.346668 0.913176 -0.351222
C54   C     C_3   0.325232 0.223624 0.933885 -0.813936
H27   H     H_    0.322875 0.169906 0.835676 0.289132
H28   H     H_    0.345330 0.168225 0.015786 0.235360
H29   H     H_    0.281480 0.240931 0.968315 0.240832
H30   H     H_    0.358009 0.398724 0.012315 0.205660
H31   H     H_    0.338185 0.402861 0.834081 0.245933
H32   H     H_    0.421302 0.323576 0.753297 0.268610
H33   H     H_    0.433705 0.234089 0.900980 0.180199
C55   C     C_3   0.961109 0.791741 0.734637 -0.344135
C56   C     C_3   0.959239 0.909903 0.647231 -0.321775
C57   C     C_3   0.938195 0.016513 0.732414 -0.816058
H34   H     H_    0.894237 0.993190 0.770550 0.272042
H35   H     H_    0.966938 0.036628 0.822605 0.244345
H36   H     H_    0.937765 0.100632 0.666293 0.245816
H37   H     H_    0.002881 0.936477 0.608952 0.196411
H38   H     H_    0.930831 0.893709 0.555659 0.256784
H39   H     H_    0.919833 0.766952 0.786074 0.236342
H40   H     H_    0.991042 0.810367 0.823147 0.169099
O13   O     O_3   0.324918 0.284727 0.596688 -0.624043
C58   C     C_3   0.345607 0.211117 0.488766 0.052335
H41   H     H_    0.385976 0.174552 0.526402 0.160670
H42   H     H_    0.356083 0.263071 0.390744 0.122389
C59   C     C_3   0.303117 0.101722 0.458272 -0.290293
H43   H     H_    0.290537 0.054539 0.557365 0.235730
H44   H     H_    0.264302 0.135831 0.408646 0.248882
C60   C     C_3   0.328874 0.008807 0.361387 -0.940424
H45   H     H_    0.342036 0.053995 0.261695 0.253900
H46   H     H_    0.296736 0.931948 0.338992 0.260612
H47   H     H_    0.366544 0.969774 0.411156 0.264869
O14   O     O_3   0.207857 0.276070 0.592470 -0.590131
C61   C     C_3   0.190166 0.296302 0.730187 0.074930
H48   H     H_    0.153181 0.355536 0.730368 0.147906
H49   H     H_    0.225129 0.341151 0.794655 0.143280
C62   C     C_3   0.171917 0.171642 0.795252 -0.329683
H50   H     H_    0.138657 0.123402 0.729111 0.226719
H51   H     H_    0.209238 0.113566 0.800639 0.228407
C63   C     C_3   0.148084 0.187113 0.940966 -0.916517
H52   H     H_    0.179233 0.240301 0.008161 0.270695
H53   H     H_    0.138974 0.094641 0.988187 0.267749
H54   H     H_    0.107963 0.236007 0.935510 0.254207

loop_
_geom_bond_atom_site_label_1
_geom_bond_atom_site_label_2
_ccdc_geom_bond_type
C43   N4    A    
C52   H33   S    
C23   O9    A    
C56   H37   S    
C19   C20   A    
C25   H6    S    
C50   C51   S    
C62   C63   S    
C61   H48   S    
C63   H54   S    
C53   C54   S    
Cu2   O11   S    
C60   H45   S    
C22   H4    S    
C45   C46   A    
C2    C46   A    
C5    C6    A    
C5    C47   A    
C26   C27   A    
C29   C30   A    
C55   H39   S    
C18   C24   A    
C1    O1    A    
C28   C29   A    
C58   H42   S    
C38   C39   A    
C60   H46   S    
C55   C56   S    
C61   H49   S    
C15   C16   A    
C12   O6    A    
C50   H24   S    
C1    C31   S    
C57   H34   S    
C18   C19   A    
Cu1   O8    S    
Cu1   Cu2   S    
Cu2   N3    S    
C56   H38   S    
C49   H25   S    
C19   H2    S    
C47   C48   A    
C59   H44   S    
C16   C17   A    
C56   C57   S    
C44   N1    A    
C9    O3    S    
C32   H5    S    
C53   H30   S    
C59   C60   S    
C20   C34   S    
C10   N2    A    
C18   H19   S    
C21   C22   A    
C3    C49   S    
C1    O5    A    
C39   H15   S    
C36   C41   A    
C34   O11   A    
C36   H12   S    
Cu2   O5    S    
C37   H13   S    
C10   O4    S    
C11   H17   S    
C6    C7    A    
C38   H14   S    
C24   N1    S    
C7    C8    A    
C49   H26   S    
C58   C59   S    
C39   C40   A    
C49   C50   S    
C60   H47   S    
C63   H53   S    
C25   C26   A    
Cu1   O6    S    
Cu2   O7    S    
C26   H7    S    
C8    C48   A    
C37   C38   A    
C31   C32   A    
C14   C15   A    
C51   H22   S    
C52   C53   S    
C42   N3    A    
C43   C52   S    
C20   C21   A    
C42   H11   S    
C53   H31   S    
C41   N3    A    
C40   C41   A    
C51   H21   S    
C17   N2    S    
C33   H10   S    
C23   C35   S    
C52   H32   S    
C22   C24   A    
C42   C43   A    
C3    C4    A    
C61   C62   S    
C50   H23   S    
C59   H43   S    
Cu2   O9    S    
C28   H9    S    
C25   C30   A    
C46   C47   A    
C11   C17   A    
C23   O8    A    
C45   N1    A    
Cu1   O1    S    
C9    N2    A    
C12   C14   S    
C4    C5    A    
C62   H51   S    
C27   H8    S    
C8    C55   S    
C6    C10   A    
O14   C61   S    
C54   H29   S    
C29   C35   A    
C63   H52   S    
C54   H28   S    
C57   H36   S    
C55   H40   S    
C45   O2    S    
C32   C33   A    
Cu1   O10   S    
C2    C3    A    
C4    C9    A    
C58   H41   S    
C7    H16   S    
C21   H3    S    
C11   C13   A    
C30   C31   A    
C12   O7    A    
C33   C35   A    
C57   H35   S    
O13   C58   S    
Cu1   N4    S    
C62   H50   S    
C16   O14   S    
C2    H1    S    
C44   C48   A    
C51   H20   S    
C36   C37   A    
C54   H27   S    
C34   O10   A    
C27   C28   A    
C15   O13   S    
C40   N4    A    
C13   C14   A    
C44   O12   S    
C13   H18   S    
