data_mof_unit_29649.cif
_audit_creation_date              2012-12-11T17:25:09-0500
_audit_creation_method            fapswitch 2.2
_symmetry_space_group_name_H-M    P1
_symmetry_Int_Tables_number       1
_space_group_crystal_system       triclinic
_cell_length_a                    6.955182
_cell_length_b                    20.528153
_cell_length_c                    24.490931
_cell_angle_alpha                 90.117805
_cell_angle_beta                  90.383429
_cell_angle_gamma                 89.410536
_cell_volume                      3496.47238661

loop_
_atom_site_label
_atom_site_type_symbol
_atom_type_description
_atom_site_fract_x
_atom_site_fract_y
_atom_site_fract_z
_atom_type_partial_charge
O1    O     O_R   0.507280 0.423750 0.460310 -0.535075
O2    O     O_R   0.171030 0.555650 0.437630 -0.536141
O3    O     O_R   0.004080 0.576250 0.539690 -0.535656
C1    C     C_R   0.339079 0.575721 0.421830 0.723047
O4    O     O_R   0.177330 0.422980 0.453960 -0.537919
O5    O     O_R   0.010420 0.442640 0.556140 -0.534941
C2    C     C_R   0.346625 0.399223 0.443033 0.692070
O6    O     O_R   0.500930 0.557360 0.443860 -0.534876
O7    O     O_3   0.340310 0.506600 0.533500 -0.366826
V1    V     V_3+5 0.064140 0.498780 0.493780 1.429072
O8    O     O_R   0.680890 0.444350 0.562370 -0.537703
C3    C     C_R   0.850567 0.424399 0.578145 0.725744
O9    O     O_R   0.674590 0.577020 0.546040 -0.537848
C4    C     C_R   0.842534 0.600952 0.556678 0.696050
V2    V     V_3+5 0.564550 0.501220 0.506220 1.428455
O10   O     O_3   0.838250 0.493400 0.466500 -0.366639
C5    C     C_R   0.976703 0.838348 0.910970 -0.042020
C6    C     C_R   0.846792 0.661562 0.588984 -0.045946
C7    C     C_R   0.045043 0.722915 0.905035 -0.162250
C8    C     C_R   0.034690 0.780062 0.935542 -0.169152
C9    C     C_R   0.929566 0.839253 0.855040 -0.215064
C10   C     C_R   0.942411 0.781649 0.822550 0.086703
C11   C     C_R   0.000993 0.723209 0.849024 0.139733
C12   C     C_R   0.902076 0.779987 0.764907 0.057403
C13   C     C_R   0.921220 0.719913 0.735057 0.058372
C14   C     C_R   0.979321 0.663526 0.763880 -0.186761
C15   C     C_R   0.017778 0.665324 0.819529 -0.201428
C16   C     C_R   0.843868 0.836366 0.736090 -0.186295
C17   C     C_R   0.805341 0.834563 0.680444 -0.197187
C18   C     C_R   0.822207 0.776683 0.650945 0.135284
C19   C     C_R   0.880927 0.718255 0.677412 0.087111
C20   C     C_R   0.778103 0.776972 0.594937 -0.154613
C21   C     C_R   0.788586 0.719831 0.564424 -0.161772
C22   C     C_R   0.893964 0.660664 0.644911 -0.214477
H1    H     H_    0.062556 0.620670 0.839725 0.123312
H2    H     H_    0.935285 0.614118 0.661740 0.094229
H3    H     H_    0.749836 0.720943 0.521505 0.114312
H4    H     H_    0.760451 0.879209 0.660255 0.126902
H5    H     H_    0.090514 0.678346 0.925207 0.113001
H6    H     H_    0.073415 0.778944 0.978463 0.106152
H7    H     H_    0.888477 0.885814 0.838198 0.094202
H8    H     H_    0.997258 0.616728 0.744599 0.123695
H9    H     H_    0.825830 0.883156 0.755377 0.124275
H10   H     H_    0.732504 0.821530 0.574771 0.122035
H11   H     H_    0.619150 0.208490 0.794994 0.111508
C23   C     C_R   0.729993 0.270964 0.732313 -0.154764
H12   H     H_    0.588079 0.286743 0.719097 0.111134
C24   C     C_R   0.894260 0.294941 0.706410 0.136679
C25   C     C_R   0.076465 0.273582 0.724377 -0.154884
H13   H     H_    0.205034 0.291417 0.704935 0.111847
C26   C     C_R   0.094191 0.228942 0.767616 -0.154945
H14   H     H_    0.236104 0.213163 0.780832 0.111113
C27   C     C_R   0.929924 0.204966 0.793519 0.136588
C28   C     C_R   0.747718 0.226324 0.775552 -0.155464
C29   C     C_1   0.876296 0.341006 0.661419 -0.059572
C30   C     C_1   0.947892 0.158903 0.838512 -0.060637
C31   C     C_1   0.961106 0.120689 0.876282 -0.191251
C32   C     C_1   0.863098 0.379223 0.623650 -0.191121
H15   H     H_    0.663953 0.740281 0.323084 0.150093
C33   C     C_R   0.579609 0.789368 0.248710 0.286037
C34   C     C_R   0.438776 0.795767 0.207285 0.062430
C35   C     C_R   0.273634 0.756989 0.209995 -0.158133
H16   H     H_    0.163298 0.761059 0.178717 0.148032
C36   C     C_R   0.248737 0.712680 0.253052 -0.121335
H17   H     H_    0.119940 0.683495 0.254152 0.130473
C37   C     C_R   0.388930 0.706102 0.294219 0.078015
C38   C     C_R   0.554249 0.744748 0.291659 -0.180550
C39   C     C_1   0.460676 0.841608 0.162108 0.048838
C40   C     C_1   0.364685 0.659725 0.338823 -0.028881
C41   C     C_1   0.349080 0.621247 0.376360 -0.189929
C42   C     C_1   0.475284 0.879577 0.124184 -0.136363
C43   C     C_R   0.473755 0.161745 0.089118 -0.053597
C44   C     C_R   0.356583 0.338507 0.410747 -0.044026
C45   C     C_R   0.537262 0.277095 0.094461 -0.161036
C46   C     C_R   0.528200 0.219734 0.064209 -0.169045
C47   C     C_R   0.434729 0.161312 0.145438 -0.176505
C48   C     C_R   0.465910 0.217364 0.178390 0.098014
C49   C     C_R   0.504293 0.276567 0.150945 0.141283
C50   C     C_R   0.451946 0.217697 0.236999 0.000197
C51   C     C_R   0.439397 0.279196 0.265306 0.036109
C52   C     C_R   0.468350 0.336827 0.235206 -0.168989
C53   C     C_R   0.506760 0.335113 0.179713 -0.198933
C54   C     C_R   0.460491 0.159919 0.269079 0.140865
C55   C     C_R   0.418817 0.162372 0.324592 -0.190028
C56   C     C_R   0.388350 0.221380 0.351571 0.090347
C57   C     C_R   0.405197 0.281029 0.323096 0.086985
C58   C     C_R   0.352099 0.220875 0.407927 -0.134245
C59   C     C_R   0.335882 0.278883 0.437142 -0.164812
C60   C     C_R   0.388918 0.339791 0.354092 -0.199397
H18   H     H_    0.533571 0.380567 0.158751 0.120435
H19   H     H_    0.400362 0.387254 0.335820 0.088915
H20   H     H_    0.310225 0.277242 0.480705 0.106857
H21   H     H_    0.421845 0.117482 0.347853 0.160524
H22   H     H_    0.571951 0.322004 0.073697 0.113561
H23   H     H_    0.560614 0.220759 0.021006 0.107049
H24   H     H_    0.376117 0.117486 0.162364 0.148549
H25   H     H_    0.468006 0.384460 0.253625 0.120469
H26   H     H_    0.339336 0.175241 0.429730 0.121648
O11   O     O_R   0.323320 0.942780 0.056240 -0.535275
O12   O     O_R   0.647300 0.077050 0.046060 -0.532084
O13   O     O_R   0.813840 0.057330 0.943840 -0.537980
C61   C     C_R   0.478405 0.100920 0.056954 0.711864
O14   O     O_R   0.653250 0.944380 0.062400 -0.527796
O15   O     O_R   0.819830 0.923720 0.960300 -0.539312
C62   C     C_R   0.485157 0.924560 0.078360 0.729584
O16   O     O_R   0.317330 0.076390 0.039790 -0.537427
O17   O     O_3   0.483830 0.993470 0.966560 -0.373430
V3    V     V_3+5 0.760140 0.001210 0.006210 1.465411
O18   O     O_R   0.149290 0.922840 0.953850 -0.540430
C63   C     C_R   0.981241 0.898964 0.943264 0.688412
O19   O     O_R   0.143340 0.055500 0.937510 -0.539569
C64   C     C_R   0.973668 0.075517 0.921789 0.718526
V4    V     V_3+5 0.259690 0.998600 0.993650 1.439852
O20   O     O_3   0.986130 0.006520 0.033440 -0.358089
Br1   Br    Br    0.808265 0.840780 0.248186 -0.525387
I1    I     I_    0.593444 0.069630 0.245787 -0.353594

loop_
_geom_bond_atom_site_label_1
_geom_bond_atom_site_label_2
_ccdc_geom_bond_type
C13   C19   A    
C24   C29   S    
O15   C63   A    
C58   C59   A    
C4    C6    S    
O2    C1    A    
C7    C8    A    
C43   C47   A    
C5    C63   S    
C1    C41   S    
C52   C53   A    
C46   H23   S    
C2    C44   S    
C48   C49   A    
O13   C64   A    
C14   C15   A    
C17   C18   A    
C43   C61   S    
C16   C17   A    
O5    C3    A    
C18   C19   A    
C8    H6    S    
C31   C64   S    
V2    O10   S    
C5    C8    A    
C30   C31   T    
V3    O20   S    
C45   H22   S    
O17   V4    S    
C35   C36   A    
H15   C38   S    
O8    V2    S    
C55   C56   A    
C59   H20   S    
C33   C38   A    
C25   C26   A    
C17   H4    S    
C51   C57   A    
O17   V3    S    
O14   V3    S    
O1    V2    S    
C11   C15   A    
C60   H19   S    
O7    V1    S    
C1    O6    A    
C58   H26   S    
C3    C32   S    
O13   V3    S    
C56   C58   A    
C37   C38   A    
O9    C4    A    
C34   C35   A    
C37   C40   S    
C43   C46   A    
C48   C50   A    
O11   C62   A    
C23   C24   A    
O12   V3    S    
C45   C46   A    
O16   V4    S    
C26   H14   S    
C12   C13   A    
O14   C62   A    
O4    C2    A    
C15   H1    S    
C13   C14   A    
C56   C57   A    
C21   H3    S    
C33   C34   A    
C26   C27   A    
C36   C37   A    
C7    C11   A    
C44   C59   A    
O5    V1    S    
C35   H16   S    
C49   C53   A    
C54   C55   A    
C23   C28   A    
O12   C61   A    
C20   H10   S    
C19   C22   A    
O19   V4    S    
C47   C48   A    
C6    C22   A    
O3    C4    A    
C7    H5    S    
C9    H7    S    
C24   C25   A    
H11   C28   S    
O6    V2    S    
O9    V2    S    
C10   C12   A    
O2    V1    S    
O15   V3    S    
C14   H8    S    
V4    O20   S    
C27   C30   S    
C23   H12   S    
O19   C64   A    
O1    C2    A    
C54   I1    S    
C12   C16   A    
C51   C52   A    
C57   C60   A    
O11   V4    S    
O8    C3    A    
C27   C28   A    
O18   V4    S    
C16   H9    S    
C53   H18   S    
C20   C21   A    
C42   C62   S    
O7    V2    S    
C44   C60   A    
O4    V1    S    
O3    V1    S    
V1    O10   S    
O18   C63   A    
C47   H24   S    
C18   C20   A    
C34   C39   S    
C52   H25   S    
C39   C42   T    
C36   H17   S    
C61   O16   A    
C22   H2    S    
C55   H21   S    
C40   C41   T    
C6    C21   A    
C5    C9    A    
C50   C51   A    
C50   C54   A    
C25   H13   S    
C45   C49   A    
C29   C32   T    
C10   C11   A    
C33   Br1   S    
C9    C10   A    
