data_mof_unit_53413.cif
_audit_creation_date              2012-12-10T16:57:42-0500
_audit_creation_method            fapswitch 2.2
_symmetry_space_group_name_H-M    P1
_symmetry_Int_Tables_number       1
_space_group_crystal_system       triclinic
_cell_length_a                    7.881799
_cell_length_b                    8.55019
_cell_length_c                    19.10262
_cell_angle_alpha                 93.810719
_cell_angle_beta                  82.899257
_cell_angle_gamma                 93.090989
_cell_volume                      1273.28566052

loop_
_atom_site_label
_atom_site_type_symbol
_atom_type_description
_atom_site_fract_x
_atom_site_fract_y
_atom_site_fract_z
_atom_type_partial_charge
C1    C     C_R   0.544381 0.794423 0.500458 0.927346
C2    C     C_R   0.664350 0.555634 0.170959 0.388360
C3    C     C_R   0.476499 0.539419 0.857581 -0.085543
C4    C     C_R   0.507984 0.589970 0.147440 -0.065898
C5    C     C_R   0.580207 0.429804 0.817654 -0.254113
C6    C     C_R   0.359923 0.605242 0.194626 -0.240186
C7    C     C_R   0.589583 0.420403 0.744410 -0.276742
C8    C     C_R   0.361417 0.578145 0.264993 -0.252061
C9    C     C_R   0.495150 0.520287 0.710868 -0.187780
C10   C     C_R   0.510291 0.530747 0.289359 -0.229220
C11   C     C_R   0.487435 0.580561 0.073559 0.268292
C12   C     C_R   0.455052 0.205787 0.502244 0.929092
C13   C     C_R   0.474323 0.553916 0.933573 0.320184
C14   C     C_3   0.440551 0.887547 0.715959 0.106907
C15   C     C_3   0.346535 0.027997 0.751665 -0.793169
C16   C     C_3   0.846922 0.323679 0.241001 0.158752
C17   C     C_3   0.035952 0.296962 0.240824 -0.790867
C18   C     C_3   0.105387 0.684397 0.867903 0.107519
C19   C     C_3   0.990265 0.793867 0.915897 -0.792390
C20   C     C_3   0.843660 0.483140 0.068061 0.081004
C21   C     C_3   0.032580 0.455375 0.046942 -0.792978
C22   C     C_3   0.986227 0.202799 0.452430 0.220972
C23   C     C_2   0.565363 0.958205 0.506723 -0.405673
C24   C     C_3   0.901117 0.107695 0.395158 -0.882450
C25   C     C_3   0.991649 0.785401 0.562125 0.188819
C26   C     C_3   0.087508 0.868378 0.618699 -0.833875
C27   C     C_2   0.431361 0.042306 0.501528 -0.372640
C28   C     C_R   0.498606 0.505077 0.634502 0.891043
C29   C     C_R   0.503240 0.504515 0.365129 0.890543
C30   C     C_R   0.398941 0.636326 0.750765 0.381321
C31   C     C_R   0.663138 0.520186 0.241910 0.402058
C32   C     C_R   0.380676 0.639258 0.824465 0.400085
H1    H     H_    0.689169 0.009432 0.516771 0.153128
H2    H     H_    0.076715 0.331543 0.293344 0.294117
H3    H     H_    0.061177 0.171575 0.226768 0.201057
H4    H     H_    0.112513 0.368416 0.201230 0.252921
H5    H     H_    0.092411 0.566590 0.890274 0.122203
H6    H     H_    0.060343 0.675185 0.814687 0.178261
H7    H     H_    0.998276 0.912091 0.894505 0.254182
H8    H     H_    0.855619 0.746758 0.919081 0.211753
H9    H     H_    0.030267 0.803943 0.969842 0.267404
H10   H     H_    0.801115 0.544290 0.024324 0.172828
H11   H     H_    0.773918 0.366829 0.073244 0.135002
H12   H     H_    0.305772 0.990911 0.493738 0.159802
H13   H     H_    0.107174 0.569185 0.043775 0.269543
H14   H     H_    0.081661 0.384445 0.085769 0.252779
H15   H     H_    0.050444 0.390423 0.994456 0.208525
H16   H     H_    0.655108 0.352856 0.843144 0.176319
H17   H     H_    0.240772 0.633044 0.176356 0.205398
H18   H     H_    0.668550 0.333974 0.713986 0.176242
H19   H     H_    0.243551 0.591756 0.300065 0.223743
H20   H     H_    0.907839 0.196149 0.504862 0.117045
H21   H     H_    0.103524 0.141693 0.456773 0.132745
H22   H     H_    0.991175 0.096906 0.346099 0.246011
H23   H     H_    0.481274 0.911229 0.659797 0.137408
H24   H     H_    0.868529 0.986615 0.411506 0.212674
H25   H     H_    0.783257 0.162434 0.385096 0.279149
H26   H     H_    0.865519 0.838421 0.568555 0.133237
H27   H     H_    0.056165 0.811206 0.508502 0.110573
H28   H     H_    0.218951 0.828183 0.612659 0.314038
H29   H     H_    0.092788 0.997060 0.612991 0.180665
H30   H     H_    0.022375 0.842856 0.671954 0.271099
H31   H     H_    0.560475 0.878099 0.740907 0.121483
H32   H     H_    0.318521 0.015116 0.809373 0.288951
H33   H     H_    0.427615 0.136096 0.742878 0.206377
H34   H     H_    0.224819 0.040205 0.729494 0.251410
H35   H     H_    0.815397 0.292230 0.186483 0.117484
H36   H     H_    0.769490 0.242780 0.276582 0.128439
N1    N     N_R   0.487754 0.697711 0.967648 -0.129602
N2    N     N_R   0.469405 0.437207 0.039913 -0.204644
N3    N     N_R   0.494785 0.711104 0.036895 -0.154001
N4    N     N_R   0.464066 0.423852 0.970697 -0.189189
N5    N     N_2   0.950330 0.457950 0.481240 0.168645
N6    N     N_2   0.049670 0.542050 0.518760 0.165423
O1    O     O_R   0.389250 0.738570 0.504600 -0.630577
O2    O     O_3   0.814166 0.480770 0.264714 -0.564553
O3    O     O_3   0.276153 0.745525 0.864151 -0.595847
O4    O     O_3   0.823224 0.580371 0.131109 -0.591851
O5    O     O_3   0.032406 0.357700 0.432710 -0.527450
O6    O     O_3   0.965786 0.623933 0.573815 -0.515104
O7    O     O_R   0.610750 0.261430 0.495400 -0.632026
O8    O     O_R   0.678400 0.711620 0.492580 -0.638298
O9    O     O_R   0.321600 0.288380 0.507420 -0.632359
O10   O     O_R   0.355380 0.513500 0.607880 -0.579120
O11   O     O_R   0.644620 0.486500 0.392120 -0.562607
O12   O     O_R   0.644530 0.486550 0.595850 -0.593474
O13   O     O_R   0.355470 0.513450 0.404150 -0.596249
O14   O     O_3   0.328461 0.751847 0.718127 -0.619664
Zn1   Zn    Zn3+2 0.306930 0.517990 0.508030 1.025668
Zn2   Zn    Zn3+2 0.693070 0.482010 0.491970 1.026173

loop_
_geom_bond_atom_site_label_1
_geom_bond_atom_site_label_2
_ccdc_geom_bond_type
C28   O10   A    
C25   O6    S    
N5    N6    D    
C11   N2    A    
C25   H26   S    
N6    Zn1   S    
C26   H29   S    
C22   O5    S    
C11   N3    A    
C24   H22   S    
C15   H33   S    
C18   C19   S    
N1    N3    A    
C32   O3    S    
C27   H12   S    
C24   H25   S    
C23   H1    S    
C15   H32   S    
C16   H36   S    
C17   H4    S    
C23   C27   D    
C29   O11   A    
C3    C13   S    
C14   H23   S    
N6    O6    S    
C10   C31   A    
C22   H21   S    
C21   H13   S    
O9    Zn1   S    
C5    H16   S    
C12   C27   S    
C1    O1    A    
C4    C6    A    
O12   Zn2   S    
C5    C7    A    
C16   C17   S    
C6    C8    A    
C25   C26   S    
C15   H34   S    
C12   O9    A    
C2    C31   A    
C2    C4    A    
C2    O4    S    
N5    O5    S    
C16   H35   S    
C4    C11   S    
C8    H19   S    
C19   H7    S    
C9    C30   A    
O7    Zn2   S    
C1    C23   S    
O13   Zn1   S    
C28   O12   A    
C22   C24   S    
C17   H2    S    
C30   O14   S    
C20   H11   S    
C22   H20   S    
C21   H14   S    
C7    C9    A    
C16   O2    S    
C18   H5    S    
C7    H18   S    
C3    C5    A    
N5    Zn2   S    
C20   H10   S    
O11   Zn2   S    
C13   N4    A    
C24   H24   S    
C17   H3    S    
O8    Zn2   S    
C20   O4    S    
C18   H6    S    
C14   O14   S    
C30   C32   A    
C1    O8    A    
C10   C29   S    
C31   O2    S    
C13   N1    A    
C18   O3    S    
C14   H31   S    
C12   O7    A    
C6    H17   S    
C26   H30   S    
C3    C32   A    
C29   O13   A    
C19   H8    S    
O1    Zn1   S    
C20   C21   S    
C8    C10   A    
O10   Zn1   S    
C14   C15   S    
N2    N4    A    
C25   H27   S    
C26   H28   S    
C19   H9    S    
C9    C28   S    
C21   H15   S    
