data_mof_unit_7900.cif
_audit_creation_date              2012-12-10T20:41:48-0500
_audit_creation_method            fapswitch 2.2
_symmetry_space_group_name_H-M    P1
_symmetry_Int_Tables_number       1
_space_group_crystal_system       triclinic
_cell_length_a                    15.069173
_cell_length_b                    15.208336
_cell_length_c                    9.862744
_cell_angle_alpha                 88.960085
_cell_angle_beta                  89.643894
_cell_angle_gamma                 89.89715
_cell_volume                      2259.89540255

loop_
_atom_site_label
_atom_site_type_symbol
_atom_type_description
_atom_site_fract_x
_atom_site_fract_y
_atom_site_fract_z
_atom_type_partial_charge
C1    C     C_R   0.381870 0.877968 0.500769 0.873964
C2    C     C_R   0.378605 0.118685 0.499611 0.885275
C3    C     C_R   0.881868 0.377971 0.500767 0.873966
C4    C     C_R   0.878606 0.618687 0.499611 0.885288
C5    C     C_3   0.321459 0.246257 0.737497 -0.488008
C6    C     C_3   0.260690 0.805260 0.749936 -0.567850
C7    C     C_3   0.821451 0.746249 0.737505 -0.488009
C8    C     C_3   0.760746 0.305211 0.749967 -0.567815
C9    C     C_R   0.429563 0.033706 0.071226 0.228407
C10   C     C_R   0.929562 0.533704 0.071227 0.228399
C11   C     C_R   0.573894 0.977439 0.071812 -0.132270
C12   C     C_R   0.073896 0.477443 0.071812 -0.132276
C13   C     C_R   0.574105 0.978457 0.927747 -0.109565
C14   C     C_R   0.074107 0.478462 0.927747 -0.109576
C15   C     C_R   0.429608 0.033836 0.928682 0.236492
C16   C     C_R   0.929606 0.533831 0.928682 0.236473
C17   C     C_3   0.336244 0.002491 0.925810 -0.532690
C18   C     C_3   0.836246 0.502475 0.925817 -0.532691
C19   C     C_3   0.336039 0.002790 0.079543 -0.509511
C20   C     C_3   0.836040 0.502785 0.079549 -0.509496
C21   C     C_R   0.622071 0.117669 0.498954 0.884206
C22   C     C_R   0.617959 0.877935 0.500576 0.864427
C23   C     C_R   0.122071 0.617671 0.498954 0.884296
C24   C     C_R   0.117958 0.377934 0.500576 0.864426
C25   C     C_R   0.272043 0.206851 0.622551 0.015924
C26   C     C_R   0.295289 0.765384 0.622216 0.031634
C27   C     C_R   0.772042 0.706850 0.622547 0.015921
C28   C     C_R   0.795307 0.265367 0.622204 0.031632
C29   C     C_R   0.303865 0.175547 0.499906 -0.083778
C30   C     C_R   0.326078 0.802412 0.500868 -0.072449
C31   C     C_R   0.803869 0.675551 0.499904 -0.083779
C32   C     C_R   0.826069 0.302422 0.500858 -0.072434
C33   C     C_R   0.259787 0.196758 0.379007 -0.220793
C34   C     C_R   0.303964 0.763010 0.377472 -0.222448
C35   C     C_R   0.759796 0.696767 0.379003 -0.220797
C36   C     C_R   0.803922 0.263051 0.377452 -0.222439
C37   C     C_R   0.694361 0.760576 0.379908 -0.195409
C38   C     C_R   0.739183 0.198442 0.376022 -0.223829
C39   C     C_R   0.194352 0.260568 0.379912 -0.195409
C40   C     C_R   0.239221 0.698403 0.376040 -0.223855
C41   C     C_R   0.673619 0.802371 0.501897 -0.139121
C42   C     C_R   0.696693 0.174265 0.497792 -0.102125
C43   C     C_R   0.173616 0.302368 0.501899 -0.139122
C44   C     C_R   0.196700 0.674258 0.497798 -0.102086
C45   C     C_R   0.705938 0.768516 0.624278 0.013994
C46   C     C_R   0.729778 0.203746 0.619791 -0.007222
C47   C     C_R   0.205939 0.268518 0.624281 0.014001
C48   C     C_R   0.229761 0.703760 0.619799 -0.007221
C49   C     C_3   0.747885 0.814389 0.742535 0.380624
C50   C     C_3   0.687156 0.236832 0.747325 0.430476
C51   C     C_3   0.247894 0.314398 0.742526 0.380636
C52   C     C_3   0.187104 0.736877 0.747290 0.430501
H1    H     H_    0.279641 0.169059 0.283198 0.165017
H2    H     H_    0.332003 0.785594 0.281654 0.164832
H3    H     H_    0.779653 0.669072 0.283193 0.165024
H4    H     H_    0.831935 0.285659 0.281629 0.164830
H5    H     H_    0.290827 0.053134 0.122019 0.196335
H6    H     H_    0.329816 0.936053 0.126529 0.215113
H7    H     H_    0.790826 0.553130 0.122017 0.196338
H8    H     H_    0.829819 0.436051 0.126544 0.215109
H9    H     H_    0.665020 0.781075 0.284394 0.173814
H10   H     H_    0.718726 0.172257 0.279717 0.170694
H11   H     H_    0.165007 0.281063 0.284399 0.173805
H12   H     H_    0.218788 0.672194 0.279740 0.170678
H13   H     H_    0.771414 0.881709 0.715053 0.078377
H14   H     H_    0.692960 0.187714 0.831718 0.085082
H15   H     H_    0.271422 0.381716 0.715030 0.078365
H16   H     H_    0.192888 0.687779 0.831717 0.085083
H17   H     H_    0.386575 0.274192 0.705438 0.183272
H18   H     H_    0.307017 0.793584 0.835651 0.164891
H19   H     H_    0.886568 0.774186 0.705461 0.183345
H20   H     H_    0.807097 0.293518 0.835647 0.164892
H21   H     H_    0.324076 0.201951 0.828084 0.217949
H22   H     H_    0.238010 0.874298 0.735493 0.211425
H23   H     H_    0.824061 0.701936 0.828083 0.217949
H24   H     H_    0.738065 0.374252 0.735576 0.211420
H25   H     H_    0.633105 0.957691 0.125851 0.163175
H26   H     H_    0.133107 0.457698 0.125851 0.163176
H27   H     H_    0.633759 0.961576 0.873081 0.191985
H28   H     H_    0.133761 0.461587 0.873081 0.191993
H29   H     H_    0.290153 0.051326 0.879433 0.199062
H30   H     H_    0.332424 0.935803 0.885057 0.218673
H31   H     H_    0.790150 0.551301 0.879430 0.199070
H32   H     H_    0.832437 0.435782 0.885081 0.218667
N1    N     N_R   0.499140 0.000000 0.142800 -0.115828
N2    N     N_R   0.999140 0.500000 0.142800 -0.115826
N3    N     N_R   0.499160 0.000000 0.857150 -0.116579
N4    N     N_R   0.999160 0.500000 0.857150 -0.116581
O1    O     O_R   0.408400 0.908380 0.614690 -0.616159
O2    O     O_R   0.408400 0.091620 0.614690 -0.604330
O3    O     O_R   0.908400 0.408380 0.614690 -0.616163
O4    O     O_R   0.908400 0.591620 0.614690 -0.604325
O5    O     O_R   0.408370 0.908370 0.385350 -0.629530
O6    O     O_R   0.408370 0.091630 0.385350 -0.624280
O7    O     O_R   0.908370 0.408370 0.385350 -0.629536
O8    O     O_R   0.908370 0.591630 0.385350 -0.624286
O9    O     O_R   0.591610 0.091610 0.614650 -0.602809
O10   O     O_R   0.591610 0.908390 0.614650 -0.625780
O11   O     O_R   0.091610 0.591610 0.614650 -0.602814
O12   O     O_R   0.091610 0.408390 0.614650 -0.625771
O13   O     O_R   0.591590 0.091600 0.385310 -0.625757
O14   O     O_R   0.591590 0.908400 0.385310 -0.627134
O15   O     O_R   0.091590 0.591600 0.385310 -0.625770
O16   O     O_R   0.091590 0.408400 0.385310 -0.627133
Zn1   Zn    Zn3+2 0.500010 0.000000 0.653130 0.958064
Zn2   Zn    Zn3+2 0.000010 0.500000 0.653130 0.958067
Zn3   Zn    Zn3+2 0.499980 0.000000 0.346870 0.938698
Zn4   Zn    Zn3+2 0.999980 0.500000 0.346870 0.938693
O17   O     O_3   0.702485 0.812938 0.870074 -0.609196
C53   C     C_3   0.634563 0.749218 0.881494 -0.283390
H33   H     H_    0.660248 0.681942 0.862681 0.157400
H34   H     H_    0.578734 0.765755 0.812394 0.182143
H35   H     H_    0.608018 0.749650 0.986641 0.174354
O18   O     O_3   0.599204 0.271941 0.740428 -0.580776
C54   C     C_3   0.579103 0.321657 0.621566 -0.268211
H36   H     H_    0.544657 0.279442 0.548089 0.158772
H37   H     H_    0.637003 0.353654 0.571418 0.154929
H38   H     H_    0.532201 0.374753 0.649315 0.167299
O19   O     O_3   0.202500 0.312956 0.870071 -0.609190
C55   C     C_3   0.134588 0.249224 0.881521 -0.283376
H39   H     H_    0.160283 0.181948 0.862725 0.157387
H40   H     H_    0.078751 0.265744 0.812423 0.182132
H41   H     H_    0.108050 0.249664 0.986671 0.174348
O20   O     O_3   0.099147 0.771972 0.740311 -0.580764
C56   C     C_3   0.079087 0.821703 0.621441 -0.268469
H42   H     H_    0.044542 0.779533 0.548026 0.158831
H43   H     H_    0.137011 0.853584 0.571210 0.154971
H44   H     H_    0.032298 0.874885 0.649195 0.167348

loop_
_geom_bond_atom_site_label_1
_geom_bond_atom_site_label_2
_ccdc_geom_bond_type
O13   Zn3   S    
C23   O11   A    
C13   H27   S    
C6    H18   S    
C22   O10   A    
C52   O20   S    
O18   C54   S    
C7    C27   S    
C19   H5    S    
C28   C46   A    
C33   C39   A    
O10   Zn1   S    
C49   H13   S    
C2    C29   S    
C34   C40   A    
C32   C36   A    
C15   N3    A    
C35   C37   A    
C38   C42   A    
C7    H19   S    
C22   C41   S    
C54   H36   S    
C29   C33   A    
C8    H24   S    
N4    Zn2   S    
C3    O3    A    
C17   H30   S    
C42   C46   A    
C2    O2    A    
C53   H33   S    
C5    H17   S    
C11   H25   S    
C9    N1    A    
C4    O8    A    
C9    C19   S    
C23   O15   A    
C10   C20   S    
C54   H37   S    
C12   H26   S    
C56   H44   S    
C18   H32   S    
O15   Zn4   S    
C14   H28   S    
C20   H8    S    
C25   C47   A    
C40   C44   A    
C17   H29   S    
C52   H16   S    
C55   H41   S    
C26   C48   A    
O9    Zn1   S    
C27   C45   A    
O8    Zn4   S    
C25   C29   A    
O3    Zn2   S    
C55   H40   S    
C6    H22   S    
C19   H6    S    
C33   H1    S    
O6    Zn3   S    
C8    H20   S    
C30   C34   A    
C27   C31   A    
C28   C32   A    
C7    C49   S    
C7    H23   S    
C35   H3    S    
C23   C44   S    
C50   O18   S    
C36   H4    S    
C21   O9    A    
C51   O19   S    
C45   C49   S    
N3    Zn1   S    
C2    O6    A    
C54   H38   S    
C13   N3    A    
C18   H31   S    
O14   Zn3   S    
C16   C18   S    
C51   H15   S    
C20   H7    S    
C56   H43   S    
C50   H14   S    
C53   H35   S    
C5    C25   S    
O4    Zn2   S    
C12   C14   A    
C34   H2    S    
C4    O4    A    
C56   H42   S    
C8    C28   S    
C31   C35   A    
C8    C50   S    
O16   Zn4   S    
C55   H39   S    
C49   O17   S    
C15   C17   S    
O11   Zn2   S    
C10   N2    A    
C1    O1    A    
C37   H9    S    
C24   O12   A    
C5    H21   S    
N2    Zn4   S    
O2    Zn1   S    
C22   O14   A    
C47   C51   S    
O19   C55   S    
C26   C30   A    
C39   H11   S    
C46   C50   S    
O12   Zn2   S    
C40   H12   S    
C12   N2    A    
C6    C52   S    
C36   C38   A    
C9    C15   A    
C14   N4    A    
C21   O13   A    
C10   C16   A    
O17   C53   S    
O5    Zn3   S    
C11   C13   A    
C6    C26   S    
C11   N1    A    
C1    C30   S    
C17   C19   S    
C18   C20   S    
C37   C41   A    
C3    C32   S    
C53   H34   S    
C4    C31   S    
O7    Zn4   S    
C21   C42   S    
C48   C52   S    
C39   C43   A    
C1    O5    A    
O1    Zn1   S    
C16   N4    A    
C24   C43   S    
C41   C45   A    
C5    C51   S    
C3    O7    A    
C24   O16   A    
N1    Zn3   S    
C43   C47   A    
C44   C48   A    
O20   C56   S    
C38   H10   S    
