data_mof_unit_28638.cif
_audit_creation_date              2012-12-11T15:59:27-0500
_audit_creation_method            fapswitch 2.2
_symmetry_space_group_name_H-M    P1
_symmetry_Int_Tables_number       1
_space_group_crystal_system       triclinic
_cell_length_a                    10.732934
_cell_length_b                    10.716102
_cell_length_c                    17.10402
_cell_angle_alpha                 99.63146
_cell_angle_beta                  100.127739
_cell_angle_gamma                 60.401694
_cell_volume                      1676.41029531

loop_
_atom_site_label
_atom_site_type_symbol
_atom_type_description
_atom_site_fract_x
_atom_site_fract_y
_atom_site_fract_z
_atom_type_partial_charge
C1    C     C_R   0.356047 0.769248 0.397842 0.529579
C2    C     C_R   0.856179 0.203629 0.197304 0.030939
C3    C     C_R   0.866064 0.213161 0.281213 0.019407
C4    C     C_R   0.780396 0.471314 0.284809 -0.143163
C5    C     C_R   0.786407 0.459486 0.204502 -0.155877
C6    C     C_R   0.874894 0.071503 0.154155 -0.060137
C7    C     C_R   0.925419 0.948384 0.193170 -0.136788
C8    C     C_R   0.951389 0.955453 0.275916 -0.136903
C9    C     C_R   0.920453 0.086823 0.319907 -0.091603
C10   C     C_R   0.820008 0.349510 0.324035 0.004835
C11   C     C_R   0.356350 0.815404 0.157628 -0.000150
C12   C     C_R   0.398014 0.368274 0.353962 0.564861
C13   C     C_R   0.448852 0.849204 0.216744 0.016526
C14   C     C_R   0.433742 0.855677 0.297954 0.012570
C15   C     C_R   0.282603 0.740316 0.256854 -0.143329
C16   C     C_R   0.284295 0.749598 0.178011 -0.141670
C17   C     C_R   0.554340 0.878117 0.197772 -0.103960
C18   C     C_R   0.630910 0.926717 0.257022 -0.133158
C19   C     C_R   0.607888 0.944130 0.336279 -0.093760
C20   C     C_R   0.507808 0.912138 0.356821 -0.085265
C21   C     C_R   0.347892 0.801740 0.317516 0.010537
C22   C     C_R   0.300463 0.278381 0.799843 -0.007176
C23   C     C_R   0.774660 0.378091 0.402978 0.543868
C24   C     C_R   0.426624 0.175838 0.763256 0.004264
C25   C     C_R   0.479375 0.222832 0.712003 0.024375
C26   C     C_R   0.251591 0.448274 0.707421 -0.137140
C27   C     C_R   0.213152 0.413400 0.770595 -0.129888
C28   C     C_R   0.505732 0.029290 0.779239 -0.065071
C29   C     C_R   0.643983 0.939888 0.756952 0.168058
C30   C     C_R   0.705994 0.995039 0.717835 -0.088305
C31   C     C_R   0.624801 0.134828 0.695463 -0.126405
C32   C     C_R   0.383026 0.352988 0.676627 -0.004571
C33   C     C_1   0.770131 0.368509 0.714680 -0.028119
C34   C     C_R   0.358439 0.768589 0.627670 0.545387
C35   C     C_1   0.814693 0.329846 0.780719 -0.025781
C36   C     C_1   0.339726 0.808499 0.709738 -0.034799
C37   C     C_1   0.313304 0.836377 0.777610 -0.044994
C38   C     C_R   0.891173 0.308758 0.087082 0.538819
C39   C     C_R   0.297326 0.268115 0.124458 0.568758
C40   C     C_R   0.298871 0.886707 0.084053 0.544744
C41   C     C_R   0.879804 0.300808 0.860308 0.549736
C42   C     C_R   0.279030 0.253611 0.876919 0.541051
C43   C     C_R   0.279116 0.884293 0.857288 0.544871
C44   C     C_R   0.408421 0.375275 0.600150 0.533752
C45   C     C_R   0.719058 0.411535 0.635528 0.546078
C46   C     C_1   0.354288 0.342038 0.273234 -0.036827
C47   C     C_1   0.324512 0.311651 0.205012 -0.032796
C48   C     C_R   0.830512 0.326083 0.160492 0.000829
Cr1   Cr    Cr6+3 0.608100 0.610860 0.522250 1.037481
Cr2   Cr    Cr6+3 0.288890 0.599990 0.488420 1.012982
Cr3   Cr    Cr6+3 0.603040 0.289190 0.489390 0.987174
Cr4   Cr    Cr6+3 0.053960 0.052250 0.967380 1.028155
Cr5   Cr    Cr6+3 0.059890 0.373160 0.992710 1.043673
Cr6   Cr    Cr6+3 0.373370 0.061690 0.991710 1.017568
H1    H     H_    0.741295 0.578465 0.315814 0.158729
H2    H     H_    0.706858 0.952605 0.240913 0.135718
H3    H     H_    0.668310 0.981927 0.382010 0.137779
H4    H     H_    0.489631 0.932215 0.418935 0.141427
H5    H     H_    0.178412 0.549829 0.682649 0.156457
H6    H     H_    0.462245 0.983501 0.809981 0.169573
H7    H     H_    0.115607 0.492190 0.796700 0.181237
H8    H     H_    0.815563 0.928869 0.702892 0.142655
H9    H     H_    0.677235 0.171786 0.664571 0.152287
H10   H     H_    0.846502 0.061832 0.090514 0.148216
H11   H     H_    0.762701 0.554443 0.177419 0.139819
H12   H     H_    0.941852 0.847644 0.159210 0.109352
H13   H     H_    0.989520 0.860114 0.306272 0.126477
H14   H     H_    0.940843 0.088290 0.384205 0.133365
H15   H     H_    0.227831 0.685560 0.270099 0.135942
H16   H     H_    0.583938 0.857955 0.137996 0.143793
H17   H     H_    0.220673 0.714092 0.133117 0.142680
O1    O     O_R   0.749810 0.499790 0.438040 -0.512550
O2    O     O_R   0.298970 0.468800 0.557390 -0.482991
O3    O     O_R   0.489400 0.255930 0.561910 -0.516280
O4    O     O_R   0.723890 0.306050 0.584610 -0.536992
O5    O     O_3   0.500010 0.500010 0.500020 -0.298702
O6    O     O_R   0.171100 0.914680 0.053100 -0.509414
O7    O     O_R   0.941680 0.184840 0.050710 -0.511914
O8    O     O_R   0.922080 0.403420 0.072610 -0.522953
O9    O     O_R   0.196880 0.369150 0.083850 -0.493078
O10   O     O_R   0.411730 0.181020 0.091530 -0.504821
O11   O     O_R   0.365010 0.944360 0.063320 -0.524909
O12   O     O_R   0.477660 0.726260 0.439290 -0.509001
O13   O     O_R   0.159380 0.906670 0.876210 -0.494165
O14   O     O_R   0.930820 0.177420 0.886730 -0.496308
O15   O     O_R   0.910360 0.395420 0.895720 -0.487318
O16   O     O_R   0.186010 0.361730 0.919870 -0.481859
O17   O     O_R   0.400000 0.173010 0.914630 -0.507588
O18   O     O_R   0.354140 0.936940 0.899340 -0.525211
O19   O     O_3   0.162410 0.162370 0.983930 -0.285331
O20   O     O_R   0.260150 0.743000 0.412270 -0.532717
O21   O     O_R   0.297740 0.466550 0.394720 -0.488424
O22   O     O_R   0.488080 0.253500 0.386430 -0.507777
O23   O     O_R   0.722670 0.303800 0.421940 -0.516447
O24   O     O_R   0.751130 0.502220 0.613520 -0.449715
O25   O     O_R   0.478890 0.728510 0.601960 -0.484898
O26   O     O_R   0.261470 0.745430 0.587750 -0.524682
Br1   Br    Br    0.750119 0.745102 0.783732 -0.532705

loop_
_geom_bond_atom_site_label_1
_geom_bond_atom_site_label_2
_ccdc_geom_bond_type
C25   C31   A    
C1    C21   S    
C33   C45   S    
Cr4   O19   S    
C19   C20   A    
Cr3   O3    S    
C7    C8    A    
C19   H3    S    
C26   C32   A    
C41   O15   A    
C26   C27   A    
C43   O18   A    
C29   Br1   S    
C14   C21   A    
C28   C29   A    
Cr5   O8    S    
C34   O25   A    
Cr6   O19   S    
C30   C31   A    
C38   O8    A    
C15   C16   A    
C34   O26   A    
C14   C20   A    
C18   C19   A    
C6    H10   S    
Cr4   O13   S    
C27   H7    S    
C8    C9    A    
Cr1   O1    S    
Cr5   O15   S    
C26   H5    S    
C38   C48   S    
C18   H2    S    
C25   C32   A    
C17   H16   S    
C1    O20   A    
C13   C14   A    
C43   O13   A    
C2    C6    A    
C16   H17   S    
Cr4   O7    S    
C28   H6    S    
C15   H15   S    
C5    C48   A    
C40   O11   A    
Cr5   O9    S    
C24   C25   A    
C39   O10   A    
Cr6   O18   S    
C12   C46   S    
Cr2   O2    S    
C38   O7    A    
C2    C48   A    
Cr1   O24   S    
C37   C43   S    
C29   C30   A    
C3    C9    A    
Cr2   O5    S    
C11   C16   A    
C17   C18   A    
C32   C44   S    
Cr1   O5    S    
Cr5   O16   S    
Cr3   O5    S    
C44   O3    A    
Cr3   O22   S    
C5    H11   S    
C22   C27   A    
C30   H8    S    
C4    H1    S    
C22   C24   A    
C12   O22   A    
C42   O17   A    
C4    C10   A    
Cr4   O6    S    
C45   O24   A    
Cr6   O11   S    
C39   C47   S    
Cr2   O21   S    
C44   O2    A    
C46   C47   T    
Cr4   O14   S    
Cr2   O26   S    
C23   O1    A    
C12   O21   A    
C24   C28   A    
Cr3   O4    S    
C4    C5    A    
C6    C7    A    
C10   C23   S    
C1    O12   A    
C31   H9    S    
C41   O14   A    
C23   O23   A    
C13   C17   A    
C45   O4    A    
C39   O9    A    
Cr1   O12   S    
C2    C3    A    
C9    H14   S    
C3    C10   A    
C7    H12   S    
Cr6   O17   S    
C11   C13   A    
C22   C42   S    
C33   C35   T    
C34   C36   S    
Cr1   O25   S    
C11   C40   S    
C35   C41   S    
Cr3   O23   S    
Cr2   O20   S    
C15   C21   A    
C8    H13   S    
C36   C37   T    
Cr5   O19   S    
C40   O6    A    
C42   O16   A    
C20   H4    S    
Cr6   O10   S    
