data_mof_unit_60723.cif
_audit_creation_date              2012-12-10T16:43:15-0500
_audit_creation_method            fapswitch 2.2
_symmetry_space_group_name_H-M    P1
_symmetry_Int_Tables_number       1
_space_group_crystal_system       triclinic
_cell_length_a                    30.166154
_cell_length_b                    30.849307
_cell_length_c                    21.76783
_cell_angle_alpha                 89.953571
_cell_angle_beta                  134.241965
_cell_angle_gamma                 90.064066
_cell_volume                      14512.2807964

loop_
_atom_site_label
_atom_site_type_symbol
_atom_type_description
_atom_site_fract_x
_atom_site_fract_y
_atom_site_fract_z
_atom_type_partial_charge
C1    C     C_R   0.689877 0.808971 0.882910 0.926659
C2    C     C_R   0.310113 0.808974 0.117092 0.926473
C3    C     C_R   0.189877 0.308971 0.882910 0.925902
C4    C     C_R   0.810114 0.308974 0.117093 0.926870
C5    C     C_R   0.452824 0.789556 0.998709 0.104422
C6    C     C_R   0.547076 0.789550 0.000903 0.104859
C7    C     C_R   0.952818 0.289555 0.998697 0.105706
C8    C     C_R   0.047070 0.289549 0.000890 0.105688
C9    C     C_R   0.477286 0.670887 0.001035 -0.196532
C10   C     C_R   0.522398 0.670884 0.998710 -0.196461
C11   C     C_R   0.977296 0.170887 0.001053 -0.196395
C12   C     C_R   0.022407 0.170883 0.998729 -0.195067
C13   C     C_R   0.523564 0.828808 0.000651 -0.187555
C14   C     C_R   0.476401 0.828811 0.998898 -0.186476
C15   C     C_R   0.023552 0.328808 0.000629 -0.189835
C16   C     C_R   0.976390 0.328810 0.998875 -0.189782
C17   C     C_2   0.561356 0.874403 0.682550 0.578647
C18   C     C_2   0.438568 0.874421 0.317545 0.578800
C19   C     C_2   0.061356 0.374404 0.682550 0.578277
C20   C     C_2   0.938573 0.374412 0.317562 0.578369
C21   C     C_2   0.590398 0.904747 0.677036 -0.508641
C22   C     C_2   0.409529 0.904740 0.322983 -0.503942
C23   C     C_2   0.090398 0.404747 0.677037 -0.508964
C24   C     C_2   0.909534 0.404732 0.322999 -0.509282
C25   C     C_2   0.596090 0.838001 0.743291 0.580267
C26   C     C_2   0.403832 0.838020 0.256796 0.579418
C27   C     C_2   0.096090 0.338001 0.743290 0.580187
C28   C     C_2   0.903834 0.338013 0.256807 0.580584
C29   C     C_2   0.654541 0.843397 0.819307 -0.531592
C30   C     C_2   0.345429 0.843403 0.180705 -0.529838
C31   C     C_2   0.154541 0.343397 0.819307 -0.532097
C32   C     C_2   0.845433 0.343401 0.180710 -0.532623
C33   C     C_R   0.132114 0.748900 0.077894 -0.232516
C34   C     C_R   0.867927 0.749002 0.922188 -0.232822
C35   C     C_R   0.632117 0.249088 0.077883 -0.232961
C36   C     C_R   0.367928 0.248805 0.922173 -0.227206
C37   C     C_R   0.115948 0.750285 0.999953 -0.059001
C38   C     C_R   0.884090 0.750360 0.000124 -0.059219
C39   C     C_R   0.615945 0.250278 0.999933 -0.058922
C40   C     C_R   0.384083 0.250366 0.000097 -0.049546
C41   C     C_R   0.053646 0.751794 0.922042 -0.219884
C42   C     C_R   0.946395 0.751833 0.078043 -0.220281
C43   C     C_R   0.553638 0.251594 0.922005 -0.220618
C44   C     C_R   0.446384 0.252043 0.077994 -0.222430
C45   C     C_R   0.664218 0.749912 0.999811 0.801412
C46   C     C_R   0.335754 0.749924 0.000131 0.801214
C47   C     C_R   0.164218 0.249912 0.999811 0.801200
C48   C     C_R   0.835754 0.249924 0.000131 0.801414
C49   C     C_R   0.007027 0.751141 0.921459 0.098433
C50   C     C_R   0.993017 0.751151 0.078631 0.098388
C51   C     C_R   0.507020 0.250938 0.921424 0.098855
C52   C     C_R   0.493007 0.251357 0.078588 0.104834
C53   C     C_R   0.023311 0.750469 0.000026 0.062957
C54   C     C_R   0.976734 0.750491 0.000065 0.063002
C55   C     C_R   0.523305 0.250466 0.999995 0.063195
C56   C     C_R   0.476728 0.250491 0.000031 0.062577
C57   C     C_R   0.086131 0.749731 0.078553 0.105368
C58   C     C_R   0.913912 0.749805 0.921535 0.105395
C59   C     C_R   0.586130 0.249926 0.078531 0.106022
C60   C     C_R   0.413909 0.249604 0.921511 0.104799
C61   C     C_R   0.944489 0.750994 0.843819 -0.190558
C62   C     C_R   0.055555 0.750950 0.156270 -0.190622
C63   C     C_R   0.444483 0.250592 0.843786 -0.190954
C64   C     C_R   0.555546 0.251355 0.156230 -0.195543
C65   C     C_R   0.898226 0.750001 0.843857 -0.195699
C66   C     C_R   0.101816 0.749917 0.156231 -0.195462
C67   C     C_R   0.398224 0.249600 0.843832 -0.193311
C68   C     C_R   0.601813 0.250314 0.156205 -0.194385
C69   C     C_2   0.938250 0.624227 0.315193 -0.218507
C70   C     C_2   0.061817 0.624211 0.684706 -0.218511
C71   C     C_2   0.405233 0.091196 0.250690 -0.225727
C72   C     C_2   0.561824 0.124180 0.684777 -0.222465
C73   C     C_2   0.909307 0.594978 0.322562 -0.390905
C74   C     C_2   0.090760 0.594992 0.677403 -0.390931
C75   C     C_2   0.402690 0.088331 0.309634 -0.390670
C76   C     C_2   0.590759 0.094990 0.677412 -0.392903
C77   C     C_2   0.904275 0.660922 0.254987 0.648799
C78   C     C_2   0.095794 0.660904 0.744920 0.648835
C79   C     C_2   0.364479 0.121184 0.177282 0.646179
C80   C     C_2   0.595790 0.160879 0.744977 0.645027
C81   C     C_2   0.844939 0.656475 0.180440 -0.431279
C82   C     C_2   0.155089 0.656470 0.819546 -0.431281
C83   C     C_2   0.347125 0.159014 0.185570 -0.433838
C84   C     C_2   0.655106 0.156468 0.819557 -0.429317
C85   C     C_R   0.058044 0.559654 0.615614 0.867340
C86   C     C_R   0.941983 0.559652 0.384381 0.867374
C87   C     C_R   0.558043 0.059654 0.615612 0.868744
C88   C     C_R   0.440063 0.057704 0.380587 0.867853
C89   C     C_R   0.810074 0.690999 0.117010 0.887019
C90   C     C_R   0.189936 0.690996 0.882988 0.886450
C91   C     C_R   0.310218 0.191206 0.117448 0.887150
C92   C     C_R   0.689940 0.190996 0.882990 0.886916
C93   C     C_R   0.557910 0.940200 0.615396 0.932958
C94   C     C_R   0.442061 0.940199 0.384606 0.931828
C95   C     C_R   0.057910 0.440200 0.615397 0.933380
C96   C     C_R   0.942062 0.440198 0.384609 0.933420
C97   C     C_R   0.835716 0.750102 0.000057 0.801384
C98   C     C_R   0.164299 0.750078 0.999976 0.801010
C99   C     C_R   0.335713 0.250106 0.000045 0.801935
C100  C     C_R   0.664297 0.250074 0.999968 0.801997
C101  C     C_R   0.405869 0.789250 0.997442 -0.213656
C102  C     C_R   0.594061 0.789238 0.002232 -0.214410
C103  C     C_R   0.905864 0.289249 0.997430 -0.216487
C104  C     C_R   0.094055 0.289238 0.002220 -0.216392
C105  C     C_R   0.384223 0.749868 0.000390 -0.046233
C106  C     C_R   0.615666 0.749853 0.999387 -0.045871
C107  C     C_R   0.884223 0.249868 0.000389 -0.046181
C108  C     C_R   0.115666 0.249852 0.999386 -0.046978
C109  C     C_R   0.408679 0.710469 0.003245 -0.229181
C110  C     C_R   0.591115 0.710456 0.996526 -0.229198
C111  C     C_R   0.908684 0.210469 0.003253 -0.229374
C112  C     C_R   0.091120 0.210455 0.996535 -0.228774
C113  C     C_R   0.454141 0.710145 0.001527 0.109956
C114  C     C_R   0.545620 0.710138 0.998182 0.109921
C115  C     C_R   0.954145 0.210144 0.001536 0.109135
C116  C     C_R   0.045625 0.210137 0.998190 0.108507
C117  C     C_R   0.476688 0.749847 0.999973 0.063421
C118  C     C_R   0.523134 0.749843 0.999672 0.063487
C119  C     C_R   0.976688 0.249846 0.999971 0.063260
C120  C     C_R   0.023133 0.249843 0.999669 0.063227
Cu1   Cu    Cu3+1 0.719490 0.719480 0.938970 1.021261
Cu2   Cu    Cu3+1 0.280510 0.719480 0.061030 1.021095
Cu3   Cu    Cu3+1 0.219490 0.219480 0.938970 1.067249
Cu4   Cu    Cu3+1 0.780510 0.219480 0.061030 1.023758
Cu5   Cu    Cu3+1 0.780480 0.780500 0.060980 1.015820
Cu6   Cu    Cu3+1 0.219520 0.780500 0.939020 1.020433
Cu7   Cu    Cu3+1 0.280480 0.280500 0.060980 0.970380
Cu8   Cu    Cu3+1 0.719520 0.280500 0.939020 1.009327
Cu9   Cu    Cu3+1 0.455530 0.999980 0.499990 1.022698
Cu10  Cu    Cu3+1 0.544470 0.999980 0.500010 1.022148
Cu11  Cu    Cu3+1 0.955530 0.499980 0.499990 1.019454
Cu12  Cu    Cu3+1 0.044470 0.499980 0.500010 1.020068
H1    H     H_    0.386950 0.819580 0.995894 0.150701
H2    H     H_    0.613051 0.819566 0.003779 0.149304
H3    H     H_    0.886941 0.319579 0.995875 0.148730
H4    H     H_    0.113041 0.319566 0.003759 0.149005
H5    H     H_    0.988080 0.622721 0.357170 0.192325
H6    H     H_    0.011979 0.622675 0.642680 0.192328
H7    H     H_    0.435230 0.069737 0.253692 0.193905
H8    H     H_    0.511993 0.122621 0.642804 0.191365
H9    H     H_    0.860771 0.599037 0.287245 0.156429
H10   H     H_    0.139312 0.599076 0.712775 0.156436
H11   H     H_    0.368048 0.106324 0.301719 0.157897
H12   H     H_    0.639299 0.099095 0.712738 0.156241
H13   H     H_    0.822424 0.625037 0.161354 0.113414
H14   H     H_    0.177572 0.625046 0.838658 0.113402
H15   H     H_    0.365699 0.168930 0.247707 0.120448
H16   H     H_    0.677619 0.125056 0.838651 0.114215
H17   H     H_    0.391262 0.680152 0.004854 0.144901
H18   H     H_    0.608498 0.680137 0.994990 0.144904
H19   H     H_    0.891271 0.180152 0.004871 0.145282
H20   H     H_    0.108507 0.180136 0.995007 0.148021
H21   H     H_    0.460234 0.640201 0.001941 0.149152
H22   H     H_    0.539399 0.640195 0.997851 0.149225
H23   H     H_    0.960248 0.140200 0.001968 0.150185
H24   H     H_    0.039412 0.140194 0.997877 0.151654
H25   H     H_    0.541415 0.859495 0.001328 0.153956
H26   H     H_    0.458609 0.859500 0.998192 0.155300
H27   H     H_    0.041399 0.359494 0.001297 0.152341
H28   H     H_    0.958594 0.359499 0.998161 0.152360
H29   H     H_    0.675781 0.875318 0.838999 0.116020
H30   H     H_    0.324225 0.875314 0.160985 0.119589
H31   H     H_    0.175780 0.375318 0.839000 0.115574
H32   H     H_    0.824234 0.375313 0.160993 0.115517
H33   H     H_    0.180496 0.748064 0.137877 0.153222
H34   H     H_    0.819543 0.748191 0.862199 0.153162
H35   H     H_    0.680504 0.248401 0.137873 0.152940
H36   H     H_    0.319549 0.247840 0.862193 0.152482
O1    O     O_R   0.679710 0.768740 0.859430 -0.520837
O2    O     O_R   0.320290 0.768740 0.140570 -0.521247
O3    O     O_R   0.179710 0.268740 0.859430 -0.522197
O4    O     O_R   0.820290 0.268740 0.140570 -0.520213
O5    O     O_R   0.082020 0.544510 0.588970 -0.592776
O6    O     O_R   0.917980 0.544510 0.411030 -0.592817
O7    O     O_R   0.582020 0.044510 0.588970 -0.591135
O8    O     O_R   0.417980 0.044510 0.411030 -0.592716
O9    O     O_R   0.506970 0.955460 0.589020 -0.528711
O10   O     O_R   0.493030 0.955460 0.410980 -0.530825
O11   O     O_R   0.006970 0.455460 0.589020 -0.529174
O12   O     O_R   0.993030 0.455460 0.410980 -0.528912
O13   O     O_R   0.582050 0.955480 0.588990 -0.585953
O14   O     O_R   0.417950 0.955480 0.411010 -0.585508
O15   O     O_R   0.082050 0.455480 0.588990 -0.586086
O16   O     O_R   0.917950 0.455480 0.411010 -0.586347
O17   O     O_R   0.731220 0.820270 0.962460 -0.601235
O18   O     O_R   0.268780 0.820270 0.037540 -0.598924
O19   O     O_R   0.231220 0.320270 0.962460 -0.600515
O20   O     O_R   0.768780 0.320270 0.037540 -0.601953
O21   O     O_R   0.659370 0.724200 0.948480 -0.573608
O22   O     O_R   0.340630 0.724200 0.051520 -0.573897
O23   O     O_R   0.159370 0.224200 0.948480 -0.573850
O24   O     O_R   0.840630 0.224200 0.051520 -0.572892
O25   O     O_R   0.710880 0.775730 0.051510 -0.593226
O26   O     O_R   0.289120 0.775730 0.948490 -0.592494
O27   O     O_R   0.210880 0.275730 0.051510 -0.593341
O28   O     O_R   0.789120 0.275730 0.948490 -0.594766
O29   O     O_R   0.768760 0.679710 0.037490 -0.602782
O30   O     O_R   0.231240 0.679710 0.962510 -0.603056
O31   O     O_R   0.268760 0.179710 0.037490 -0.527655
O32   O     O_R   0.731240 0.179710 0.962510 -0.601737
O33   O     O_R   0.820270 0.731240 0.140520 -0.523056
O34   O     O_R   0.179730 0.731240 0.859480 -0.522895
O35   O     O_R   0.320270 0.231240 0.140520 -0.598074
O36   O     O_R   0.679730 0.231240 0.859480 -0.525192
O37   O     O_R   0.789100 0.724240 0.948440 -0.590458
O38   O     O_R   0.210900 0.724240 0.051560 -0.590786
O39   O     O_R   0.289100 0.224240 0.948440 -0.573555
O40   O     O_R   0.710900 0.224240 0.051560 -0.589417
O41   O     O_R   0.840600 0.775770 0.051470 -0.578139
O42   O     O_R   0.159400 0.775770 0.948530 -0.577580
O43   O     O_R   0.340600 0.275770 0.051470 -0.594510
O44   O     O_R   0.659400 0.275770 0.948530 -0.579145
O45   O     O_R   0.006940 0.544490 0.589000 -0.586240
O46   O     O_R   0.993060 0.544490 0.411000 -0.586202
O47   O     O_R   0.506940 0.044490 0.589000 -0.585826
O48   O     O_R   0.493060 0.044490 0.411000 -0.585192
H37   H     H_    0.041615 0.752516 0.862041 0.172267
H38   H     H_    0.958422 0.752531 0.138041 0.172389
H39   H     H_    0.541610 0.252167 0.862002 0.171663
H40   H     H_    0.458414 0.252904 0.137987 0.149367
H41   H     H_    0.931381 0.751373 0.783100 0.162142
H42   H     H_    0.068664 0.751319 0.216990 0.162196
H43   H     H_    0.431374 0.250817 0.783064 0.161271
H44   H     H_    0.568653 0.251884 0.216945 0.153409
H45   H     H_    0.850185 0.749612 0.783162 0.157944
H46   H     H_    0.149856 0.749490 0.216925 0.158027
H47   H     H_    0.350185 0.249056 0.783142 0.158176
H48   H     H_    0.649854 0.250041 0.216903 0.156804
F1    F     F_    0.935592 0.698326 0.273707 -0.643026
F2    F     F_    0.064499 0.698283 0.726132 -0.642860
F3    F     F_    0.348900 0.111289 0.103323 -0.637120
F4    F     F_    0.564469 0.198237 0.726233 -0.647327
F5    F     F_    0.498668 0.874764 0.627765 -0.595806
F6    F     F_    0.501265 0.874808 0.372409 -0.595498
F7    F     F_    0.998668 0.374763 0.627764 -0.596786
F8    F     F_    0.001269 0.374799 0.372424 -0.596355
H49   H     H_    0.639374 0.901546 0.714130 0.118446
H50   H     H_    0.360535 0.901523 0.285822 0.119239
H51   H     H_    0.139375 0.401547 0.714132 0.118041
H52   H     H_    0.860541 0.401513 0.285841 0.117966
F9    F     F_    0.566125 0.799699 0.723247 -0.593394
F10   F     F_    0.433767 0.799738 0.276909 -0.593265
F11   F     F_    0.066125 0.299698 0.723246 -0.593456
F12   F     F_    0.933764 0.299729 0.276919 -0.593042

loop_
_geom_bond_atom_site_label_1
_geom_bond_atom_site_label_2
_ccdc_geom_bond_type
C87   O47   A    
C21   H49   S    
C55   C56   A    
C82   C90   S    
Cu9   O47   S    
C55   C59   A    
C78   C82   D    
Cu11  O45   S    
C5    C117  A    
Cu2   O38   S    
C69   C77   S    
C18   C26   S    
C112  C116  A    
C57   C66   A    
C72   C76   D    
C3    O3    A    
C10   H22   S    
C40   C99   S    
C71   C79   S    
C100  O40   A    
C99   O43   A    
C53   C54   A    
Cu6   O34   S    
Cu1   Cu5   S    
C98   O42   A    
Cu5   O33   S    
C50   C54   A    
C97   O41   A    
C14   H26   S    
C37   C41   A    
C64   C68   A    
Cu3   O31   S    
C12   H24   S    
C38   C42   A    
Cu7   O27   S    
C24   C96   S    
Cu12  O15   S    
Cu1   O21   S    
C35   C39   A    
C12   C116  A    
C48   C107  S    
C70   C78   S    
Cu1   O1    S    
C15   C16   A    
C46   C105  S    
C32   H32   S    
C36   H36   S    
C91   O35   A    
C23   H51   S    
C64   H44   S    
Cu3   O39   S    
C35   C59   A    
C94   O10   A    
C41   C49   A    
C87   O7    A    
C103  H3    S    
C36   C40   A    
Cu10  O10   S    
C106  C110  A    
C93   O13   A    
C20   C24   D    
C60   C67   A    
C23   C95   S    
Cu2   O2    S    
C61   H41   S    
C44   H40   S    
C70   C74   D    
C85   O5    A    
C112  H20   S    
Cu9   O8    S    
Cu10  O48   S    
Cu5   O25   S    
Cu1   O37   S    
C19   C27   S    
C9    C10   A    
C110  C114  A    
C10   C114  A    
C11   H23   S    
Cu4   Cu8   S    
C81   C89   S    
C44   C52   A    
C104  C108  A    
C62   H42   S    
C74   H10   S    
C9    H21   S    
Cu7   O19   S    
C7    C103  A    
C13   C14   A    
C48   O28   A    
C25   C29   D    
C25   F9    S    
C22   C94   S    
C104  H4    S    
C2    O18   A    
C46   O22   A    
C38   C97   S    
C28   C32   D    
C13   H25   S    
C37   C98   S    
C82   H14   S    
C33   C57   A    
Cu2   O22   S    
C63   C67   A    
C84   H16   S    
C69   H5    S    
C31   H31   S    
C101  C105  A    
C49   C61   A    
C62   C66   A    
C4    O4    A    
C27   C31   D    
C80   C84   D    
C7    C119  A    
Cu6   O18   S    
C51   C63   A    
Cu6   O42   S    
Cu5   O41   S    
C19   C23   D    
C95   O11   A    
C73   H9    S    
C80   F4    S    
C20   C28   S    
C110  H18   S    
Cu9   O9    S    
C100  O44   A    
C33   C37   A    
C108  C112  A    
C46   O26   A    
C19   F7    S    
C86   O6    A    
C45   O25   A    
C34   C38   A    
Cu2   Cu6   S    
C109  H17   S    
C86   O46   A    
C15   H27   S    
C85   O45   A    
C59   C68   A    
C63   H43   S    
Cu11  O16   S    
Cu6   O26   S    
C58   C65   A    
C35   H35   S    
C90   O34   A    
Cu4   O4    S    
C67   H47   S    
C119  C120  A    
C79   F3    S    
C101  H1    S    
C66   H46   S    
Cu9   O14   S    
C1    C29   S    
C65   H45   S    
C114  C118  A    
C18   F6    S    
C96   O12   A    
C69   C73   D    
C109  C113  A    
C8    C104  A    
C76   C87   S    
Cu1   O29   S    
C5    C14   A    
C4    C32   S    
C75   H11   S    
C42   C50   A    
C33   H33   S    
C83   H15   S    
C76   H12   S    
C111  C115  A    
C45   O21   A    
C7    C16   A    
Cu12  O12   S    
C24   H52   S    
C111  H19   S    
C8    C15   A    
C81   H13   S    
C52   C64   A    
C96   O16   A    
C50   C62   A    
C113  C117  A    
Cu12  O46   S    
C30   H30   S    
C72   H8    S    
Cu3   O23   S    
Cu11  Cu12  S    
C28   F12   S    
Cu11  O11   S    
Cu3   Cu7   S    
Cu4   O24   S    
C11   C115  A    
C45   C106  S    
C8    C120  A    
C92   O36   A    
C54   C58   A    
Cu7   O43   S    
C89   O29   A    
C47   C108  S    
C105  C109  A    
C93   O9    A    
C88   O48   A    
C95   O15   A    
C20   F8    S    
Cu8   O20   S    
Cu5   O17   S    
C107  C111  A    
C43   H39   S    
Cu8   O28   S    
C17   C25   S    
C42   H38   S    
Cu10  O13   S    
C3    O19   A    
C61   C65   A    
C71   H7    S    
C11   C12   A    
C26   F10   S    
C70   H6    S    
C90   O30   A    
C17   F5    S    
Cu10  O7    S    
C78   F2    S    
C84   C92   S    
C89   O33   A    
Cu4   O32   S    
Cu11  O6    S    
C77   F1    S    
C88   O8    A    
C5    C101  A    
C2    C30   S    
C9    C113  A    
C1    O17   A    
C4    O20   A    
C18   C22   D    
Cu9   Cu10  S    
C91   O31   A    
C2    O2    A    
C92   O32   A    
C117  C118  A    
Cu8   O44   S    
C3    C31   S    
C71   C75   D    
Cu2   O30   S    
C43   C51   A    
C39   C100  S    
C47   O27   A    
C21   C93   S    
C49   C53   A    
C83   C91   S    
C115  C119  A    
C53   C57   A    
C27   F11   S    
C102  C106  A    
Cu8   O36   S    
C51   C55   A    
Cu12  O5    S    
C6    C102  A    
C74   C85   S    
C47   O23   A    
Cu3   O3    S    
C73   C86   S    
C48   O24   A    
C68   H48   S    
C102  H2    S    
C79   C83   D    
C116  C120  A    
C75   C88   S    
C40   C44   A    
C56   C60   A    
C16   H28   S    
C39   C43   A    
C6    C13   A    
C72   C80   S    
C77   C81   D    
C1    O1    A    
C34   C58   A    
C99   O39   A    
C36   C60   A    
C98   O38   A    
C103  C107  A    
C94   O14   A    
C29   H29   S    
C97   O37   A    
C34   H34   S    
Cu7   O35   S    
C6    C118  A    
Cu4   O40   S    
C52   C56   A    
C41   H37   S    
C22   H50   S    
C26   C30   D    
C17   C21   D    
