data_mof_unit_42873.cif
_audit_creation_date              2013-03-05T15:42:51-0500
_audit_creation_method            fapswitch 2.2
_symmetry_space_group_name_H-M    P1
_symmetry_Int_Tables_number       1
_space_group_crystal_system       triclinic
_cell_length_a                    28.184333
_cell_length_b                    17.121261
_cell_length_c                    18.261949
_cell_angle_alpha                 89.775179
_cell_angle_beta                  137.011248
_cell_angle_gamma                 90.207031
_cell_volume                      6008.67781075

loop_
_atom_site_label
_atom_site_type_symbol
_atom_site_description
_atom_site_fract_x
_atom_site_fract_y
_atom_site_fract_z
_atom_type_partial_charge
C1    C     C_R   0.673953 0.912550 0.813391 -0.129275
C2    C     C_R   0.316444 0.098743 0.195760 -0.141538
C3    C     C_R   0.315202 0.897469 0.200790 -0.182028
C4    C     C_R   0.682406 0.095494 0.807196 -0.136030
C5    C     C_R   0.168033 0.415450 0.814292 -0.188373
C6    C     C_R   0.814223 0.600797 0.201200 -0.134910
C7    C     C_R   0.815414 0.396956 0.201448 -0.161377
C8    C     C_R   0.173363 0.589995 0.813287 -0.145200
H1    H     H_    0.723197 0.942030 0.874603 0.122493
H2    H     H_    0.266418 0.069821 0.141357 0.138574
H3    H     H_    0.265193 0.926356 0.145335 0.141907
H4    H     H_    0.732376 0.066820 0.863139 0.126981
H5    H     H_    0.218489 0.441580 0.879051 0.142534
H6    H     H_    0.764995 0.570293 0.148043 0.112233
H7    H     H_    0.765446 0.425918 0.145557 0.122823
H8    H     H_    0.224882 0.565404 0.875439 0.143383
N1    N     N_R   0.625380 0.928280 0.709340 -0.058699
N2    N     N_R   0.374620 0.071720 0.290660 -0.055003
N3    N     N_R   0.374620 0.928280 0.290660 -0.051324
N4    N     N_R   0.625380 0.071720 0.709340 -0.054970
N5    N     N_R   0.125380 0.428280 0.709340 -0.053425
N6    N     N_R   0.874620 0.571720 0.290660 -0.051833
N7    N     N_R   0.874620 0.428280 0.290660 -0.051914
N8    N     N_R   0.125380 0.571720 0.709340 -0.054652
C9    C     C_R   0.356703 0.072386 0.485985 -0.092599
C10   C     C_R   0.651238 0.913650 0.529253 -0.114134
C11   C     C_R   0.648158 0.080852 0.522608 -0.103633
C12   C     C_R   0.328065 0.895657 0.412671 -0.135351
C13   C     C_R   0.826989 0.603624 0.408286 -0.103207
C14   C     C_R   0.172838 0.394322 0.592791 -0.141359
C15   C     C_R   0.139454 0.569406 0.507923 -0.094531
C16   C     C_R   0.826691 0.395878 0.407407 -0.099654
H9    H     H_    0.315792 0.034064 0.458313 0.100921
H10   H     H_    0.701501 0.937370 0.572752 0.096636
H11   H     H_    0.698294 0.057325 0.565687 0.096102
H12   H     H_    0.277304 0.922242 0.350930 0.100490
H13   H     H_    0.777066 0.574838 0.348779 0.088513
H14   H     H_    0.223359 0.421596 0.654216 0.099248
H15   H     H_    0.179606 0.530507 0.534386 0.100438
H16   H     H_    0.776838 0.424781 0.348288 0.089178
N9    N     N_R   0.386100 0.070250 0.452470 -0.044080
N10   N     N_R   0.613900 0.929750 0.547530 -0.038776
N11   N     N_R   0.613900 0.070250 0.547530 -0.039898
N12   N     N_R   0.386100 0.929750 0.452470 -0.039219
N13   N     N_R   0.886100 0.570250 0.452470 -0.042089
N14   N     N_R   0.113900 0.429750 0.547530 -0.039390
N15   N     N_R   0.113900 0.570250 0.547530 -0.042619
N16   N     N_R   0.886100 0.429750 0.452470 -0.043583
C17   C     C_R   0.410576 0.804127 0.503974 -0.086510
C18   C     C_R   0.555424 0.158137 0.416270 -0.160720
C19   C     C_R   0.561977 0.829315 0.429993 -0.168907
C20   C     C_R   0.438764 0.165353 0.574201 -0.123820
C21   C     C_R   0.906552 0.302410 0.489168 -0.117514
C22   C     C_R   0.055701 0.660337 0.417306 -0.117446
C23   C     C_R   0.090899 0.302280 0.505051 -0.094470
C24   C     C_R   0.907517 0.697063 0.492735 -0.133552
H17   H     H_    0.434448 0.748196 0.524726 0.125332
H18   H     H_    0.510943 0.187505 0.344554 0.146855
H19   H     H_    0.523697 0.786732 0.371605 0.145121
H20   H     H_    0.472230 0.211698 0.627390 0.160512
H21   H     H_    0.928144 0.246766 0.498904 0.135627
H22   H     H_    0.017509 0.702215 0.357671 0.164685
H23   H     H_    0.067790 0.246595 0.491530 0.084673
H24   H     H_    0.929723 0.753327 0.506516 0.131353
N17   N     N_R   0.437800 0.869550 0.507970 -0.041144
N18   N     N_R   0.562200 0.130450 0.492030 -0.044099
N19   N     N_R   0.562200 0.869550 0.492030 -0.056467
N20   N     N_R   0.437800 0.130450 0.507970 -0.054134
N21   N     N_R   0.937800 0.369550 0.507970 -0.045485
N22   N     N_R   0.062200 0.630450 0.492030 -0.051846
N23   N     N_R   0.062200 0.369550 0.492030 -0.041793
N24   N     N_R   0.937800 0.630450 0.507970 -0.046567
C25   C     C_R   0.602252 0.189407 0.721750 0.203841
C26   C     C_R   0.396808 0.804553 0.291579 0.211196
C27   C     C_R   0.397019 0.194328 0.285259 0.167688
C28   C     C_R   0.591768 0.819263 0.725030 0.211125
C29   C     C_R   0.087441 0.677798 0.723326 0.153446
C30   C     C_R   0.898611 0.306018 0.289849 0.230403
C31   C     C_R   0.894189 0.694886 0.288689 0.221749
C32   C     C_R   0.083459 0.326597 0.723475 0.176848
N25   N     N_R   0.573690 0.128980 0.653840 -0.060023
N26   N     N_R   0.426310 0.871020 0.346160 -0.084178
N27   N     N_R   0.426310 0.128980 0.346160 -0.067780
N28   N     N_R   0.573690 0.871020 0.653840 -0.066147
N29   N     N_R   0.073690 0.628980 0.653840 -0.072112
N30   N     N_R   0.926310 0.371020 0.346160 -0.068752
N31   N     N_R   0.926310 0.628980 0.346160 -0.060939
N32   N     N_R   0.073690 0.371020 0.653840 -0.067141
C33   C     C_R   0.652398 0.846217 0.824802 0.046276
C34   C     C_R   0.329886 0.174203 0.190020 0.047073
C35   C     C_R   0.328398 0.820586 0.199396 0.068834
C36   C     C_R   0.667295 0.166910 0.817555 0.044471
C37   C     C_R   0.140340 0.354558 0.824550 0.063523
C38   C     C_R   0.825524 0.677580 0.198225 0.031543
C39   C     C_R   0.829460 0.320653 0.199128 0.048798
C40   C     C_R   0.147986 0.652721 0.824101 0.067354
C41   C     C_R   0.390981 0.129232 0.565640 0.058821
C42   C     C_R   0.615248 0.857531 0.447838 0.084654
C43   C     C_R   0.608790 0.130537 0.434313 0.064597
C44   C     C_R   0.341728 0.817289 0.442900 0.047343
C45   C     C_R   0.838566 0.683312 0.428968 0.064856
C46   C     C_R   0.160116 0.314840 0.569104 0.069104
C47   C     C_R   0.101796 0.622784 0.423288 0.052813
C48   C     C_R   0.837624 0.315867 0.426134 0.049540
Ni1   Ni    Ni4+2 0.616560 0.000000 0.627280 0.234301
Ni2   Ni    Ni4+2 0.383440 0.000000 0.372720 0.221238
Ni3   Ni    Ni4+2 0.116560 0.500000 0.627280 0.222388
Ni4   Ni    Ni4+2 0.883440 0.500000 0.372720 0.209899
Ni5   Ni    Ni4+2 0.497990 0.870580 0.500000 0.213394
Ni6   Ni    Ni4+2 0.502010 0.129420 0.500000 0.219825
Ni7   Ni    Ni4+2 0.997990 0.370580 0.500000 0.221676
Ni8   Ni    Ni4+2 0.002010 0.629420 0.500000 0.214157
C49   C     C_3   0.683146 0.248417 0.954606 0.367806
C50   C     C_3   0.299056 0.708746 0.069986 0.347489
C51   C     C_3   0.291593 0.293639 0.063059 0.344300
C52   C     C_3   0.672972 0.767957 0.971090 0.330641
C53   C     C_3   0.172791 0.759655 0.958886 0.366448
C54   C     C_3   0.814472 0.235643 0.064410 0.355612
C55   C     C_3   0.798648 0.763334 0.056078 0.367525
C56   C     C_3   0.167476 0.240395 0.958872 0.330035
C57   C     C_3   0.222689 0.721395 0.069227 0.121911
C58   C     C_3   0.758621 0.275449 0.955390 0.114215
C59   C     C_3   0.734037 0.730137 0.947513 0.121144
C60   C     C_3   0.220743 0.274088 0.072754 0.119584
C61   C     C_3   0.739052 0.209112 0.063459 0.122552
C62   C     C_3   0.249909 0.746938 0.959965 0.115206
C63   C     C_3   0.239165 0.259479 0.951055 0.137091
C64   C     C_3   0.738383 0.800725 0.081343 0.127984
C65   C     C_3   0.281364 0.772343 0.105619 -0.091035
C66   C     C_3   0.710559 0.206489 0.917164 -0.078803
C67   C     C_3   0.695395 0.804982 0.923893 -0.114552
C68   C     C_3   0.277804 0.225484 0.100307 -0.073610
C69   C     C_3   0.787081 0.277968 0.101551 -0.089549
C70   C     C_3   0.190196 0.695775 0.922278 -0.058183
C71   C     C_3   0.181794 0.309036 0.922153 -0.097567
C72   C     C_3   0.776780 0.725485 0.104378 -0.122931
C73   C     C_3   0.730393 0.319230 0.991046 -0.387602
C74   C     C_3   0.240470 0.655869 0.033989 -0.371456
C75   C     C_3   0.235241 0.344133 0.036700 -0.371428
C76   C     C_3   0.710446 0.691222 0.993069 -0.340365
C77   C     C_3   0.231524 0.812021 0.994063 -0.370991
C78   C     C_3   0.767021 0.164958 0.027365 -0.337425
C79   C     C_3   0.761134 0.839846 0.034294 -0.321263
C80   C     C_3   0.224280 0.190385 0.985908 -0.316455
H25   H     H_    0.714059 0.381385 0.973707 0.180068
H26   H     H_    0.244004 0.592261 0.049493 0.183551
H27   H     H_    0.240227 0.406306 0.058584 0.184715
H28   H     H_    0.688159 0.631776 0.974403 0.177010
H29   H     H_    0.227580 0.875221 0.976378 0.181270
H30   H     H_    0.782388 0.102531 0.042154 0.173834
H31   H     H_    0.782176 0.899764 0.050783 0.170120
H32   H     H_    0.219102 0.127995 0.964640 0.172132
C81   C     C_R   0.627003 0.835739 0.384966 0.104777
C82   C     C_R   0.378726 0.150046 0.628697 0.105068
C83   C     C_R   0.290928 0.755624 0.402594 0.092587
C84   C     C_R   0.620651 0.152385 0.371041 0.109138
C85   C     C_R   0.211092 0.252786 0.613321 0.102665
C86   C     C_R   0.786972 0.744599 0.382519 0.110931
C87   C     C_R   0.785610 0.254279 0.379316 0.090880
C88   C     C_R   0.112122 0.641289 0.357067 0.111215
C89   C     C_R   0.384720 0.250738 0.728185 -0.195225
C90   C     C_R   0.616944 0.739434 0.277524 -0.181988
C91   C     C_R   0.613355 0.253445 0.269856 -0.183991
C92   C     C_R   0.268343 0.624255 0.421425 -0.198205
C93   C     C_R   0.765701 0.872030 0.410380 -0.203973
C94   C     C_R   0.231833 0.123466 0.587856 -0.192033
C95   C     C_R   0.110976 0.746415 0.266835 -0.184434
C96   C     C_R   0.764452 0.125014 0.404956 -0.193917
C97   C     C_R   0.411819 0.215713 0.696793 -0.077773
C98   C     C_R   0.593387 0.770410 0.316358 -0.130593
C99   C     C_R   0.586916 0.217982 0.302530 -0.132413
C100  C     C_R   0.313272 0.678455 0.441252 -0.162012
C101  C     C_R   0.808822 0.821664 0.421411 -0.161244
C102  C     C_R   0.188784 0.175480 0.575579 -0.164256
C103  C     C_R   0.079170 0.706744 0.288362 -0.111269
C104  C     C_R   0.807114 0.176523 0.415387 -0.172760
C105  C     C_R   0.326548 0.111762 0.609515 -0.238170
C106  C     C_R   0.675686 0.877215 0.398708 -0.251307
C107  C     C_R   0.672512 0.114670 0.389668 -0.248263
C108  C     C_R   0.220472 0.774313 0.331595 -0.251417
C109  C     C_R   0.717371 0.724060 0.314646 -0.272416
C110  C     C_R   0.280903 0.272269 0.680907 -0.253551
C111  C     C_R   0.166743 0.605480 0.381142 -0.240866
C112  C     C_R   0.716179 0.274515 0.313469 -0.244477
C113  C     C_R   0.295675 0.149888 0.633310 0.174931
C114  C     C_R   0.703343 0.843226 0.367852 0.189777
C115  C     C_R   0.701732 0.152164 0.362503 0.182087
C116  C     C_R   0.176406 0.721812 0.317002 0.159525
C117  C     C_R   0.676618 0.770945 0.312980 0.178091
C118  C     C_R   0.322443 0.222655 0.686789 0.161880
C119  C     C_R   0.202068 0.647995 0.367864 0.164494
C120  C     C_R   0.674926 0.225102 0.309100 0.172242
H33   H     H_    0.699527 0.929467 0.447122 0.110715
H34   H     H_    0.303004 0.058725 0.562473 0.124210
H35   H     H_    0.201362 0.832173 0.297336 0.130617
H36   H     H_    0.696913 0.062559 0.438600 0.111065
H37   H     H_    0.300152 0.329968 0.715601 0.126240
H38   H     H_    0.698589 0.666568 0.278978 0.127672
H39   H     H_    0.697517 0.332656 0.279906 0.123457
H40   H     H_    0.189454 0.551716 0.426865 0.122573
H41   H     H_    0.553196 0.738696 0.299670 0.179717
H42   H     H_    0.454305 0.245297 0.718020 0.184289
H43   H     H_    0.366448 0.660349 0.493011 0.128677
H44   H     H_    0.544648 0.247045 0.282451 0.159323
H45   H     H_    0.136363 0.156464 0.528065 0.131637
H46   H     H_    0.861070 0.841661 0.469407 0.124171
H47   H     H_    0.859146 0.156921 0.461767 0.126176
H48   H     H_    0.033625 0.732944 0.261114 0.185173
H49   H     H_    0.785983 0.928133 0.450292 0.124727
H50   H     H_    0.211455 0.066818 0.549377 0.137702
H51   H     H_    0.089188 0.801438 0.223766 0.159923
H52   H     H_    0.784770 0.068361 0.443402 0.124359
H53   H     H_    0.406995 0.305356 0.771998 0.154295
H54   H     H_    0.594854 0.684998 0.233238 0.152085
H55   H     H_    0.591043 0.308219 0.226219 0.150017
H56   H     H_    0.288184 0.567163 0.458895 0.134926
N33   N     N_2   0.573951 0.265865 0.698358 -0.117111
H57   H     H_    0.605296 0.305834 0.759547 0.205821
C121  C     C_3   0.536752 0.299635 0.596040 -0.978733
H58   H     H_    0.506614 0.350799 0.581464 0.270874
H59   H     H_    0.499777 0.256931 0.531565 0.285039
H60   H     H_    0.574309 0.320077 0.596564 0.260832
N34   N     N_2   0.426810 0.729713 0.339836 -0.091014
H61   H     H_    0.475822 0.733387 0.417418 0.166511
C122  C     C_3   0.384605 0.671685 0.329300 -0.881254
H62   H     H_    0.418131 0.623771 0.388032 0.245005
H63   H     H_    0.347236 0.644728 0.249187 0.278607
H64   H     H_    0.356443 0.697779 0.344050 0.222905
N35   N     N_2   0.414725 0.271881 0.328521 -0.127581
H65   H     H_    0.372875 0.309084 0.283281 0.192653
C123  C     C_3   0.474316 0.312096 0.364825 -0.857289
H66   H     H_    0.473072 0.313163 0.303178 0.297619
H67   H     H_    0.523313 0.285156 0.437609 0.238226
H68   H     H_    0.475254 0.373439 0.385507 0.266437
N36   N     N_2   0.562769 0.743132 0.699564 -0.111598
H69   H     H_    0.574467 0.713848 0.760482 0.210337
C124  C     C_3   0.565040 0.693962 0.637672 -0.993021
H70   H     H_    0.513850 0.665868 0.571531 0.257350
H71   H     H_    0.602881 0.646001 0.688427 0.263470
H72   H     H_    0.579710 0.727192 0.604155 0.256959
N37   N     N_2   0.044513 0.741568 0.694186 -0.123295
H73   H     H_    0.023667 0.739006 0.722339 0.232227
C125  C     C_3   0.064734 0.818348 0.691715 -0.898001
H74   H     H_    0.021631 0.860022 0.653243 0.263581
H75   H     H_    0.075612 0.817982 0.644523 0.250720
H76   H     H_    0.111289 0.839081 0.773808 0.278729
N38   N     N_2   0.933830 0.233085 0.331883 -0.122766
H77   H     H_    0.965065 0.221624 0.322767 0.225396
C126  C     C_3   0.899172 0.165953 0.323849 -0.964143
H78   H     H_    0.938858 0.125011 0.390512 0.258688
H79   H     H_    0.869129 0.135195 0.247157 0.278258
H80   H     H_    0.865016 0.183186 0.331184 0.244749
N39   N     N_2   0.924745 0.770832 0.316394 -0.110493
H81   H     H_    0.894076 0.815064 0.261523 0.206413
C127  C     C_3   0.979641 0.796541 0.426578 -0.991802
H82   H     H_    0.959814 0.842665 0.441244 0.251109
H83   H     H_    0.022569 0.821821 0.441915 0.270915
H84   H     H_    0.000723 0.748559 0.483633 0.269003
N40   N     N_2   0.038789 0.264867 0.694185 -0.120862
H85   H     H_    0.023310 0.264868 0.730404 0.232982
C128  C     C_3   0.052556 0.189244 0.678193 -0.890284
H86   H     H_    0.010130 0.148244 0.645571 0.262362
H87   H     H_    0.102017 0.165393 0.755491 0.275966
H88   H     H_    0.054144 0.193498 0.619293 0.234914
N41   N     N_2   0.206813 0.712243 0.128398 -0.083679
H89   H     H_    0.240713 0.740338 0.201303 0.173766
C129  C     C_3   0.186816 0.634763 0.129313 -0.772739
H90   H     H_    0.166680 0.637169 0.163453 0.248361
H91   H     H_    0.232535 0.595163 0.179584 0.220322
H92   H     H_    0.145027 0.611416 0.046296 0.267670
N42   N     N_2   0.777542 0.310704 0.907147 -0.079276
H93   H     H_    0.816172 0.352090 0.956199 0.225498
C130  C     C_3   0.721625 0.337201 0.797673 -0.896921
H94   H     H_    0.743560 0.367227 0.773602 0.258635
H95   H     H_    0.688095 0.379299 0.789519 0.245418
H96   H     H_    0.691435 0.286492 0.743680 0.262380
N43   N     N_2   0.737468 0.694685 0.879626 -0.088747
H97   H     H_    0.705457 0.718258 0.804096 0.185966
C131  C     C_3   0.745463 0.610749 0.887293 -0.796616
H98   H     H_    0.755498 0.591449 0.841639 0.246793
H99   H     H_    0.697444 0.581831 0.853428 0.216627
H100  H     H_    0.790051 0.592574 0.972397 0.281501
N44   N     N_2   0.204234 0.279850 0.131478 -0.078415
H101  H     H_    0.160519 0.313136 0.091561 0.226676
C132  C     C_3   0.260443 0.299223 0.243970 -0.902626
H102  H     H_    0.239997 0.303936 0.277572 0.259066
H103  H     H_    0.283772 0.356321 0.254804 0.241165
H104  H     H_    0.299960 0.252118 0.288733 0.255555
N45   N     N_2   0.723842 0.178158 0.118480 -0.090456
H105  H     H_    0.749644 0.204291 0.190360 0.173719
C133  C     C_3   0.715025 0.094572 0.114225 -0.759509
H106  H     H_    0.694580 0.079518 0.146288 0.247825
H107  H     H_    0.765689 0.064773 0.163699 0.217388
H108  H     H_    0.677396 0.073630 0.029996 0.279154
N46   N     N_2   0.273248 0.758222 0.911281 -0.088936
H109  H     H_    0.321910 0.783395 0.963492 0.225734
C134  C     C_3   0.225582 0.794443 0.806800 -0.892012
H110  H     H_    0.252088 0.803692 0.783344 0.254721
H111  H     H_    0.208638 0.852214 0.808407 0.249049
H112  H     H_    0.180904 0.755380 0.746035 0.265354
N47   N     N_2   0.257540 0.254763 0.894753 -0.072464
H113  H     H_    0.267588 0.307583 0.880971 0.195020
C135  C     C_3   0.221848 0.198891 0.809060 -0.858850
H114  H     H_    0.254793 0.185781 0.798016 0.262296
H115  H     H_    0.172164 0.223989 0.733273 0.239590
H116  H     H_    0.212971 0.143089 0.828588 0.247662
N48   N     N_2   0.734256 0.837445 0.147792 -0.075179
H117  H     H_    0.716704 0.800864 0.168926 0.199353
C136  C     C_3   0.791663 0.886867 0.233682 -0.898985
H118  H     H_    0.774920 0.925399 0.260195 0.260775
H119  H     H_    0.808736 0.924641 0.206839 0.250185
H120  H     H_    0.835532 0.850510 0.302602 0.241452
N49   N     N_R   0.611071 0.251648 0.897607 0.223610
O1    O     O_R   0.582117 0.318511 0.879126 -0.437775
O2    O     O_R   0.577561 0.187202 0.873435 -0.420385
N50   N     N_R   0.368539 0.681546 0.129118 0.238463
O3    O     O_R   0.383562 0.607608 0.150035 -0.363460
O4    O     O_R   0.414722 0.730520 0.156538 -0.454796
N51   N     N_R   0.357958 0.322800 0.111192 0.220115
O5    O     O_R   0.372466 0.396801 0.132709 -0.387560
O6    O     O_R   0.396807 0.278126 0.114615 -0.434938
N52   N     N_R   0.603570 0.773940 0.924264 0.227683
O7    O     O_R   0.569427 0.711232 0.904039 -0.409152
O8    O     O_R   0.576400 0.842223 0.905600 -0.374646
N53   N     N_R   0.105352 0.787157 0.908271 0.228804
O9    O     O_R   0.091434 0.861476 0.891918 -0.385600
O10   O     O_R   0.064240 0.739566 0.896914 -0.399240
N54   N     N_R   0.886502 0.229507 0.121439 0.225990
O11   O     O_R   0.913616 0.161291 0.139508 -0.393008
O12   O     O_R   0.922551 0.292217 0.148398 -0.419924
N55   N     N_R   0.867173 0.759243 0.099230 0.228448
O13   O     O_R   0.899843 0.822992 0.117954 -0.417201
O14   O     O_R   0.894599 0.691864 0.114870 -0.422802
N56   N     N_R   0.101031 0.210002 0.909839 0.228051
O15   O     O_R   0.086254 0.136340 0.885529 -0.379158
O16   O     O_R   0.059666 0.254318 0.901049 -0.415874

loop_
_geom_bond_atom_site_label_1
_geom_bond_atom_site_label_2
_geom_bond_distance
_ccdc_geom_bond_type
C68   C80   1.547256 S    
N52   O8    1.300327 A    
N24   Ni8   1.918898 S    
C69   C73   1.550559 S    
C55   C79   1.543620 S    
N34   H61   1.027768 S    
C56   C80   1.546032 S    
C72   C76   1.553397 S    
C21   N21   1.329776 A    
C31   N31   1.342549 A    
C113  C118  1.414192 A    
C135  H115  1.106966 S    
N47   H113  1.030538 S    
C71   C75   1.549012 S    
C11   C43   1.390456 A    
C116  C119  1.413415 A    
C24   C45   1.369731 A    
N4    Ni1   1.811794 S    
N42   H93   1.030772 S    
C39   C69   1.423450 S    
C122  H64   1.103810 S    
C14   H14   1.080029 S    
C2    C34   1.370105 A    
C27   C34   1.381800 A    
C133  H106  1.110245 S    
C24   N24   1.328058 A    
C16   C48   1.390568 A    
C3    N3    1.325067 A    
C91   C120  1.394420 A    
C4    H4    1.079043 S    
N3    N26   1.397539 A    
N8    N29   1.397536 A    
C5    H5    1.077120 S    
N13   Ni4   1.851136 S    
C7    H7    1.081273 S    
C8    H8    1.078660 S    
C96   C115  1.392878 A    
C25   N25   1.341614 A    
C106  H33   1.079948 S    
C94   C102  1.386995 A    
C22   C47   1.382403 A    
C57   N41   1.448435 S    
N31   Ni8   1.917251 S    
C11   H11   1.073856 S    
C26   N34   1.429087 S    
C12   N12   1.342239 A    
C13   N13   1.337805 A    
N50   O3    1.300446 A    
C100  H43   1.079018 S    
C36   C66   1.419048 S    
N35   H65   1.027238 S    
C135  H114  1.108643 S    
C22   N22   1.336814 A    
C56   N56   1.457053 S    
C43   C84   1.465474 S    
C14   C46   1.393450 A    
C31   N39   1.431094 S    
N8    Ni3   1.811794 S    
N20   Ni6   1.918898 S    
C41   C82   1.469145 S    
N18   Ni6   1.805631 S    
N22   Ni8   1.805631 S    
C58   N42   1.451146 S    
C44   C83   1.469624 S    
C51   C75   1.545896 S    
C45   C86   1.461031 S    
C49   C73   1.544102 S    
C85   C110  1.397029 A    
C48   C87   1.467746 S    
C67   C79   1.546123 S    
C83   C108  1.400491 A    
C128  H87   1.106081 S    
C58   C73   1.544279 S    
N40   C128  1.443822 S    
C59   N43   1.447945 S    
C35   C65   1.433286 S    
C55   C59   1.513072 S    
C62   C77   1.542589 S    
C55   C72   1.538119 S    
C33   C67   1.424629 S    
C56   C71   1.542695 S    
C49   N49   1.456022 S    
C32   N32   1.324062 A    
C94   H50   1.084064 S    
N11   N18   1.433483 A    
C123  H68   1.111178 S    
C131  H99   1.110111 S    
C3    H3    1.081514 S    
C106  C114  1.382840 A    
N3    Ni2   1.811793 S    
C5    N5    1.339661 A    
N25   Ni6   1.915930 S    
C62   C70   1.540421 S    
C132  H103  1.110731 S    
C82   C105  1.398636 A    
C110  C118  1.387907 A    
N48   C136  1.442848 S    
C32   C37   1.370622 A    
C61   N45   1.448648 S    
N51   O6    1.301292 A    
C60   C75   1.556456 S    
N29   Ni8   1.915930 S    
C93   H49   1.082889 S    
C130  H96   1.106337 S    
N46   C134  1.441050 S    
N16   Ni4   1.844049 S    
C126  H78   1.109667 S    
C29   N37   1.414980 S    
N50   O4    1.299980 A    
C133  H107  1.108978 S    
C128  H86   1.110204 S    
C50   C62   1.519151 S    
C129  H92   1.111074 S    
N49   O2    1.300270 A    
C21   C48   1.371762 A    
C17   H17   1.068698 S    
C60   C68   1.534458 S    
C27   N35   1.436278 S    
N37   H73   1.026137 S    
C54   C58   1.522606 S    
C99   H44   1.079371 S    
N53   O10   1.300953 A    
C20   H20   1.059743 S    
C97   H42   1.076459 S    
N32   Ni7   1.917250 S    
C21   H21   1.074308 S    
C23   H23   1.075272 S    
C81   C98   1.408981 A    
C24   H24   1.072436 S    
C101  H46   1.079065 S    
C85   C102  1.410456 A    
C89   C97   1.384963 A    
C127  H83   1.109529 S    
N5    N32   1.395729 A    
C29   N29   1.321193 A    
C124  H70   1.105414 S    
C107  C115  1.388466 A    
C134  H111  1.109696 S    
N12   N17   1.433484 A    
C110  H37   1.081589 S    
C109  C117  1.385613 A    
C64   C79   1.548024 S    
C122  H62   1.110047 S    
C51   C68   1.533845 S    
C136  H119  1.109259 S    
C49   C66   1.536393 S    
N26   Ni5   1.915931 S    
C50   N50   1.458393 S    
C31   C38   1.372824 A    
N56   O15   1.300474 A    
C40   C70   1.434139 S    
C6    C38   1.361750 A    
N33   H57   1.027035 S    
C4    N4    1.319638 A    
N2    Ni2   1.805026 S    
C6    H6    1.080948 S    
C18   N18   1.335764 A    
N36   H69   1.028551 S    
C125  H76   1.103724 S    
N45   H105  1.028514 S    
N27   Ni6   1.917251 S    
C32   N40   1.413432 S    
C19   N19   1.324295 A    
N41   C129  1.444258 S    
C115  C120  1.414452 A    
C9    C41   1.394618 A    
C87   C104  1.410115 A    
N10   N19   1.431629 A    
C88   C103  1.408683 A    
C92   C100  1.385313 A    
C92   C119  1.393003 A    
C10   N10   1.345905 A    
C95   C103  1.388715 A    
C90   H54   1.084175 S    
C96   C104  1.385068 A    
C126  H80   1.105776 S    
C14   N14   1.343550 A    
C25   C36   1.370253 A    
C89   C118  1.392513 A    
C37   C71   1.448634 S    
C128  H88   1.110895 S    
C129  H90   1.109264 S    
N34   C122  1.448166 S    
C29   C40   1.373992 A    
C1    N1    1.322988 A    
N28   Ni5   1.917250 S    
N1    N28   1.395729 A    
N43   C131  1.445760 S    
N30   Ni7   1.915931 S    
C80   H32   1.110134 S    
C121  H60   1.107038 S    
C74   H26   1.110493 S    
C7    N7    1.322692 A    
C95   C116  1.395863 A    
C79   H31   1.109774 S    
C130  H95   1.110369 S    
C50   C74   1.544041 S    
C66   C78   1.549119 S    
C86   C109  1.396201 A    
C23   N23   1.326850 A    
C53   N53   1.456582 S    
C124  H72   1.111336 S    
N44   H101  1.030554 S    
C127  H82   1.109687 S    
C9    H9    1.077067 S    
C51   N51   1.453217 S    
C28   N28   1.326723 A    
C92   H56   1.084130 S    
C23   C46   1.371416 A    
C73   H25   1.110084 S    
C63   C71   1.539788 S    
C64   C72   1.532117 S    
C47   C88   1.469248 S    
C136  H120  1.105934 S    
C65   C77   1.547397 S    
C125  H74   1.110042 S    
C6    N6    1.321262 A    
C105  C113  1.389824 A    
C3    C35   1.374551 A    
C108  C116  1.389623 A    
C91   H55   1.084072 S    
C83   C100  1.410289 A    
N7    N30   1.397539 A    
C131  H98   1.109994 S    
C112  C120  1.389840 A    
C87   C112  1.398005 A    
C135  H116  1.108463 S    
C91   C99   1.387211 A    
C88   C111  1.397734 A    
C34   C68   1.445493 S    
C19   C42   1.368932 A    
N47   C135  1.441427 S    
N52   O7    1.300314 A    
C127  H84   1.097557 S    
C15   N15   1.343261 A    
C16   N16   1.340907 A    
C103  H48   1.079154 S    
C26   N26   1.330229 A    
C53   C70   1.540518 S    
N9    N20   1.431631 A    
C107  H36   1.080104 S    
N38   C126  1.442339 S    
N9    Ni2   1.851136 S    
N48   H117  1.030122 S    
C18   H18   1.066342 S    
C1    H1    1.077133 S    
C105  H34   1.081988 S    
N46   H109  1.030383 S    
N54   O11   1.300561 A    
C22   H22   1.069227 S    
C82   C97   1.409603 A    
C26   C35   1.370586 A    
C53   C77   1.547510 S    
N55   O13   1.300417 A    
C63   N47   1.453233 S    
C132  H102  1.110501 S    
C86   C101  1.409335 A    
C90   C98   1.385400 A    
C30   C39   1.372035 A    
N2    N27   1.395732 A    
C13   C45   1.389651 A    
C123  H67   1.095878 S    
N17   Ni5   1.805633 S    
N14   N23   1.431629 A    
C108  H35   1.081147 S    
C50   C65   1.530324 S    
C9    N9    1.343389 A    
C121  H58   1.110171 S    
C62   N46   1.453908 S    
C59   C67   1.527328 S    
C111  H40   1.081934 S    
C57   C65   1.524314 S    
N12   Ni2   1.844049 S    
C78   H30   1.110348 S    
C114  C117  1.414831 A    
N35   C123  1.449356 S    
C129  H91   1.110712 S    
C27   N27   1.350532 A    
N49   O1    1.300439 A    
N39   H81   1.027796 S    
N6    Ni4   1.805026 S    
N7    Ni4   1.811793 S    
C63   C80   1.536784 S    
N53   O9    1.300531 A    
N10   Ni1   1.851137 S    
N51   O5    1.300760 A    
C11   N11   1.346597 A    
C12   H12   1.079826 S    
C13   H13   1.079753 S    
C90   C117  1.393556 A    
C93   C114  1.391072 A    
C4    C36   1.354876 A    
C8    N8    1.332726 A    
C2    N2    1.322112 A    
C94   C113  1.394006 A    
C134  H110  1.110595 S    
C96   H52   1.082670 S    
C8    C40   1.384822 A    
N16   N21   1.433484 A    
C52   N52   1.456541 S    
C76   H28   1.109737 S    
C77   H29   1.110462 S    
C136  H118  1.109659 S    
C75   H27   1.110258 S    
C18   C43   1.368577 A    
C17   N17   1.327125 A    
C104  H47   1.079246 S    
C132  H104  1.108362 S    
C84   C107  1.395274 A    
N56   O16   1.300886 A    
C49   C61   1.517234 S    
C93   C101  1.381769 A    
C20   C41   1.381047 A    
C51   C63   1.513488 S    
N11   Ni1   1.844048 S    
C131  H100  1.110496 S    
C53   C57   1.522416 S    
C98   H41   1.078278 S    
C122  H63   1.100107 S    
C10   H10   1.074647 S    
C125  H75   1.106044 S    
N23   Ni7   1.918897 S    
C102  H45   1.079356 S    
C38   C72   1.431723 S    
N41   H89   1.028376 S    
C20   N20   1.333504 A    
C54   N54   1.457600 S    
C30   N30   1.316725 A    
C42   C81   1.458776 S    
C64   N48   1.447191 S    
N4    N25   1.397536 A    
N13   N24   1.431631 A    
N36   C124  1.450526 S    
C109  H38   1.081775 S    
C46   C85   1.466990 S    
N19   Ni5   1.918897 S    
C126  H79   1.106091 S    
C133  H108  1.111014 S    
N54   O12   1.300751 A    
N39   C127  1.443567 S    
N6    N31   1.395732 A    
C59   C76   1.542656 S    
N37   C125  1.444538 S    
C15   C47   1.395203 A    
C57   C74   1.550949 S    
N15   N22   1.433483 A    
N1    Ni1   1.805030 S    
C121  H59   1.101403 S    
C61   C78   1.547829 S    
C112  H39   1.081937 S    
N14   Ni3   1.851137 S    
C30   N38   1.421441 S    
C25   N33   1.427246 S    
N55   O14   1.300296 A    
N5    Ni3   1.805030 S    
C54   C69   1.534618 S    
C10   C42   1.400172 A    
N15   Ni3   1.844048 S    
C124  H71   1.106797 S    
C134  H112  1.104435 S    
C19   H19   1.072345 S    
N40   H85   1.024698 S    
C2    H2    1.081543 S    
C60   N44   1.451722 S    
C61   C69   1.524287 S    
N42   C130  1.440478 S    
C89   H53   1.084228 S    
C81   C106  1.393011 A    
C1    C33   1.371387 A    
C54   C78   1.543350 S    
C111  C119  1.387964 A    
C70   C74   1.550338 S    
C5    C37   1.392020 A    
N38   H77   1.028167 S    
N33   C121  1.433466 S    
C7    C39   1.376197 A    
C28   C33   1.377946 A    
C84   C99   1.409652 A    
C95   H51   1.083957 S    
C17   C44   1.376596 A    
N21   Ni7   1.805633 S    
C12   C44   1.392937 A    
C52   C67   1.527682 S    
N45   C133  1.444258 S    
C15   H15   1.077302 S    
C28   N36   1.422769 S    
C16   H16   1.079935 S    
C52   C64   1.529185 S    
C55   N55   1.459415 S    
C123  H66   1.100497 S    
N43   H97   1.028138 S    
C58   C66   1.525690 S    
C56   C60   1.532067 S    
N44   C132  1.442320 S    
C52   C76   1.545454 S    
C130  H94   1.110516 S    
