data_mof_unit_31527.cif
_audit_creation_date              2012-12-11T20:21:47-0500
_audit_creation_method            fapswitch 2.2
_symmetry_space_group_name_H-M    P1
_symmetry_Int_Tables_number       1
_space_group_crystal_system       triclinic
_cell_length_a                    8.23551
_cell_length_b                    17.339695
_cell_length_c                    26.976243
_cell_angle_alpha                 99.47426
_cell_angle_beta                  93.306106
_cell_angle_gamma                 81.21381
_cell_volume                      3753.01504983

loop_
_atom_site_label
_atom_site_type_symbol
_atom_type_description
_atom_site_fract_x
_atom_site_fract_y
_atom_site_fract_z
_atom_type_partial_charge
Ba1   Ba    Ba6+2 0.860160 0.462360 0.521850 1.741913
Ba2   Ba    Ba6+2 0.329680 0.537570 0.478140 1.695195
C1    C     C_3   0.740567 0.169955 0.650589 -0.338835
C2    C     C_3   0.679151 0.250297 0.635477 0.394574
C3    C     C_3   0.412342 0.756860 0.634060 0.324253
C4    C     C_3   0.370071 0.843902 0.628678 -0.480720
C5    C     C_3   0.044252 0.705453 0.346315 0.327660
C6    C     C_3   0.068336 0.726053 0.294738 -0.267375
C7    C     C_3   0.494944 0.748519 0.370657 0.380043
C8    C     C_3   0.445652 0.828478 0.353644 -0.367424
C9    C     C_R   0.984302 0.433286 0.174100 0.627803
C10   C     C_R   0.933590 0.574473 0.182344 0.663596
C11   C     C_2   0.747961 0.548971 0.272466 0.360608
C12   C     C_3   0.201659 0.235153 0.646479 0.323389
C13   C     C_3   0.728327 0.576924 0.328409 -0.079892
C14   C     C_1   0.983775 0.488824 0.342604 0.051311
C15   C     C_2   0.022572 0.483089 0.294510 -0.162471
C16   C     C_2   0.897458 0.512104 0.256080 0.165689
C17   C     C_R   0.016336 0.497394 0.101394 -0.075112
C18   C     C_R   0.020831 0.427972 0.122648 -0.034752
C19   C     C_R   0.061129 0.354792 0.091922 -0.050708
C20   C     C_R   0.974091 0.571004 0.131827 -0.026087
C21   C     C_2   0.847171 0.531253 0.361290 -0.355065
C22   C     C_2   0.363712 0.495591 0.646695 0.120598
C23   C     C_3   0.144788 0.207825 0.692464 -0.286180
C24   C     C_R   0.113311 0.415200 0.966037 0.020203
C25   C     C_R   0.097131 0.560200 0.978487 0.023278
C26   C     C_R   0.122431 0.485868 0.946608 0.057083
C27   C     C_R   0.129869 0.343292 0.931947 -0.089325
C28   C     C_R   0.159211 0.340679 0.881237 -0.033739
C29   C     C_R   0.175127 0.409442 0.862075 -0.029473
C30   C     C_R   0.157183 0.482223 0.894737 -0.077609
C31   C     C_R   0.173692 0.551411 0.875510 -0.037979
C32   C     C_R   0.211649 0.546706 0.824447 0.627132
C33   C     C_R   0.208651 0.406853 0.810873 0.682598
C34   C     C_3   0.211271 0.287963 0.401573 0.280353
C35   C     C_2   0.423850 0.432555 0.723794 0.336349
C36   C     C_3   0.455519 0.425353 0.668049 -0.167213
C37   C     C_1   0.209736 0.519056 0.659679 0.004462
C38   C     C_2   0.159927 0.512209 0.704767 -0.165406
C39   C     C_2   0.275187 0.470587 0.740706 0.195693
C40   C     C_R   0.086375 0.418754 0.018423 0.022406
C41   C     C_R   0.052698 0.493385 0.049607 0.056700
C42   C     C_R   0.053974 0.564193 0.029504 0.022082
C43   C     C_R   0.092499 0.350146 0.041082 -0.091453
C44   C     C_R   0.970429 0.640177 0.111060 -0.039574
C45   C     C_3   0.181206 0.202687 0.382558 -0.205846
C46   C     C_R   0.116917 0.628271 0.958067 -0.091918
C47   C     C_R   0.154387 0.623823 0.907893 -0.049404
C48   C     C_R   0.009745 0.637012 0.061259 -0.090620
C49   C     C_2   0.443610 0.279356 0.511910 -0.245413
C50   C     C_3   0.385265 0.232688 0.548100 -0.083781
C51   C     C_2   0.446743 0.145340 0.536355 -0.124745
C52   C     C_2   0.573845 0.118782 0.505376 0.012902
C53   C     C_2   0.647201 0.176367 0.481486 -0.126452
C54   C     C_1   0.576662 0.250832 0.485879 0.052017
C55   C     C_R   0.781932 0.861688 0.466946 -0.125384
C56   C     C_3   0.970324 0.702084 0.587089 0.307722
C57   C     C_R   0.846103 0.781878 0.464220 0.023512
C58   C     C_R   0.614569 0.759260 0.508053 0.008906
C59   C     C_R   0.547670 0.838791 0.510150 -0.131710
C60   C     C_R   0.630803 0.890859 0.490000 0.017808
C61   C     C_2   0.646752 0.034428 0.495634 -0.081315
C62   C     C_2   0.558592 0.975368 0.496167 -0.093057
C63   C     C_R   0.758999 0.730388 0.482741 -0.281402
C64   C     C_3   0.921119 0.790535 0.603525 -0.403822
C65   C     C_3   0.692303 0.364581 0.369068 0.283782
C66   C     C_3   0.694447 0.345104 0.312037 -0.338905
H1    H     H_    0.692409 0.245394 0.594284 0.019661
H2    H     H_    0.197735 0.189040 0.341214 0.135806
H3    H     H_    0.051780 0.197625 0.389651 0.124649
H4    H     H_    0.861603 0.675433 0.571337 0.021771
H5    H     H_    0.063212 0.692819 0.557812 0.064787
H6    H     H_    0.818668 0.801369 0.629938 0.147282
H7    H     H_    0.881639 0.820221 0.570607 0.061815
H8    H     H_    0.026884 0.816948 0.622753 0.111908
H9    H     H_    0.813670 0.379627 0.383495 0.014261
H10   H     H_    0.596194 0.416146 0.379452 0.071774
H11   H     H_    0.863521 0.146632 0.635294 0.131416
H12   H     H_    0.794511 0.295798 0.300501 0.134412
H13   H     H_    0.715317 0.397430 0.295962 0.073015
H14   H     H_    0.574706 0.327709 0.296915 0.134084
H15   H     H_    0.547501 0.265492 0.645035 -0.087325
H16   H     H_    0.654989 0.127706 0.634914 0.057704
H17   H     H_    0.307970 0.724300 0.621313 0.086227
H18   H     H_    0.431235 0.753630 0.674802 0.087566
H19   H     H_    0.293854 0.849865 0.593951 0.106529
H20   H     H_    0.296433 0.876249 0.660879 0.100998
H21   H     H_    0.483549 0.870999 0.627947 0.127252
H22   H     H_    0.747111 0.174650 0.692194 0.140235
H23   H     H_    0.244432 0.208272 0.721973 0.130098
H24   H     H_    0.123557 0.648629 0.350027 0.089114
H25   H     H_    0.913458 0.698548 0.349142 -0.052890
H26   H     H_    0.164129 0.764950 0.296266 0.146006
H27   H     H_    0.109601 0.671216 0.268487 0.141801
H28   H     H_    0.951790 0.757259 0.280302 0.123472
H29   H     H_    0.631367 0.735313 0.370281 -0.069798
H30   H     H_    0.453741 0.753035 0.409647 0.060028
H31   H     H_    0.513579 0.872884 0.376965 0.066310
H32   H     H_    0.312029 0.848447 0.358052 0.138917
H33   H     H_    0.224984 0.297431 0.657000 0.003928
H34   H     H_    0.476030 0.824566 0.313646 0.136090
H35   H     H_    0.144843 0.456524 0.282503 0.138186
H36   H     H_    0.067611 0.300236 0.107065 0.121507
H37   H     H_    0.170534 0.283872 0.856968 0.119548
H38   H     H_    0.117323 0.287663 0.943042 0.070892
H39   H     H_    0.124480 0.291408 0.020685 0.070828
H40   H     H_    0.936718 0.697775 0.133412 0.122048
H41   H     H_    0.107974 0.686299 0.980197 0.071523
H42   H     H_    0.317633 0.195873 0.635436 -0.035608
H43   H     H_    0.168406 0.677960 0.894515 0.123905
H44   H     H_    0.040941 0.542490 0.717612 0.138589
H45   H     H_    0.999980 0.693237 0.048496 0.070512
H46   H     H_    0.834617 0.547304 0.401639 0.093424
H47   H     H_    0.428270 0.989441 0.503521 0.079386
H48   H     H_    0.752562 0.155567 0.457871 0.079079
H49   H     H_    0.850880 0.899793 0.451417 0.068814
H50   H     H_    0.776433 0.021831 0.487698 0.078424
H51   H     H_    0.395921 0.105688 0.556396 0.064472
H52   H     H_    0.034329 0.247632 0.707643 0.184163
H53   H     H_    0.433802 0.861014 0.528766 0.077702
H54   H     H_    0.384847 0.339804 0.512007 0.071335
H55   H     H_    0.810399 0.668829 0.481224 0.052267
H56   H     H_    0.116657 0.146456 0.682601 0.079664
H57   H     H_    0.344806 0.291057 0.404906 0.003704
H58   H     H_    0.154566 0.308744 0.438711 0.054534
N1    N     N_R   0.939804 0.506180 0.203403 -0.409061
N2    N     N_R   0.230575 0.474754 0.792807 -0.410086
O1    O     O_2   0.906370 0.542040 0.619810 -0.416548
O2    O     O_3   0.659060 0.298474 0.388169 -0.640818
O3    O     O_3   0.081351 0.228974 0.607352 -0.573535
O4    O     O_2   0.283330 0.457940 0.380160 -0.466522
O5    O     O_3   0.051340 0.457960 0.440360 -0.497031
O6    O     O_3   0.503130 0.601610 0.416130 -0.497057
O7    O     O_3   0.140926 0.332693 0.365174 -0.637048
O8    O     O_3   0.616890 0.595000 0.528820 -0.408437
O9    O     O_3   0.087820 0.642040 0.442240 -0.497095
O10   O     O_2   0.180796 0.782226 0.478322 -0.495706
O11   O     O_3   0.088577 0.765966 0.383402 -0.605476
O12   O     O_3   0.138370 0.541980 0.559630 -0.477291
O13   O     O_3   0.572820 0.404940 0.471170 -0.485035
O14   O     O_2   0.345130 0.693150 0.532000 -0.467298
O15   O     O_3   0.560103 0.721148 0.610745 -0.596018
O16   O     O_2   0.401772 0.538917 0.324391 -0.462513
O17   O     O_3   0.420338 0.690410 0.338496 -0.565295
O18   O     O_2   0.989586 0.373030 0.192461 -0.588026
O19   O     O_2   0.218622 0.344015 0.782339 -0.592304
O20   O     O_2   0.890750 0.638816 0.207544 -0.592387
O21   O     O_2   0.229490 0.606631 0.808298 -0.576016
O22   O     O_3   0.686580 0.398330 0.583860 -0.453666
O23   O     O_2   0.786064 0.459318 0.675508 -0.407572
O24   O     O_3   0.034580 0.668546 0.629023 -0.614209
O25   O     O_3   0.771347 0.307252 0.661168 -0.552686
O26   O     O_2   0.844570 0.306830 0.467970 -0.460274
O27   O     O_3   0.101900 0.357890 0.557750 -0.480636
O28   O     O_2   0.063119 0.216013 0.508733 -0.489977
P1    P     P_3+3 0.071770 0.565500 0.613330 1.073236
P2    P     P_3+3 0.664870 0.318630 0.453960 0.974778
P3    P     P_3+3 0.157823 0.256227 0.554528 0.948923
P4    P     P_3+3 0.117940 0.434440 0.386660 0.994255
P5    P     P_3+3 0.052477 0.743877 0.442265 0.939154
P6    P     P_3+3 0.675820 0.399458 0.648480 1.128514
P7    P     P_3+3 0.532457 0.695237 0.545236 1.021753
P8    P     P_3+3 0.513596 0.598014 0.351393 1.006652
C67   C     C_3   0.298506 0.141864 0.407131 -0.268499
C68   C     C_3   0.261369 0.058156 0.388664 -0.398229
H59   H     H_    0.134436 0.052873 0.398139 0.138503
H60   H     H_    0.274755 0.042823 0.347331 0.137324
H61   H     H_    0.348920 0.015555 0.407160 0.132255
H62   H     H_    0.427145 0.145052 0.398249 0.118321
H63   H     H_    0.285203 0.154893 0.448199 0.149165
Cl1   Cl    Cl    0.570396 0.386372 0.764132 -0.648204
Cl2   Cl    Cl    0.586306 0.575863 0.229661 -0.635416
Cl3   Cl    Cl    0.475293 0.567306 0.632592 -0.656111

loop_
_geom_bond_atom_site_label_1
_geom_bond_atom_site_label_2
_ccdc_geom_bond_type
C25   C46   A    
C66   H12   S    
C5    O11   S    
C53   C54   D    
C23   H52   S    
C67   H63   S    
C67   C68   S    
C14   P4    S    
C7    H30   S    
C17   C18   A    
C65   H9    S    
C1    H11   S    
C58   P7    S    
C35   Cl1   S    
O1    P1    D    
C55   C60   A    
C38   H44   S    
C10   N1    Am   
C51   C52   D    
C11   Cl2   S    
C65   H10   S    
Ba2   O6    S    
C11   C16   D    
C1    H22   S    
C66   H13   S    
Ba1   P2    S    
O26   P2    D    
Ba1   O1    S    
C28   C29   A    
C45   C67   S    
C3    O15   S    
C54   P2    S    
C52   C61   S    
C5    H24   S    
C31   C47   A    
C64   H6    S    
C10   C20   A    
C22   C37   D    
C4    H20   S    
C34   C45   S    
C59   H53   S    
Ba1   Ba2   S    
Ba1   O27   S    
C60   C62   S    
C6    H28   S    
O24   P1    S    
C19   H36   S    
C25   C42   A    
C56   C64   S    
Ba1   O13   S    
C34   H57   S    
C56   O24   S    
C14   C15   D    
C44   H40   S    
C22   C36   S    
Ba1   O8    S    
C7    C8    S    
C47   H43   S    
C3    H17   S    
C50   P3    S    
C13   C21   S    
C2    O25   S    
C22   Cl3   S    
C62   H47   S    
O16   P8    D    
C68   H60   S    
C39   N2    S    
C33   N2    Am   
C6    H27   S    
Ba1   O5    S    
O15   P7    S    
C2    H1    S    
C32   O21   D    
C17   C41   A    
C31   C32   A    
C19   C43   A    
C12   O3    S    
C5    H25   S    
C9    C18   A    
C23   H23   S    
Ba2   O5    S    
O27   P3    S    
C65   C66   S    
C13   P8    S    
C26   C30   A    
C17   C20   A    
C6    H26   S    
O14   P7    D    
C61   H50   S    
C12   H33   S    
C33   O19   D    
C1    H16   S    
Ba2   O8    S    
C4    H19   S    
C49   C50   S    
O22   P6    S    
C58   C59   A    
C40   C43   A    
C49   H54   S    
C9    N1    Am   
C41   C42   A    
C45   H2    S    
C8    H31   S    
C35   C36   S    
C57   P5    S    
C16   N1    S    
C56   H4    S    
Ba2   O4    S    
C29   C30   A    
O11   P5    S    
O23   P6    D    
C64   H8    S    
C15   C16   S    
Ba1   O22   S    
O4    P4    D    
C8    H32   S    
C45   H3    S    
Ba1   O12   S    
C68   H61   S    
C3    H18   S    
Ba2   P4    S    
C46   C47   A    
C20   C44   A    
C58   C63   A    
C14   C21   D    
C11   C13   S    
C28   H37   S    
C68   H59   S    
Ba2   O14   S    
C29   C33   A    
C27   H38   S    
C65   O2    S    
C40   C41   A    
C1    C2    S    
C34   O7    S    
C37   C38   D    
C50   C51   S    
C24   C40   A    
C55   H49   S    
C42   C48   A    
C67   H62   S    
C12   H42   S    
O12   P1    S    
C52   C53   S    
O3    P3    S    
C7    H29   S    
O7    P4    S    
Ba2   O9    S    
O28   P3    D    
C34   H58   S    
C49   C54   D    
C55   C57   A    
Ba1   O26   S    
C51   H51   S    
C9    O18   D    
O17   P8    S    
C4    H21   S    
C44   C48   A    
C24   C26   A    
O25   P6    S    
O2    P2    S    
C48   H45   S    
C66   H14   S    
C30   C31   A    
O5    P4    S    
Ba1   P1    S    
C15   H35   S    
Ba2   O12   S    
C57   C63   A    
C21   H46   S    
O9    P5    S    
C10   O20   D    
C3    C4    S    
C2    H15   S    
C64   H7    S    
C8    H34   S    
C7    O17   S    
O6    P8    S    
C46   H41   S    
O10   P5    D    
C63   H55   S    
C12   C23   S    
C35   C39   D    
C59   C60   A    
C23   H56   S    
C5    C6    S    
C27   C28   A    
C61   C62   D    
O13   P2    S    
C36   P6    S    
C18   C19   A    
C24   C27   A    
C32   N2    Am   
C53   H48   S    
C25   C26   A    
Ba2   O13   S    
C38   C39   S    
C37   P1    S    
C43   H39   S    
C56   H5    S    
O8    P7    S    
