data_mof_unit_9722.cif
_audit_creation_date              2012-12-10T22:10:12-0500
_audit_creation_method            fapswitch 2.2
_symmetry_space_group_name_H-M    P1
_symmetry_Int_Tables_number       1
_space_group_crystal_system       triclinic
_cell_length_a                    16.396127
_cell_length_b                    16.466363
_cell_length_c                    28.870009
_cell_angle_alpha                 90.377041
_cell_angle_beta                  90.084497
_cell_angle_gamma                 91.747843
_cell_volume                      7790.65114069

loop_
_atom_site_label
_atom_site_type_symbol
_atom_type_description
_atom_site_fract_x
_atom_site_fract_y
_atom_site_fract_z
_atom_type_partial_charge
C1    C     C_R   0.621875 0.999764 0.558474 0.951876
C2    C     C_R   0.384313 0.000145 0.437500 0.987305
C3    C     C_R   0.927145 0.692173 0.125744 0.079101
C4    C     C_R   0.050341 0.240507 0.917685 0.071199
C5    C     C_R   0.039307 0.827207 0.116975 0.451990
C6    C     C_R   0.939213 0.239232 0.841947 0.415548
C7    C     C_R   0.049485 0.757605 0.088856 -0.065117
C8    C     C_R   0.948294 0.310206 0.869744 -0.043199
C9    C     C_R   0.922997 0.217931 0.141396 0.303710
C10   C     C_R   0.076146 0.751920 0.840521 0.348609
C11   C     C_R   0.930357 0.268827 0.102386 0.268183
C12   C     C_R   0.073071 0.683235 0.869820 0.285351
C13   C     C_R   0.210725 0.927702 0.358226 0.408765
C14   C     C_R   0.795492 0.076073 0.637917 0.400472
C15   C     C_R   0.261282 0.933151 0.397999 -0.059258
C16   C     C_R   0.737615 0.075874 0.601234 -0.087462
C17   C     C_R   0.795420 0.071509 0.363239 -0.046778
C18   C     C_R   0.237829 0.929605 0.655725 -0.077035
C19   C     C_R   0.721653 0.078326 0.388291 0.312575
C20   C     C_R   0.309306 0.934806 0.628825 0.303796
C21   C     C_3   0.999623 0.003499 0.249568 -0.109686
C22   C     C_3   0.000721 0.993087 0.751275 -0.111318
C23   C     C_R   0.612201 0.002274 0.435896 0.996322
C24   C     C_R   0.384470 0.998946 0.561966 0.977911
C25   C     C_R   0.201659 0.997707 0.331125 -0.236300
C26   C     C_R   0.813898 0.000992 0.658600 -0.264714
C27   C     C_R   0.321066 0.998113 0.400699 -0.263707
C28   C     C_R   0.698059 0.001033 0.587268 -0.321993
C29   C     C_R   0.814358 0.996129 0.343230 -0.149509
C30   C     C_R   0.194830 0.001103 0.663639 -0.159254
C31   C     C_R   0.674010 0.005645 0.397948 -0.354679
C32   C     C_R   0.318492 0.999787 0.596918 -0.395110
C33   C     C_R   0.992868 0.205281 0.168353 -0.146271
C34   C     C_R   0.002676 0.791199 0.830881 -0.185260
C35   C     C_R   0.996505 0.327256 0.100681 -0.430326
C36   C     C_R   0.004455 0.673351 0.900216 -0.448019
C37   C     C_R   0.980586 0.824299 0.152250 -0.087635
C38   C     C_R   0.994547 0.176257 0.847465 -0.096657
C39   C     C_R   0.991456 0.690643 0.092038 -0.115539
C40   C     C_R   0.003787 0.310229 0.908118 -0.117290
C41   C     C_1   0.075573 0.001870 0.275076 0.092952
C42   C     C_1   0.929703 0.995311 0.721484 0.114456
C43   C     C_1   0.995666 0.078359 0.223434 0.046013
C44   C     C_1   0.000739 0.917565 0.776341 0.009189
C45   C     C_R   0.253417 0.066612 0.337524 0.280419
C46   C     C_R   0.781918 0.926581 0.640939 0.347494
C47   C     C_1   0.933429 0.997002 0.282478 0.011592
C48   C     C_1   0.072494 0.998387 0.722328 0.080041
C49   C     C_1   0.992941 0.936502 0.217165 0.142386
C50   C     C_1   0.000476 0.059892 0.784371 0.118798
C51   C     C_1   0.134867 0.000396 0.299267 0.240806
C52   C     C_1   0.874862 0.998248 0.694115 0.266156
C53   C     C_1   0.986489 0.884391 0.188261 0.121855
C54   C     C_1   0.998256 0.113325 0.812784 0.107507
C55   C     C_1   0.993541 0.137357 0.199356 0.174918
C56   C     C_1   0.002022 0.857859 0.799581 0.140553
C57   C     C_1   0.879656 0.994017 0.310427 0.167794
C58   C     C_1   0.129279 0.000401 0.696378 0.145568
C59   C     C_R   0.994384 0.621328 0.058653 0.916566
C60   C     C_R   0.005183 0.379451 0.941158 0.902183
C61   C     C_R   0.998745 0.390435 0.064210 0.985856
C62   C     C_R   0.001568 0.609432 0.935892 0.967881
C63   C     C_R   0.321575 0.060150 0.366725 0.284658
C64   C     C_R   0.732155 0.926926 0.601232 0.331633
C65   C     C_R   0.765573 0.925854 0.350562 0.366653
C66   C     C_R   0.212963 0.072220 0.638635 0.355782
C67   C     C_R   0.690430 0.932771 0.373475 0.308114
C68   C     C_R   0.265044 0.066959 0.599882 0.291076
C69   C     C_R   0.064696 0.252890 0.161551 -0.035665
C70   C     C_R   0.931086 0.772755 0.855974 -0.036880
C71   C     C_R   0.060914 0.322771 0.133722 0.376814
C72   C     C_R   0.937975 0.726311 0.896291 0.380739
C73   C     C_R   0.920050 0.761953 0.154471 0.037676
C74   C     C_R   0.047042 0.173787 0.886243 0.056013
O1    O     O_R   0.588360 0.066690 0.547410 -0.657426
O2    O     O_R   0.411640 0.933310 0.452590 -0.634132
O3    O     O_R   0.586040 0.933310 0.452590 -0.548216
O4    O     O_R   0.413960 0.066690 0.547410 -0.563081
O5    O     O_R   0.587420 0.068270 0.453900 -0.549713
O6    O     O_R   0.412580 0.931730 0.546100 -0.577193
O7    O     O_R   0.586980 0.931730 0.546100 -0.517701
O8    O     O_R   0.413020 0.068270 0.453900 -0.533578
O9    O     O_R   0.063560 0.593880 0.045280 -0.618821
O10   O     O_R   0.936440 0.406120 0.954720 -0.595312
O11   O     O_R   0.931210 0.414910 0.046840 -0.565118
O12   O     O_R   0.068790 0.585090 0.953160 -0.560766
O13   O     O_R   0.067840 0.419730 0.049340 -0.565835
O14   O     O_R   0.932160 0.580270 0.950660 -0.566049
O15   O     O_R   0.926930 0.589050 0.042780 -0.594460
O16   O     O_R   0.073070 0.410950 0.957220 -0.613415
Zn1   Zn    Zn3+2 0.500930 0.090750 0.500880 1.160106
Zn2   Zn    Zn3+2 0.499070 0.909250 0.499120 1.202805
Zn3   Zn    Zn3+2 0.091890 0.503230 0.001680 1.096792
Zn4   Zn    Zn3+2 0.908110 0.496770 0.998320 1.094291
S1    S     S_3+6 0.412169 0.119399 0.355578 0.131504
O17   O     O_2   0.416811 0.190853 0.388252 -0.216615
O18   O     O_2   0.484801 0.067544 0.362843 -0.278926
O19   O     O_3   0.415312 0.152976 0.300744 -0.443619
H1    H     H_    0.466498 0.186297 0.298748 0.399891
S2    S     S_3+6 0.729991 0.841215 0.562803 0.119347
O20   O     O_2   0.656160 0.787845 0.572811 -0.192170
O21   O     O_2   0.726317 0.869591 0.513454 -0.300046
O22   O     O_3   0.814475 0.786797 0.568650 -0.475572
H2    H     H_    0.805441 0.738778 0.548231 0.391908
S3    S     S_3+6 0.804048 0.828837 0.335593 0.077759
O23   O     O_2   0.780515 0.808329 0.286601 -0.320527
O24   O     O_2   0.895502 0.830466 0.339485 -0.279559
O25   O     O_3   0.766622 0.756208 0.370993 -0.453621
H3    H     H_    0.785080 0.704475 0.357482 0.387436
S4    S     S_3+6 0.170394 0.165862 0.657105 0.106260
O26   O     O_2   0.084532 0.169593 0.639090 -0.212117
O27   O     O_2   0.168418 0.169639 0.709145 -0.295224
O28   O     O_3   0.225545 0.246850 0.638369 -0.460133
H4    H     H_    0.192919 0.294433 0.646679 0.392062
C75   C     C_3   0.146870 0.221047 0.176714 -0.245922
C76   C     C_3   0.184228 0.172973 0.136686 -0.446608
C77   C     C_3   0.261696 0.131191 0.151453 -0.638743
H5    H     H_    0.307423 0.176550 0.164985 0.280498
H6    H     H_    0.247399 0.085308 0.178515 0.294714
H7    H     H_    0.288183 0.099656 0.121140 0.241715
H8    H     H_    0.139582 0.125926 0.123880 0.275918
H9    H     H_    0.199010 0.214745 0.107608 0.245915
H10   H     H_    0.190469 0.269958 0.187565 0.284611
H11   H     H_    0.140121 0.181421 0.207414 0.238915
C78   C     C_3   0.847669 0.800644 0.839642 -0.298853
C79   C     C_3   0.794889 0.727906 0.822468 -0.364147
C80   C     C_3   0.706791 0.751492 0.814099 -0.706176
H12   H     H_    0.678316 0.770380 0.847197 0.266366
H13   H     H_    0.704114 0.802183 0.789081 0.297521
H14   H     H_    0.671344 0.698481 0.799838 0.254276
H15   H     H_    0.820862 0.704177 0.789679 0.243393
H16   H     H_    0.794519 0.678286 0.848273 0.250708
H17   H     H_    0.815517 0.833315 0.867272 0.268666
H18   H     H_    0.852490 0.844590 0.810828 0.219732
C81   C     C_3   0.845473 0.773759 0.185381 -0.353604
C82   C     C_3   0.769906 0.791609 0.155940 -0.398630
C83   C     C_3   0.694521 0.802513 0.186005 -0.668698
H19   H     H_    0.682033 0.747308 0.207060 0.272976
H20   H     H_    0.703453 0.856031 0.209277 0.297370
H21   H     H_    0.640823 0.812742 0.163544 0.245973
H22   H     H_    0.781755 0.848323 0.136020 0.261330
H23   H     H_    0.756760 0.741935 0.130614 0.231500
H24   H     H_    0.835069 0.721178 0.208676 0.226770
H25   H     H_    0.854134 0.825770 0.209512 0.241753
C84   C     C_3   0.093473 0.096117 0.895125 -0.424613
C85   C     C_3   0.035786 0.029459 0.914652 -0.317024
C86   C     C_3   0.080057 0.950763 0.922871 -0.795562
H26   H     H_    0.108273 0.929360 0.890302 0.290974
H27   H     H_    0.128132 0.960197 0.949675 0.273296
H28   H     H_    0.035697 0.903155 0.934833 0.271102
H29   H     H_    0.009539 0.050365 0.947988 0.253211
H30   H     H_    0.984586 0.016452 0.890197 0.236851
H31   H     H_    0.121807 0.074679 0.862490 0.225866
H32   H     H_    0.145611 0.105562 0.919033 0.211133
S5    S     S_3+6 0.097569 0.920734 0.108801 -0.010228
O29   O     O_2   0.045799 0.991799 0.120516 -0.317876
O30   O     O_2   0.169865 0.921143 0.140877 -0.305586
O31   O     O_3   0.130631 0.934041 0.054215 -0.591942
H33   H     H_    0.162638 0.986045 0.054894 0.378116
S6    S     S_3+6 0.856017 0.227614 0.801813 0.069606
O32   O     O_2   0.843283 0.141992 0.784445 -0.232104
O33   O     O_2   0.778357 0.251712 0.825212 -0.305741
O34   O     O_3   0.875781 0.289382 0.756678 -0.495098
H34   H     H_    0.825427 0.319968 0.751799 0.380891
S7    S     S_3+6 0.828497 0.168434 0.156655 0.094147
O35   O     O_2   0.828624 0.081736 0.140065 -0.196674
O36   O     O_2   0.818753 0.168588 0.208368 -0.355363
O37   O     O_3   0.748228 0.214879 0.133586 -0.432406
H35   H     H_    0.749492 0.269757 0.147898 0.355851
S8    S     S_3+6 0.170931 0.790743 0.817514 0.036019
O38   O     O_2   0.186250 0.749785 0.771889 -0.279879
O39   O     O_2   0.169455 0.880935 0.810100 -0.358856
O40   O     O_3   0.248420 0.772827 0.853861 -0.485535
H36   H     H_    0.298463 0.787277 0.836189 0.395768
S9    S     S_3+6 0.159011 0.834289 0.342315 0.038539
O41   O     O_2   0.139524 0.831245 0.291421 -0.269425
O42   O     O_2   0.211977 0.763970 0.353374 -0.277942
O43   O     O_3   0.071752 0.825800 0.372641 -0.533082
H37   H     H_    0.051296 0.769378 0.366991 0.409403
S10   S     S_3+6 0.834726 0.169967 0.663129 0.066500
O44   O     O_2   0.770579 0.198269 0.696105 -0.264053
O45   O     O_2   0.912498 0.158880 0.689546 -0.203388
O46   O     O_3   0.854694 0.244269 0.624759 -0.565829
H38   H     H_    0.861431 0.294515 0.643613 0.398151
C87   C     C_3   0.860147 0.140481 0.362536 -0.354316
C88   C     C_3   0.861152 0.187836 0.316714 -0.251080
C89   C     C_3   0.913139 0.266003 0.320662 -0.753917
H39   H     H_    0.887317 0.307172 0.347109 0.281354
H40   H     H_    0.976735 0.251978 0.330398 0.277969
H41   H     H_    0.914213 0.297530 0.286763 0.259571
H42   H     H_    0.887247 0.150595 0.288813 0.229612
H43   H     H_    0.798469 0.202603 0.305772 0.289085
H44   H     H_    0.853204 0.181892 0.392584 0.229680
H45   H     H_    0.921445 0.115054 0.368118 0.193914
C90   C     C_3   0.205995 0.849300 0.675645 -0.287146
C91   C     C_3   0.128233 0.818757 0.650305 -0.432073
C92   C     C_3   0.086927 0.747630 0.675587 -0.655200
H46   H     H_    0.130369 0.697958 0.680567 0.276543
H47   H     H_    0.063945 0.767996 0.709785 0.273887
H48   H     H_    0.034369 0.723667 0.654823 0.269378
H49   H     H_    0.083534 0.867690 0.646939 0.246596
H50   H     H_    0.144685 0.798378 0.614878 0.242070
H51   H     H_    0.250342 0.800336 0.672530 0.280889
H52   H     H_    0.193926 0.858130 0.713052 0.265427
S11   S     S_3+6 0.610903 0.857470 0.363919 0.124647
O47   O     O_2   0.613603 0.794184 0.401143 -0.208638
O48   O     O_2   0.529083 0.896228 0.365011 -0.272690
O49   O     O_3   0.620895 0.812386 0.311921 -0.489290
H53   H     H_    0.578218 0.768508 0.311183 0.388097
S12   S     S_3+6 0.257409 0.140194 0.554471 0.086381
O50   O     O_2   0.320703 0.206950 0.562099 -0.219804
O51   O     O_2   0.271023 0.102071 0.507901 -0.355085
O52   O     O_3   0.164345 0.180301 0.553373 -0.472318
H54   H     H_    0.168657 0.224942 0.530594 0.389614
S13   S     S_3+6 0.134851 0.403400 0.143243 0.019409
O53   O     O_2   0.210398 0.386114 0.115921 -0.309550
O54   O     O_2   0.103817 0.484582 0.129413 -0.314644
O55   O     O_3   0.158533 0.409148 0.199933 -0.533397
H55   H     H_    0.205973 0.447745 0.201815 0.404268
S14   S     S_3+6 0.871356 0.746717 0.943801 0.004353
O56   O     O_2   0.793109 0.697717 0.938156 -0.292600
O57   O     O_2   0.909930 0.726498 0.989224 -0.330943
O58   O     O_3   0.850783 0.846157 0.945802 -0.577358
H56   H     H_    0.810736 0.851442 0.971217 0.397807
C93   C     C_3   0.869212 0.617915 0.133256 -0.432635
C94   C     C_3   0.914090 0.544550 0.152123 -0.307992
C95   C     C_3   0.855598 0.472391 0.160984 -0.822538
H57   H     H_    0.809184 0.488643 0.187164 0.268700
H58   H     H_    0.824481 0.453167 0.128326 0.278286
H59   H     H_    0.890309 0.420488 0.174231 0.252222
H60   H     H_    0.960247 0.524706 0.127084 0.242498
H61   H     H_    0.945588 0.561816 0.185025 0.253840
H62   H     H_    0.819818 0.629375 0.158012 0.208587
H63   H     H_    0.834700 0.602120 0.101352 0.238839
C96   C     C_3   0.098332 0.234875 0.962936 -0.369099
C97   C     C_3   0.188394 0.261037 0.956702 -0.350350
C98   C     C_3   0.234440 0.257392 0.002583 -0.804138
H64   H     H_    0.207223 0.298891 0.028393 0.287653
H65   H     H_    0.232132 0.194439 0.016237 0.249303
H66   H     H_    0.299253 0.276487 0.997248 0.268086
H67   H     H_    0.218392 0.221320 0.931095 0.224856
H68   H     H_    0.193342 0.324011 0.943327 0.265697
H69   H     H_    0.071167 0.272171 0.990666 0.223101
H70   H     H_    0.093167 0.172567 0.977262 0.206575
C99   C     C_3   0.124684 0.754549 0.057865 -0.313680
C100  C     C_3   0.104037 0.771973 0.007139 -0.307809
C101  C     C_3   0.180900 0.783059 0.977905 -0.733547
H71   H     H_    0.216925 0.837571 0.989667 0.269386
H72   H     H_    0.219104 0.728783 0.980671 0.286870
H73   H     H_    0.163687 0.791300 0.941075 0.272340
H74   H     H_    0.066917 0.721207 0.992701 0.235565
H75   H     H_    0.067026 0.827012 0.004502 0.279117
H76   H     H_    0.173285 0.797658 0.070055 0.260542
H77   H     H_    0.155921 0.696357 0.061422 0.216670
C102  C     C_3   0.899254 0.385787 0.858046 -0.365414
C103  C     C_3   0.953877 0.458660 0.844237 -0.316021
C104  C     C_3   0.904686 0.526793 0.823432 -0.859647
H78   H     H_    0.873915 0.505825 0.791011 0.273217
H79   H     H_    0.858192 0.546869 0.848609 0.261966
H80   H     H_    0.946037 0.579335 0.815141 0.261121
H81   H     H_    0.984472 0.483187 0.875414 0.240561
H82   H     H_    0.000462 0.439578 0.818766 0.270103
H83   H     H_    0.857210 0.376005 0.828808 0.259427
H84   H     H_    0.858356 0.401903 0.886954 0.234986
S15   S     S_3+6 0.865829 0.249535 0.053229 0.081095
O59   O     O_2   0.796471 0.307168 0.054025 -0.264659
O60   O     O_2   0.913550 0.261477 0.009349 -0.343076
O61   O     O_3   0.828032 0.153473 0.052742 -0.444080
H85   H     H_    0.790939 0.150273 0.025636 0.390801
S16   S     S_3+6 0.154062 0.611678 0.867644 0.082878
O62   O     O_2   0.215896 0.633805 0.904432 -0.259905
O63   O     O_2   0.123385 0.526292 0.875862 -0.338195
O64   O     O_3   0.200511 0.611423 0.815831 -0.452972
H86   H     H_    0.250327 0.579874 0.820433 0.391029
C105  C     C_3   0.247770 0.872859 0.437726 -0.307688
C106  C     C_3   0.219819 0.915367 0.482143 -0.354824
C107  C     C_3   0.197258 0.854772 0.520083 -0.821460
H87   H     H_    0.146108 0.813616 0.508634 0.278894
H88   H     H_    0.250771 0.818283 0.529231 0.284307
H89   H     H_    0.177783 0.888559 0.551364 0.248220
H90   H     H_    0.269287 0.955535 0.495682 0.239371
H91   H     H_    0.166056 0.952668 0.474546 0.261385
H92   H     H_    0.199228 0.827034 0.429694 0.268157
H93   H     H_    0.303015 0.837374 0.443957 0.238613
C108  C     C_3   0.727143 0.151950 0.572415 -0.284137
C109  C     C_3   0.666346 0.210803 0.593961 -0.287799
C110  C     C_3   0.638419 0.272742 0.558690 -0.721367
H94   H     H_    0.691841 0.306876 0.544125 0.275819
H95   H     H_    0.603897 0.241713 0.530194 0.289893
H96   H     H_    0.597745 0.316455 0.575816 0.249186
H97   H     H_    0.611916 0.176938 0.607516 0.243148
H98   H     H_    0.694876 0.244331 0.623431 0.271305
H99   H     H_    0.786499 0.182403 0.565236 0.241204
H100  H     H_    0.709197 0.134961 0.536722 0.225440
S17   S     S_3+6 0.686318 0.178001 0.402861 0.068653
O65   O     O_2   0.726080 0.244829 0.375018 -0.296129
O66   O     O_2   0.596302 0.182238 0.394316 -0.146490
O67   O     O_3   0.705013 0.197393 0.459047 -0.569522
H101  H     H_    0.765205 0.197879 0.462006 0.334498
S18   S     S_3+6 0.390359 0.867561 0.640363 0.065242
O68   O     O_2   0.380792 0.793987 0.609544 -0.236375
O69   O     O_2   0.472167 0.908305 0.631655 -0.274369
O70   O     O_3   0.388365 0.837690 0.695997 -0.505180
H102  H     H_    0.391248 0.888753 0.714341 0.362409
S19   S     S_3+6 0.230912 0.160707 0.310652 0.074750
O71   O     O_2   0.262764 0.159848 0.261963 -0.252663
O72   O     O_2   0.140373 0.172511 0.309177 -0.359640
O73   O     O_3   0.274459 0.239864 0.339420 -0.420797
H103  H     H_    0.248869 0.238614 0.370481 0.364103
S20   S     S_3+6 0.802418 0.834015 0.670314 0.061558
O74   O     O_2   0.886093 0.807258 0.657086 -0.294189
O75   O     O_2   0.800346 0.848188 0.721737 -0.364241
O76   O     O_3   0.733102 0.760006 0.657332 -0.445881
H104  H     H_    0.751196 0.711839 0.674480 0.380067

loop_
_geom_bond_atom_site_label_1
_geom_bond_atom_site_label_2
_ccdc_geom_bond_type
C78   H18   S    
C33   C55   S    
C66   C68   A    
C49   C53   T    
O3    Zn2   S    
C34   C56   S    
C79   C80   S    
C40   C60   S    
C103  H82   S    
S5    O30   D    
C17   C29   A    
C74   C84   S    
C22   C48   S    
S1    O17   D    
C45   S19   S    
C87   H45   S    
S13   O53   D    
C68   S12   S    
O76   H104  S    
C46   S20   S    
C77   H6    S    
S14   O57   D    
C84   C85   S    
C87   C88   S    
S1    O19   S    
C81   C82   S    
S9    O42   D    
C100  H75   S    
S11   O47   D    
O25   H3    S    
C31   C67   A    
S3    O24   D    
C19   S17   S    
S7    O35   D    
C76   H9    S    
C109  H97   S    
C93   H63   S    
C86   H27   S    
C59   O9    A    
C85   C86   S    
C5    C37   A    
S13   O54   D    
C20   C32   A    
C109  C110  S    
O19   H1    S    
C94   H61   S    
C101  H73   S    
C90   H51   S    
C106  H90   S    
S4    O27   D    
C1    O7    A    
C94   H60   S    
O9    Zn3   S    
C63   S1    S    
C102  C103  S    
O15   Zn4   S    
S16   O63   D    
C76   C77   S    
S8    O40   S    
C108  C109  S    
C92   H47   S    
C104  H78   S    
C59   O15   A    
C97   H68   S    
C88   H42   S    
C69   C71   A    
S4    O26   D    
S2    O21   D    
C89   H41   S    
C82   H23   S    
C61   O13   A    
C86   H26   S    
C17   C19   A    
C21   C43   S    
O7    Zn2   S    
S1    O18   D    
C24   O6    A    
C22   C44   S    
C73   C81   S    
S18   O69   D    
O49   H53   S    
C65   C67   A    
C108  H100  S    
C22   C42   S    
C1    C28   S    
C96   C97   S    
C6    C38   A    
C2    C27   S    
C18   C30   A    
O43   H37   S    
C12   C36   A    
C105  H92   S    
S15   O59   D    
C3    C93   S    
C4    C74   A    
C16   C28   A    
C67   S11   S    
S18   O70   S    
C33   C69   A    
C32   C68   A    
C84   H31   S    
C81   H24   S    
C88   C89   S    
C19   C31   A    
S7    O36   D    
O70   H102  S    
O40   H36   S    
C103  H81   S    
S5    O31   S    
C9    C33   A    
C10   C34   A    
S16   O64   S    
C13   C25   A    
C23   O5    A    
C36   C62   S    
C10   C12   A    
C65   S3    S    
S14   O56   D    
C83   H21   S    
S10   O45   D    
O64   H86   S    
S9    O43   S    
O14   Zn4   S    
C100  H74   S    
C101  H72   S    
C12   S16   S    
C72   S14   S    
S3    O25   S    
S20   O75   D    
C75   H10   S    
C76   H8    S    
C109  H98   S    
C1    O1    A    
S6    O34   S    
C4    C40   A    
C86   H28   S    
C60   O16   A    
O58   H56   S    
S17   O66   D    
C97   C98   S    
C21   C41   S    
C77   H7    S    
C87   H44   S    
S17   O65   D    
C5    C7    A    
C82   C83   S    
C6    C8    A    
C90   H52   S    
C69   C75   S    
S19   O72   D    
O52   H54   S    
C62   O14   A    
C45   C63   A    
S2    O22   S    
C66   S4    S    
O8    Zn1   S    
C90   C91   S    
C107  H89   S    
C46   C64   A    
C104  H79   S    
C23   C31   S    
C97   H67   S    
O6    Zn2   S    
C92   H48   S    
O46   H38   S    
C80   H13   S    
C11   C35   A    
C82   H22   S    
O12   Zn3   S    
C26   C52   S    
C47   C57   T    
C9    C11   A    
O11   Zn4   S    
C44   C56   T    
C15   C27   A    
C95   H57   S    
C38   C54   S    
C13   C15   A    
C79   H16   S    
S18   O68   D    
S19   O73   S    
C39   C59   S    
C103  C104  S    
C14   C26   A    
C110  H95   S    
C93   C94   S    
C11   S15   S    
C110  H96   S    
S20   O74   D    
C35   C61   S    
O10   Zn4   S    
C23   O3    A    
C15   C105  S    
C105  H93   S    
S15   O60   D    
S4    O28   S    
C96   H69   S    
C30   C66   A    
C61   O11   A    
O2    Zn2   S    
C85   H30   S    
C21   C49   S    
C28   C64   A    
C70   C78   S    
C24   O4    A    
C81   H25   S    
C95   H58   S    
C105  C106  S    
C102  H83   S    
C94   C95   S    
S7    O37   S    
S12   O51   D    
C107  H88   S    
C110  H94   S    
C78   C79   S    
C4    C96   S    
C14   C16   A    
S13   O55   S    
O67   H101  S    
C84   H32   S    
C91   H50   S    
C106  H91   S    
C25   C45   A    
S5    O29   D    
C2    O2    A    
O73   H103  S    
C62   O12   A    
O16   Zn3   S    
O28   H4    S    
C38   C74   A    
S11   O49   S    
C78   H17   S    
C13   S9    S    
C34   C70   A    
C100  C101  S    
O37   H35   S    
S3    O23   D    
C75   H11   S    
C42   C52   T    
C18   C90   S    
C83   H20   S    
O5    Zn1   S    
S20   O76   S    
C29   C57   S    
C91   C92   S    
C6    S6    S    
C101  H71   S    
S10   O46   S    
C29   C65   A    
C48   C58   T    
C43   C55   T    
O1    Zn1   S    
O4    Zn1   S    
C10   S8    S    
S12   O52   S    
C8    C40   A    
C83   H19   S    
C7    C99   S    
C8    C102  S    
C37   C73   A    
C25   C51   S    
C22   C50   S    
C104  H80   S    
C93   H62   S    
S6    O32   D    
C98   H65   S    
C16   C108  S    
C80   H14   S    
C37   C53   S    
C89   H39   S    
C50   C54   T    
S9    O41   D    
C5    S5    S    
C77   H5    S    
C106  C107  S    
C60   O10   A    
O55   H55   S    
O31   H33   S    
C99   H76   S    
C79   H15   S    
C71   S13   S    
S10   O44   D    
O13   Zn3   S    
C9    S7    S    
S17   O67   S    
C20   S18   S    
C18   C20   A    
S12   O50   D    
C88   H43   S    
C92   H46   S    
C17   C87   S    
S15   O61   S    
C98   H64   S    
C96   H70   S    
C89   H40   S    
O34   H34   S    
C2    O8    A    
C107  H87   S    
C26   C46   A    
C99   H77   S    
C35   C71   A    
C85   H29   S    
C36   C72   A    
C64   S2    S    
C95   H59   S    
C70   C72   A    
C102  H84   S    
S19   O71   D    
S8    O38   D    
C98   H66   S    
C108  H99   S    
O22   H2    S    
C7    C39   A    
S16   O62   D    
C27   C63   A    
C30   C58   S    
S2    O20   D    
S8    O39   D    
C3    C73   A    
C75   C76   S    
C91   H49   S    
C99   C100  S    
S11   O48   D    
C41   C51   T    
S14   O58   S    
C14   S10   S    
C3    C39   A    
C80   H12   S    
S6    O33   D    
O61   H85   S    
C21   C47   S    
C24   C32   S    
