data_mof_unit_41203.cif
_audit_creation_date              2013-03-05T16:45:09-0500
_audit_creation_method            fapswitch 2.2
_symmetry_space_group_name_H-M    P1
_symmetry_Int_Tables_number       1
_space_group_crystal_system       triclinic
_cell_length_a                    14.836736
_cell_length_b                    15.31703
_cell_length_c                    9.907214
_cell_angle_alpha                 89.838397
_cell_angle_beta                  90.468411
_cell_angle_gamma                 90.199274
_cell_volume                      2251.36361511

loop_
_atom_site_label
_atom_site_type_symbol
_atom_site_description
_atom_site_fract_x
_atom_site_fract_y
_atom_site_fract_z
_atom_type_partial_charge
O1    O     O_R   0.408400 0.908380 0.614690 -0.650141
O2    O     O_R   0.408400 0.091620 0.614690 -0.623252
O3    O     O_R   0.908400 0.408380 0.614690 -0.650179
O4    O     O_R   0.908400 0.591620 0.614690 -0.623256
O5    O     O_R   0.408370 0.908370 0.385350 -0.612961
O6    O     O_R   0.408370 0.091630 0.385350 -0.615272
O7    O     O_R   0.908370 0.408370 0.385350 -0.612953
O8    O     O_R   0.908370 0.591630 0.385350 -0.615278
C1    C     C_R   0.386226 0.874606 0.500307 0.870542
C2    C     C_R   0.380674 0.120291 0.499263 0.904237
C3    C     C_R   0.886216 0.374615 0.500304 0.870437
C4    C     C_R   0.880676 0.620292 0.499262 0.904251
Zn1   Zn    Zn3+2 0.500010 0.000000 0.653130 0.921267
Zn2   Zn    Zn3+2 0.000010 0.500000 0.653130 0.921259
Zn3   Zn    Zn3+2 0.499980 0.000000 0.346870 0.932986
Zn4   Zn    Zn3+2 0.999980 0.500000 0.346870 0.933010
O9    O     O_R   0.591610 0.091610 0.614650 -0.617971
O10   O     O_R   0.591610 0.908390 0.614650 -0.636437
O11   O     O_R   0.091610 0.591610 0.614650 -0.617966
O12   O     O_R   0.091610 0.408390 0.614650 -0.636428
O13   O     O_R   0.591590 0.091600 0.385310 -0.627315
O14   O     O_R   0.591590 0.908400 0.385310 -0.620803
O15   O     O_R   0.091590 0.591600 0.385310 -0.627295
O16   O     O_R   0.091590 0.408400 0.385310 -0.620765
C5    C     C_R   0.621099 0.119430 0.499745 0.894303
C6    C     C_R   0.620485 0.880774 0.499882 0.874886
C7    C     C_R   0.121104 0.619427 0.499742 0.894307
C8    C     C_R   0.120480 0.380767 0.499882 0.874833
C9    C     C_R   0.330505 0.262575 0.575534 0.108413
C10   C     C_R   0.312356 0.752913 0.622142 0.028686
C11   C     C_R   0.830503 0.762573 0.575568 0.108444
C12   C     C_R   0.812350 0.252920 0.622097 0.028733
C13   C     C_R   0.318151 0.189431 0.494394 -0.163021
C14   C     C_R   0.338017 0.793421 0.500870 -0.155537
C15   C     C_R   0.818169 0.689444 0.494389 -0.163017
C16   C     C_R   0.837986 0.293449 0.500853 -0.155474
C17   C     C_R   0.249455 0.187562 0.396751 -0.215555
C18   C     C_R   0.309665 0.757405 0.377356 -0.194278
C19   C     C_R   0.749497 0.687604 0.396727 -0.215617
C20   C     C_R   0.809594 0.257469 0.377360 -0.194307
H1    H     H_    0.242788 0.133817 0.326427 0.158808
H2    H     H_    0.334665 0.781392 0.281664 0.177437
H3    H     H_    0.742848 0.633880 0.326378 0.158836
H4    H     H_    0.834565 0.281483 0.281684 0.177502
C21   C     C_R   0.684607 0.752046 0.397469 -0.211493
C22   C     C_R   0.739662 0.197452 0.376289 -0.217013
C23   C     C_R   0.184565 0.252004 0.397486 -0.211540
C24   C     C_R   0.239730 0.697389 0.376273 -0.216913
H5    H     H_    0.628266 0.747859 0.327412 0.159355
H6    H     H_    0.714489 0.173847 0.280100 0.172702
H7    H     H_    0.128204 0.247798 0.327449 0.159355
H8    H     H_    0.214586 0.673759 0.280063 0.172665
C25   C     C_R   0.689510 0.817626 0.495510 -0.081193
C26   C     C_R   0.697695 0.175705 0.498292 -0.097661
C27   C     C_R   0.189491 0.317604 0.495515 -0.081218
C28   C     C_R   0.197717 0.675686 0.498285 -0.097769
C29   C     C_R   0.766476 0.826869 0.575205 0.039390
C30   C     C_R   0.737435 0.200504 0.619336 0.087856
C31   C     C_R   0.266468 0.326872 0.575174 0.039441
C32   C     C_R   0.237427 0.700506 0.619365 0.087998
C33   C     C_3   0.776066 0.842193 0.722832 -0.571024
C34   C     C_3   0.696676 0.243607 0.738678 -0.502164
C35   C     C_3   0.276050 0.342178 0.722805 -0.570976
C36   C     C_3   0.196608 0.743677 0.738621 -0.502071
C37   C     C_3   0.344777 0.269417 0.724509 0.356511
C38   C     C_3   0.285427 0.791599 0.755895 0.308563
C39   C     C_3   0.844791 0.769419 0.724535 0.356546
C40   C     C_3   0.785475 0.291573 0.755885 0.308489
H9    H     H_    0.806064 0.907383 0.743810 0.229190
H10   H     H_    0.680048 0.198500 0.822030 0.222847
H11   H     H_    0.306045 0.407366 0.743791 0.229185
H12   H     H_    0.179895 0.698608 0.822009 0.222800
H13   H     H_    0.714095 0.825728 0.779800 0.187329
H14   H     H_    0.640633 0.287723 0.708374 0.172589
H15   H     H_    0.214071 0.325708 0.779753 0.187374
H16   H     H_    0.140602 0.787818 0.708176 0.172581
H17   H     H_    0.320489 0.210566 0.778089 0.058505
H18   H     H_    0.277720 0.863411 0.758092 0.100018
H19   H     H_    0.820494 0.710574 0.778126 0.058478
H20   H     H_    0.777734 0.363379 0.758104 0.100105
C41   C     C_R   0.423561 0.979535 0.070439 0.214043
C42   C     C_R   0.923562 0.479535 0.070439 0.214130
N1    N     N_R   0.499140 0.000000 0.142800 -0.133854
N2    N     N_R   0.999140 0.500000 0.142800 -0.133866
C43   C     C_R   0.577380 0.009175 0.074891 -0.154921
C44   C     C_R   0.077381 0.509178 0.074890 -0.154917
H21   H     H_    0.639426 0.017337 0.131932 0.163376
H22   H     H_    0.139428 0.517343 0.131930 0.163376
C45   C     C_R   0.578561 0.007243 0.931828 0.214859
C46   C     C_R   0.078562 0.507247 0.931827 0.214751
N3    N     N_R   0.499160 0.000000 0.857150 -0.126071
N4    N     N_R   0.999160 0.500000 0.857150 -0.126087
C47   C     C_R   0.423284 0.979972 0.928519 0.151459
C48   C     C_R   0.923286 0.479964 0.928518 0.151748
C49   C     C_3   0.334711 0.025726 0.924507 -0.505513
C50   C     C_3   0.834710 0.525711 0.924500 -0.505603
C51   C     C_3   0.335080 0.024343 0.077664 -0.498830
C52   C     C_3   0.835085 0.524347 0.077657 -0.498897
H23   H     H_    0.340248 0.091990 0.882954 0.199822
H24   H     H_    0.279519 0.985882 0.880355 0.197882
H25   H     H_    0.840242 0.591966 0.882919 0.199831
H26   H     H_    0.779519 0.485858 0.880365 0.197888
H27   H     H_    0.339801 0.090411 0.123147 0.215437
H28   H     H_    0.282029 0.981407 0.120861 0.203424
H29   H     H_    0.839812 0.590421 0.123116 0.215414
H30   H     H_    0.782033 0.481421 0.120871 0.203437
O17   O     O_3   0.432118 0.300894 0.757041 -0.626492
C53   C     C_3   0.465106 0.261756 0.877230 0.098555
H31   H     H_    0.536725 0.281378 0.888854 0.166869
H32   H     H_    0.464492 0.189292 0.869964 0.145143
C54   C     C_3   0.414609 0.293094 0.003037 -0.415760
H33   H     H_    0.411645 0.365596 0.002851 0.240056
H34   H     H_    0.344538 0.267281 0.002138 0.209385
C55   C     C_3   0.461499 0.262285 0.132397 -0.898875
H35   H     H_    0.468546 0.190165 0.132547 0.273514
H36   H     H_    0.421136 0.281673 0.221285 0.273109
H37   H     H_    0.529506 0.292384 0.141304 0.258971
O18   O     O_3   0.331123 0.755928 0.870147 -0.636313
C56   C     C_3   0.425945 0.765122 0.864251 0.101380
H38   H     H_    0.449962 0.789349 0.963888 0.142791
H39   H     H_    0.449333 0.812968 0.788551 0.175651
C57   C     C_3   0.469233 0.676141 0.838555 -0.335112
H40   H     H_    0.454544 0.631743 0.924662 0.225278
H41   H     H_    0.440153 0.646667 0.745458 0.230356
C58   C     C_3   0.571208 0.684308 0.822070 -0.976780
H42   H     H_    0.586849 0.724572 0.731727 0.272204
H43   H     H_    0.600954 0.618513 0.808178 0.269349
H44   H     H_    0.602245 0.714770 0.913042 0.258768
O19   O     O_3   0.932139 0.800889 0.757042 -0.626494
C59   C     C_3   0.965132 0.761764 0.877235 0.098572
H45   H     H_    0.036757 0.781368 0.888827 0.166869
H46   H     H_    0.964495 0.689299 0.870004 0.145126
C60   C     C_3   0.914664 0.793140 0.003040 -0.415738
H47   H     H_    0.911735 0.865643 0.002834 0.240054
H48   H     H_    0.844582 0.767357 0.002163 0.209428
C61   C     C_3   0.961555 0.762325 0.132393 -0.898947
H49   H     H_    0.968547 0.690200 0.132578 0.273520
H50   H     H_    0.921225 0.781760 0.221283 0.273115
H51   H     H_    0.029584 0.792379 0.141259 0.258988
O20   O     O_3   0.831243 0.255933 0.870085 -0.636342
C62   C     C_3   0.926050 0.265009 0.863954 0.101599
H52   H     H_    0.950194 0.289371 0.963412 0.142747
H53   H     H_    0.949417 0.312696 0.788017 0.175761
C63   C     C_3   0.969193 0.175938 0.838545 -0.335602
H54   H     H_    0.954766 0.131781 0.925026 0.225225
H55   H     H_    0.939796 0.146231 0.745889 0.230684
C64   C     C_3   0.071072 0.184004 0.821277 -0.977079
H56   H     H_    0.086437 0.224005 0.730575 0.272299
H57   H     H_    0.100729 0.118156 0.807656 0.269459
H58   H     H_    0.102402 0.214709 0.911775 0.258808
C65   C     C_3   0.670416 0.008629 0.870932 -0.883120
H59   H     H_    0.706862 0.068743 0.900559 0.228281
H60   H     H_    0.709291 0.953473 0.914289 0.209156
H61   H     H_    0.670684 0.002386 0.761123 0.298934
C66   C     C_3   0.170420 0.508649 0.870923 -0.883008
H62   H     H_    0.206854 0.568783 0.900521 0.228363
H63   H     H_    0.209312 0.453502 0.914277 0.209117
H64   H     H_    0.170683 0.502395 0.761113 0.298921

loop_
_geom_bond_atom_site_label_1
_geom_bond_atom_site_label_2
_geom_bond_distance
_ccdc_geom_bond_type
C30   C34   1.489423 S    
C35   C37   1.513158 S    
C40   H20   1.106534 S    
C42   C48   1.406011 A    
C27   C31   1.390006 A    
C66   H63   1.108254 S    
C59   H46   1.112459 S    
C54   H33   1.111534 S    
O10   C6    1.291217 A    
C12   C30   1.369000 A    
C55   H35   1.109967 S    
O7    C3    1.293833 A    
C52   H29   1.110658 S    
C41   C51   1.485802 S    
Zn1   O10   1.996509 S    
C12   C16   1.405167 A    
C3    C16   1.432317 S    
C64   H57   1.110809 S    
N2    C44   1.353171 A    
C18   H2    1.083600 S    
C50   H26   1.107480 S    
C61   H51   1.110816 S    
C49   H23   1.097269 S    
C9    C13   1.391481 A    
Zn4   N2    2.021703 S    
C53   H31   1.108445 S    
C34   H10   1.104107 S    
C65   H61   1.092410 S    
O2    Zn1   1.990882 S    
O18   C56   1.415061 S    
C64   H56   1.110916 S    
O6    Zn3   1.996826 S    
Zn3   O14   1.990666 S    
C9    C31   1.370792 A    
C50   C52   1.517411 S    
C58   H44   1.111832 S    
C65   H59   1.105369 S    
O15   C7    1.285311 A    
C17   C23   1.381298 A    
O11   C7    1.293496 A    
C18   C24   1.383843 A    
C19   C21   1.381315 A    
C43   H21   1.083292 S    
C21   C25   1.400564 A    
O8    Zn4   1.996826 S    
C14   C18   1.404447 A    
C50   H25   1.097249 S    
Zn1   N3    2.021413 S    
C66   H64   1.092434 S    
C17   H1    1.083702 S    
C42   C52   1.485785 S    
C65   H60   1.108235 S    
C39   O19   1.416084 S    
C63   C64   1.527132 S    
C41   N1    1.362088 A    
C8    C27   1.412123 S    
C56   H39   1.104229 S    
C19   H3    1.083593 S    
C47   C49   1.491665 S    
C38   H18   1.106567 S    
C37   H17   1.105610 S    
C10   C14   1.405382 A    
C55   H37   1.110842 S    
Zn2   O12   1.996509 S    
C16   C20   1.404217 A    
C64   H58   1.111391 S    
C39   H19   1.105626 S    
O20   C62   1.414784 S    
C63   H55   1.111006 S    
C44   C46   1.418008 A    
C62   C63   1.531366 S    
C43   C45   1.418007 A    
C49   H24   1.107482 S    
C61   H49   1.109962 S    
Zn3   N1    2.021703 S    
O12   C8    1.291227 A    
C33   H13   1.110668 S    
C13   C17   1.399749 A    
C28   C32   1.385664 A    
C10   C32   1.369085 A    
C55   H36   1.110709 S    
C36   C38   1.514905 S    
C15   C19   1.399599 A    
O5    C1    1.293877 A    
C58   H43   1.110946 S    
N3    C47   1.367755 A    
C41   C47   1.406002 A    
C33   C39   1.513279 S    
C46   N4    1.390259 A    
C24   H8    1.083471 S    
O8    C4    1.283284 A    
C22   C26   1.402933 A    
N4    C48   1.367753 A    
C21   H5    1.083970 S    
C36   H16   1.112307 S    
O1    C1    1.286876 A    
C54   H34   1.110968 S    
C51   H27   1.110659 S    
C5    C26   1.424100 S    
C4    C15   1.410716 S    
C48   C50   1.491652 S    
Zn2   N4    2.021413 S    
C10   C38   1.510437 S    
O3    Zn2   1.985725 S    
C60   C61   1.527547 S    
C9    C37   1.493246 S    
C61   H50   1.110652 S    
O7    Zn4   1.988653 S    
N1    C43   1.353147 A    
C35   H11   1.111223 S    
Zn4   O15   1.985509 S    
C42   N2    1.362077 A    
C38   O18   1.423369 S    
C60   H47   1.111524 S    
C11   C15   1.391485 A    
C40   O20   1.423279 S    
C59   C60   1.538258 S    
O4    C4    1.288622 A    
C20   C22   1.383822 A    
O17   C53   1.416071 S    
C57   H41   1.111368 S    
O2    C2    1.288620 A    
C6    C25   1.412111 S    
C23   C27   1.400712 A    
O19   C59   1.416038 S    
C26   C30   1.385458 A    
C56   C57   1.531541 S    
C33   H9    1.111255 S    
C24   C28   1.403160 A    
O13   C5    1.285321 A    
C25   C29   1.390035 A    
C7    C28   1.424150 S    
Zn2   O11   1.988336 S    
O16   C8    1.281365 A    
C63   H54   1.111795 S    
O6    C2    1.283298 A    
C23   H7    1.084088 S    
C56   H38   1.111073 S    
C49   C51   1.517413 S    
C29   C33   1.487530 S    
Zn1   O9    1.988336 S    
C2    C13   1.410735 S    
C22   H6    1.083298 S    
C31   C35   1.487514 S    
C52   H30   1.111526 S    
C53   C54   1.538301 S    
C12   C40   1.510327 S    
C32   C36   1.489573 S    
O9    C5    1.293463 A    
C11   C29   1.370669 A    
C57   C58   1.527745 S    
C62   H53   1.104128 S    
C59   H45   1.108434 S    
C57   H40   1.111953 S    
C62   H52   1.110790 S    
C58   H42   1.111123 S    
Zn3   O13   1.985509 S    
C35   H15   1.110687 S    
C53   H32   1.112475 S    
C1    C14   1.432406 S    
C54   C55   1.527572 S    
C44   H22   1.083300 S    
C34   C40   1.514896 S    
C36   H12   1.104310 S    
O4    Zn2   1.990882 S    
O5    Zn3   1.988653 S    
C51   H28   1.111539 S    
O3    C3    1.286885 A    
C11   C39   1.493199 S    
C20   H4    1.083448 S    
O1    Zn1   1.985726 S    
Zn4   O16   1.990666 S    
C45   N3    1.390247 A    
O14   C6    1.281354 A    
C45   C65   1.494967 S    
C66   H62   1.105456 S    
C60   H48   1.110957 S    
C34   H14   1.112120 S    
C46   C66   1.495039 S    
C37   O17   1.416076 S    
