data_mof_unit_54274.cif
_audit_creation_date              2012-12-10T18:58:44-0500
_audit_creation_method            fapswitch 2.2
_symmetry_space_group_name_H-M    P1
_symmetry_Int_Tables_number       1
_space_group_crystal_system       triclinic
_cell_length_a                    13.006228
_cell_length_b                    10.830586
_cell_length_c                    9.538562
_cell_angle_alpha                 90.287809
_cell_angle_beta                  95.955323
_cell_angle_gamma                 90.422974
_cell_volume                      1336.3396128

loop_
_atom_site_label
_atom_site_type_symbol
_atom_type_description
_atom_site_fract_x
_atom_site_fract_y
_atom_site_fract_z
_atom_type_partial_charge
C1    C     C_R   0.496767 0.262421 0.499203 0.821820
C2    C     C_R   0.028215 0.498282 0.569557 0.064293
C3    C     C_R   0.972392 0.500235 0.434175 0.107648
C4    C     C_R   0.865124 0.499932 0.421529 -0.273086
C5    C     C_R   0.867406 0.494702 0.676112 -0.287415
C6    C     C_R   0.975410 0.497067 0.691142 0.487204
C7    C     C_R   0.483804 0.064568 0.621925 0.128952
C8    C     C_R   0.482657 0.129804 0.496632 -0.136782
C9    C     C_R   0.460920 0.065615 0.368652 -0.286551
C10   C     C_R   0.456827 0.936103 0.366655 0.242290
C11   C     C_R   0.478640 0.870898 0.495470 -0.145928
C12   C     C_R   0.300553 0.500053 0.473888 0.791862
C13   C     C_R   0.482124 0.937740 0.621583 0.084336
C14   C     C_3   0.554802 0.932292 0.753354 -0.475810
C15   C     C_3   0.556770 0.072342 0.752964 -0.445379
C16   C     C_R   0.588338 0.526462 0.086372 0.266203
C17   C     C_R   0.415657 0.461732 0.062250 -0.086660
C18   C     C_R   0.415629 0.461775 0.913556 -0.080968
C19   C     C_R   0.588700 0.525118 0.938981 0.260324
C20   C     C_3   0.651266 0.640899 0.942007 -0.518887
C21   C     C_3   0.649305 0.643744 0.100664 -0.496016
C22   C     C_R   0.494950 0.737794 0.499091 0.813380
C23   C     C_R   0.699475 0.499221 0.526215 0.834830
C24   C     C_R   0.812237 0.498139 0.541854 -0.122218
C25   C     C_R   0.187870 0.500163 0.459169 -0.070287
C26   C     C_R   0.024547 0.502226 0.312979 -0.179486
C27   C     C_R   0.131906 0.502294 0.325399 -0.195440
C28   C     C_R   0.135800 0.498178 0.580536 -0.229124
Cu1   Cu    Cu3+1 0.499990 0.499980 0.640670 0.938604
Cu2   Cu    Cu3+1 0.500010 0.500020 0.359330 0.946562
H1    H     H_    0.823026 0.500190 0.317475 0.158020
H2    H     H_    0.630453 0.890817 0.735973 0.195234
H3    H     H_    0.520352 0.114030 0.842229 0.197499
H4    H     H_    0.633244 0.112135 0.734436 0.197352
H5    H     H_    0.346884 0.432042 0.107534 0.144469
H6    H     H_    0.346803 0.431926 0.848794 0.149617
H7    H     H_    0.729711 0.625513 0.909434 0.185830
H8    H     H_    0.608287 0.717284 0.887641 0.216235
H9    H     H_    0.726942 0.631482 0.158738 0.186281
H10   H     H_    0.604360 0.722087 0.137999 0.229726
H11   H     H_    0.827113 0.489279 0.769646 0.165383
H12   H     H_    0.982330 0.503763 0.208869 0.141492
H13   H     H_    0.170961 0.504003 0.230509 0.152035
H14   H     H_    0.179170 0.496869 0.683799 0.189348
H15   H     H_    0.450330 0.115228 0.269896 0.165920
H16   H     H_    0.516502 0.894543 0.842990 0.196767
N1    N     N_R   0.500660 0.500930 0.148010 -0.182354
N2    N     N_R   0.500660 0.500890 0.852110 -0.186525
O1    O     O_R   0.500000 0.319640 0.618810 -0.578607
O2    O     O_R   0.500010 0.319680 0.381230 -0.584661
O3    O     O_R   0.348990 0.499960 0.599490 -0.595936
O4    O     O_R   0.349000 0.500000 0.361910 -0.597046
O5    O     O_R   0.499990 0.680320 0.618770 -0.581706
O6    O     O_R   0.500000 0.680360 0.381190 -0.543238
O7    O     O_R   0.651000 0.500000 0.638090 -0.588478
O8    O     O_R   0.651010 0.500040 0.400510 -0.586603
O9    O     O_3   0.029283 0.488858 0.823731 -0.589207
C29   C     C_3   0.025101 0.603832 0.892864 -0.373466
H17   H     H_    0.945540 0.623567 0.919301 0.162437
H18   H     H_    0.053847 0.680191 0.829098 0.164899
H19   H     H_    0.076231 0.600365 0.993317 0.188217
N3    N     N_2   0.436264 0.873585 0.234862 -0.410864
H20   H     H_    0.460390 0.921024 0.150445 0.236608
C30   C     C_3   0.331242 0.828167 0.206178 -0.642642
H21   H     H_    0.310160 0.768012 0.292949 0.231623
H22   H     H_    0.276662 0.906764 0.193512 0.208393
H23   H     H_    0.324051 0.772810 0.107270 0.219678

loop_
_geom_bond_atom_site_label_1
_geom_bond_atom_site_label_2
_ccdc_geom_bond_type
C2    C28   A    
C23   C24   S    
C16   C21   S    
C23   O7    A    
N3    H20   S    
C25   C27   A    
C1    C8    S    
C20   H8    S    
C9    C10   A    
C15   H4    S    
Cu1   O7    S    
C19   C20   S    
C21   H9    S    
C7    C13   A    
C12   C25   S    
C30   H21   S    
C18   N2    A    
C29   H19   S    
C7    C15   S    
C17   C18   A    
C26   C27   A    
C23   O8    A    
C22   O6    A    
Cu1   O1    S    
C13   C14   S    
C25   C28   A    
C9    H15   S    
C20   H7    S    
Cu2   O6    S    
C6    O9    S    
O9    C29   S    
C10   N3    S    
C5    C24   A    
Cu1   O5    S    
C16   C19   A    
C16   N1    A    
C17   H5    S    
C12   O4    A    
Cu1   O3    S    
C2    C3    A    
C22   O5    A    
Cu2   O8    S    
C21   H10   S    
Cu2   O2    S    
C5    C6    A    
C4    C24   A    
C4    H1    S    
C7    C8    A    
C10   C11   A    
Cu1   N2    S    
C29   H18   S    
C3    C4    A    
C30   H23   S    
C27   H13   S    
Cu2   N1    S    
C11   C13   A    
C12   O3    A    
C20   C21   S    
C26   H12   S    
C28   H14   S    
C14   H16   S    
C1    O1    A    
C1    O2    A    
C5    H11   S    
C14   C15   S    
C8    C9    A    
N3    C30   S    
C11   C22   S    
C29   H17   S    
C19   N2    A    
C18   H6    S    
C15   H3    S    
C3    C26   A    
Cu1   Cu2   S    
C2    C6    A    
C17   N1    A    
C14   H2    S    
Cu2   O4    S    
C30   H22   S    
