data_mof_unit_39914.cif
_audit_creation_date              2012-12-10T17:31:06-0500
_audit_creation_method            fapswitch 2.2
_symmetry_space_group_name_H-M    P1
_symmetry_Int_Tables_number       1
_space_group_crystal_system       triclinic
_cell_length_a                    12.001973
_cell_length_b                    12.85605
_cell_length_c                    15.508124
_cell_angle_alpha                 86.88642
_cell_angle_beta                  115.653257
_cell_angle_gamma                 93.993454
_cell_volume                      2150.99349892

loop_
_atom_site_label
_atom_site_type_symbol
_atom_type_description
_atom_site_fract_x
_atom_site_fract_y
_atom_site_fract_z
_atom_type_partial_charge
C1    C     C_R   0.475755 0.299964 0.496302 0.884500
C2    C     C_R   0.589508 0.966512 0.436558 -0.226793
C3    C     C_R   0.428357 0.143583 0.567829 -0.256283
C4    C     C_R   0.597247 0.860854 0.454490 -0.239749
C5    C     C_R   0.500674 0.129716 0.443746 0.033901
C6    C     C_R   0.494788 0.868730 0.560058 0.018888
C7    C     C_R   0.524276 0.024519 0.472002 0.124665
C8    C     C_R   0.485641 0.976868 0.540780 0.136599
C9    C     C_R   0.009754 0.608532 0.419976 -0.349673
C10   C     C_R   0.988828 0.389713 0.577722 -0.346222
C11   C     C_R   0.128839 0.596720 0.426487 0.002983
C12   C     C_R   0.525133 0.700156 0.505385 0.878167
C13   C     C_R   0.869406 0.401046 0.570751 0.014616
C14   C     C_R   0.156714 0.451379 0.533050 -0.059366
C15   C     C_R   0.843473 0.548948 0.467248 -0.057727
C16   C     C_R   0.577396 0.497466 0.680962 0.855820
C17   C     C_R   0.423161 0.508042 0.319222 0.871521
C18   C     C_R   0.036803 0.459669 0.528029 0.095080
C19   C     C_R   0.962819 0.539945 0.471320 0.095062
C20   C     C_R   0.627734 0.513855 0.784827 -0.103047
C21   C     C_R   0.375437 0.527959 0.215221 -0.089447
C22   C     C_R   0.789120 0.560555 0.940947 -0.241727
C23   C     C_R   0.649242 0.595311 0.106374 -0.230098
C24   C     C_R   0.215458 0.557869 0.054566 -0.252576
C25   C     C_R   0.755526 0.531627 0.846635 0.105376
C26   C     C_R   0.248028 0.538194 0.151958 0.107875
C27   C     C_R   0.540022 0.522827 0.820515 -0.305900
C28   C     C_R   0.464337 0.542960 0.179394 -0.320564
C29   C     C_R   0.573085 0.555839 0.912995 0.094937
C30   C     C_R   0.431654 0.565050 0.082687 0.096487
C31   C     C_R   0.699936 0.571441 0.974640 0.147379
C32   C     C_R   0.304882 0.567649 0.019367 0.152087
C33   C     C_R   0.482940 0.568433 0.947004 0.078320
C34   C     C_R   0.355485 0.573308 0.885098 -0.239770
C35   C     C_R   0.521868 0.576622 0.046563 0.077412
C36   C     C_3   0.143025 0.527341 0.182192 -0.397172
C37   C     C_3   0.109050 0.412521 0.196645 -0.323398
C38   C     C_3   0.992491 0.400949 0.213382 -0.877391
C39   C     C_3   0.859754 0.515301 0.819183 -0.398550
C40   C     C_3   0.880965 0.398567 0.821038 -0.319046
C41   C     C_3   0.006764 0.380833 0.823506 -0.920779
C42   C     C_3   0.454211 0.814143 0.632795 -0.406186
C43   C     C_3   0.312184 0.801308 0.592636 -0.295558
C44   C     C_3   0.272620 0.725654 0.654515 -0.874163
C45   C     C_R   0.736552 0.595288 0.070038 -0.245664
C46   C     C_3   0.509390 0.178551 0.354016 -0.438204
C47   C     C_3   0.384361 0.217395 0.280625 -0.355426
C48   C     C_3   0.390536 0.256536 0.187959 -0.873170
C49   C     C_R   0.268433 0.576904 0.921124 -0.239971
C50   C     C_R   0.542792 0.811563 0.509785 -0.082221
C51   C     C_R   0.461861 0.188894 0.498565 -0.061340
C52   C     C_R   0.438198 0.038470 0.587873 -0.234396
H1    H     H_    0.559889 0.532037 0.227466 0.170406
H2    H     H_    0.171665 0.581642 0.871639 0.151967
H3    H     H_    0.832778 0.346056 0.608403 0.142812
H4    H     H_    0.164162 0.650030 0.386774 0.117843
H5    H     H_    0.954960 0.670758 0.375110 0.142525
H6    H     H_    0.042927 0.326550 0.621461 0.149103
H7    H     H_    0.004203 0.446809 0.275620 0.273213
H8    H     H_    0.911646 0.427802 0.148791 0.262165
H9    H     H_    0.974150 0.317616 0.228132 0.248797
H10   H     H_    0.092874 0.368258 0.132264 0.216209
H11   H     H_    0.185568 0.377580 0.259111 0.234930
H12   H     H_    0.444761 0.500810 0.775383 0.165431
H13   H     H_    0.163917 0.573624 0.245967 0.211227
H14   H     H_    0.059732 0.562674 0.126264 0.175500
H15   H     H_    0.011626 0.297651 0.810203 0.250387
H16   H     H_    0.021817 0.430241 0.768215 0.270757
H17   H     H_    0.081598 0.400065 0.894933 0.267886
H18   H     H_    0.877434 0.359431 0.885645 0.222862
H19   H     H_    0.806810 0.361340 0.757142 0.226640
H20   H     H_    0.844551 0.553653 0.749554 0.218118
H21   H     H_    0.946131 0.555090 0.870504 0.179431
H22   H     H_    0.885865 0.572970 0.989029 0.125165
H23   H     H_    0.683293 0.613284 0.181006 0.142587
H24   H     H_    0.119081 0.562853 0.005410 0.128521
H25   H     H_    0.306246 0.647150 0.655437 0.275714
H26   H     H_    0.310477 0.754036 0.728719 0.256987
H27   H     H_    0.170051 0.719220 0.624678 0.249746
H28   H     H_    0.271361 0.877128 0.588667 0.202381
H29   H     H_    0.272296 0.772141 0.518839 0.238725
H30   H     H_    0.494777 0.736672 0.655169 0.210556
H31   H     H_    0.493252 0.857315 0.700546 0.180506
H32   H     H_    0.465988 0.317820 0.203173 0.271865
H33   H     H_    0.407584 0.191210 0.151922 0.259605
H34   H     H_    0.320631 0.577057 0.808382 0.152176
H35   H     H_    0.301424 0.290118 0.138887 0.249632
H36   H     H_    0.311866 0.153065 0.263992 0.227513
H37   H     H_    0.357040 0.282216 0.310154 0.206841
H38   H     H_    0.581109 0.243472 0.373903 0.228132
H39   H     H_    0.536424 0.123225 0.315468 0.202935
H40   H     H_    0.412983 0.008390 0.643603 0.151917
H41   H     H_    0.636253 0.000525 0.395298 0.140593
H42   H     H_    0.639879 0.816517 0.420297 0.158234
H43   H     H_    0.399233 0.190724 0.609582 0.155173
H44   H     H_    0.785566 0.610286 0.423758 0.119285
H45   H     H_    0.214950 0.390513 0.577095 0.123933
H46   H     H_    0.833452 0.610108 0.117706 0.145750
N1    N     N_R   0.799120 0.480200 0.517090 -0.098341
N2    N     N_R   0.200880 0.519800 0.482910 -0.090851
O1    O     O_R   0.580150 0.341050 0.504560 -0.623977
O2    O     O_R   0.419850 0.658950 0.495440 -0.617451
O3    O     O_R   0.388090 0.353760 0.493600 -0.622728
O4    O     O_R   0.611910 0.646240 0.506400 -0.623769
O5    O     O_R   0.650890 0.490020 0.640860 -0.620300
O6    O     O_R   0.349110 0.509980 0.359140 -0.621985
O7    O     O_R   0.458830 0.502730 0.629890 -0.622936
O8    O     O_R   0.541170 0.497270 0.370110 -0.615135
Zn1   Zn    Zn3+2 0.628240 0.491510 0.507320 0.923993
Zn2   Zn    Zn3+2 0.371760 0.508490 0.492680 0.920704

loop_
_geom_bond_atom_site_label_1
_geom_bond_atom_site_label_2
_ccdc_geom_bond_type
C21   C26   A    
N2    Zn2   S    
C23   C45   A    
C40   H19   S    
C27   C29   A    
C14   C18   A    
C2    C7    A    
C42   H30   S    
C37   H10   S    
C7    C8    A    
C41   H15   S    
C15   C19   A    
C40   H18   S    
C30   C35   A    
O3    Zn2   S    
C36   C37   S    
C10   H6    S    
C24   C26   A    
C12   O4    A    
C45   H46   S    
O4    Zn1   S    
C3    C52   A    
C36   H14   S    
C20   C25   A    
O1    Zn1   S    
C49   H2    S    
N1    Zn1   S    
C29   C33   A    
O8    Zn1   S    
C18   C19   A    
C34   H34   S    
O5    Zn1   S    
C16   O7    A    
C9    C19   A    
C22   C25   A    
C39   H20   S    
C8    C52   A    
C38   H9    S    
C47   H37   S    
C37   H11   S    
C41   H16   S    
C2    H41   S    
C22   C31   A    
C17   O8    A    
C23   H23   S    
C39   C40   S    
C5    C7    A    
C3    C51   A    
C36   H13   S    
C24   H24   S    
C6    C8    A    
C46   H39   S    
C43   H28   S    
C17   C21   S    
C48   H32   S    
C4    C50   A    
C11   N2    A    
C13   N1    A    
C2    C4    A    
C43   C44   S    
C24   C32   A    
C12   O2    A    
C37   C38   S    
C9    C11   A    
C47   C48   S    
C16   C20   S    
C33   C34   A    
C48   H35   S    
C6    C50   A    
C1    C51   S    
C16   O5    A    
C4    H42   S    
C26   C36   S    
C40   C41   S    
C21   C28   A    
C23   C35   A    
C31   C45   A    
C43   H29   S    
O7    Zn2   S    
C38   H8    S    
O2    Zn2   S    
C42   C43   S    
C22   H22   S    
C1    O1    A    
C15   H44   S    
C14   H45   S    
C41   H17   S    
O6    Zn2   S    
C1    O3    A    
C46   C47   S    
C44   H25   S    
C34   C49   A    
C44   H27   S    
C42   H31   S    
C15   N1    A    
C10   C13   A    
C12   C50   S    
C28   H1    S    
C14   N2    A    
C46   H38   S    
C20   C27   A    
C5    C46   S    
C47   H36   S    
C28   C30   A    
C29   C31   A    
C17   O6    A    
C25   C39   S    
C30   C32   A    
C10   C18   A    
C44   H26   S    
C33   C35   A    
C9    H5    S    
C39   H21   S    
C32   C49   A    
C52   H40   S    
C27   H12   S    
C38   H7    S    
C6    C42   S    
C48   H33   S    
C5    C51   A    
C3    H43   S    
C11   H4    S    
C13   H3    S    
