data_mof_unit_20202.cif
_audit_creation_date              2012-10-26T18:27:12-0400
_audit_creation_method            fapswitch 2.2
_symmetry_space_group_name_H-M    P1
_symmetry_Int_Tables_number       1
_space_group_crystal_system       triclinic
_cell_length_a                    15.068956
_cell_length_b                    10.933687
_cell_length_c                    9.70393
_cell_angle_alpha                 90.306364
_cell_angle_beta                  90.339995
_cell_angle_gamma                 90.405363
_cell_volume                      1598.72083326

loop_
_atom_site_label
_atom_site_type_symbol
_atom_type_description
_atom_site_fract_x
_atom_site_fract_y
_atom_site_fract_z
_atom_type_partial_charge
C1    C     C_R   0.498989 0.265390 0.499795 0.556164
C2    C     C_R   0.186276 0.447665 0.609622 -0.123331
C3    C     C_R   0.232340 0.498872 0.499088 -0.018083
C4    C     C_R   0.328861 0.499540 0.499695 0.547159
C5    C     C_R   0.186297 0.549999 0.388453 -0.134700
C6    C     C_2   0.500196 0.932442 0.387065 -0.157156
C7    C     C_2   0.506197 0.866685 0.502947 -0.118248
C8    C     C_2   0.503945 0.066455 0.386838 -0.156217
C9    C     C_2   0.494697 0.133371 0.501781 -0.113479
C10   C     C_2   0.448146 0.430318 0.922163 0.080290
C11   C     C_2   0.438814 0.446279 0.076551 0.015645
C12   C     C_R   0.907954 0.557719 0.389001 0.077049
C13   C     C_R   0.501387 0.734628 0.500363 0.542154
C14   C     C_R   0.671233 0.504380 0.500259 0.532144
C15   C     C_R   0.815298 0.565915 0.391776 0.231175
C16   C     C_R   0.768239 0.510252 0.500717 -0.015650
C17   C     C_R   0.813962 0.454881 0.609463 -0.174481
C18   C     C_R   0.906647 0.447607 0.609610 -0.051333
C19   C     C_R   0.953731 0.500928 0.499150 -0.030159
C20   C     C_3   0.609168 0.633803 0.883699 0.042703
C21   C     C_3   0.639103 0.734192 0.983381 -0.393345
C22   C     C_3   0.105930 0.421658 0.935338 0.001249
C23   C     C_R   0.953749 0.389970 0.718268 0.254999
C24   C     C_3   0.166378 0.364071 0.042517 -0.361428
C25   C     C_R   0.046678 0.395058 0.721424 0.306702
C26   C     C_R   0.093461 0.447151 0.610916 -0.026463
C27   C     C_R   0.046956 0.499230 0.499238 0.007273
C28   C     C_R   0.093932 0.551014 0.387905 0.025409
C29   C     C_R   0.048086 0.604062 0.278155 -0.156239
C30   C     C_R   0.955984 0.608128 0.278977 -0.090215
Cu1   Cu    Cu3+1 0.500020 0.500020 0.638630 0.977324
Cu2   Cu    Cu3+1 0.499980 0.499980 0.361370 0.950124
H1    H     H_    0.516712 0.908224 0.603194 0.104512
H2    H     H_    0.083554 0.643570 0.192124 0.103455
H3    H     H_    0.922648 0.651151 0.192948 0.171448
H4    H     H_    0.493477 0.887157 0.287575 0.157621
H5    H     H_    0.721688 0.673897 0.330534 0.328636
H6    H     H_    0.621138 0.668589 0.778698 0.183155
H7    H     H_    0.650737 0.551417 0.902062 0.129399
H8    H     H_    0.629287 0.705202 0.091656 0.175439
H9    H     H_    0.710626 0.754679 0.967840 0.122077
H10   H     H_    0.600422 0.818674 0.964723 0.151541
H11   H     H_    0.860251 0.283620 0.784376 0.317825
H12   H     H_    0.513172 0.110718 0.287928 0.150936
H13   H     H_    0.041901 0.445310 0.985265 0.177007
H14   H     H_    0.138745 0.507076 0.898439 0.108411
H15   H     H_    0.230178 0.337502 0.994470 0.139340
H16   H     H_    0.180308 0.430563 0.126580 0.099461
H17   H     H_    0.134035 0.281645 0.086622 0.179707
H18   H     H_    0.482076 0.092693 0.601185 0.102752
H19   H     H_    0.409995 0.357825 0.872586 0.075638
H20   H     H_    0.380419 0.407952 0.125300 0.113935
H21   H     H_    0.559944 0.512641 0.109181 0.249525
H22   H     H_    0.775922 0.417531 0.693699 0.141460
H23   H     H_    0.223231 0.407236 0.693801 0.160378
H24   H     H_    0.222482 0.590853 0.303835 0.123829
N1    N     N_2   0.499020 0.498660 0.846910 -0.056289
N2    N     N_2   0.499000 0.498630 0.153040 -0.325440
O1    O     O_R   0.500020 0.321960 0.617040 -0.514838
O2    O     O_3   0.518130 0.608964 0.903906 -0.471863
O3    O     O_3   0.911966 0.328248 0.823551 -0.676399
O4    O     O_3   0.091862 0.337170 0.826747 -0.529507
O5    O     O_R   0.499980 0.321920 0.382900 -0.496435
O6    O     O_R   0.370270 0.499990 0.617090 -0.500701
O7    O     O_R   0.370240 0.499950 0.382940 -0.504905
O8    O     O_R   0.500020 0.678080 0.617100 -0.480257
O9    O     O_R   0.499980 0.678040 0.382960 -0.496179
O10   O     O_R   0.629760 0.500050 0.617060 -0.538998
O11   O     O_R   0.629730 0.500010 0.382910 -0.481975
O12   O     O_3   0.773049 0.631375 0.289398 -0.720740

loop_
_geom_bond_atom_site_label_1
_geom_bond_atom_site_label_2
_ccdc_geom_bond_type
C20   H6    S    
C8    C9    D    
Cu1   O8    S    
H21   N2    S    
C6    C7    D    
C25   O4    S    
C22   O4    S    
C5    C28   A    
C19   C27   A    
C4    O6    A    
C5    H24   S    
Cu1   O6    S    
Cu1   Cu2   S    
C12   C15   A    
Cu2   N2    S    
C13   O8    A    
Cu1   N1    S    
C1    O1    A    
C2    C3    A    
C2    C26   A    
H5    O12   S    
C7    H1    S    
H11   O3    S    
C26   C27   A    
C29   C30   A    
C21   H8    S    
C30   H3    S    
Cu2   O9    S    
C21   H9    S    
C10   H19   S    
C1    O5    A    
C12   C19   A    
C28   C29   A    
C22   H14   S    
C6    H4    S    
C17   C18   A    
C22   C24   S    
C2    H23   S    
C23   C25   A    
C4    O7    A    
C14   O11   A    
C14   C16   S    
C20   O2    S    
C10   C11   S    
C9    H18   S    
C18   C23   A    
C11   N2    D    
C8    H12   S    
C7    C13   S    
C22   H13   S    
C1    C9    S    
C20   C21   S    
C10   N1    D    
C24   H17   S    
C18   C19   A    
C13   O9    A    
C23   O3    S    
Cu1   O1    S    
C27   C28   A    
C20   H7    S    
C15   O12   S    
C14   O10   A    
C21   H10   S    
C16   C17   A    
N1    O2    S    
C6    C8    S    
C11   H20   S    
C12   C30   A    
C25   C26   A    
C24   H15   S    
C29   H2    S    
Cu2   O11   S    
C17   H22   S    
C3    C4    S    
C15   C16   A    
Cu2   O5    S    
Cu1   O10   S    
Cu2   O7    S    
C3    C5    A    
C24   H16   S    
