data_mof_unit_49343.cif
_audit_creation_date              2012-12-11T15:46:44-0500
_audit_creation_method            fapswitch 2.2
_symmetry_space_group_name_H-M    P1
_symmetry_Int_Tables_number       1
_space_group_crystal_system       triclinic
_cell_length_a                    11.548001
_cell_length_b                    11.55015
_cell_length_c                    19.540001
_cell_angle_alpha                 90.489243
_cell_angle_beta                  90.48839
_cell_angle_gamma                 59.74729
_cell_volume                      2251.21549005

loop_
_atom_site_label
_atom_site_type_symbol
_atom_type_description
_atom_site_fract_x
_atom_site_fract_y
_atom_site_fract_z
_atom_type_partial_charge
C1    C     C_R   0.615765 0.085329 0.606166 0.557822
C2    C     C_1   0.642275 0.703804 0.668038 0.001780
C3    C     C_1   0.126552 0.198714 0.859328 0.003122
C4    C     C_1   0.172103 0.170155 0.727762 -0.030755
C5    C     C_1   0.150331 0.182180 0.799005 -0.030694
C6    C     C_1   0.196005 0.160775 0.667450 0.003378
C7    C     C_1   0.667890 0.182298 0.864494 0.000171
C8    C     C_1   0.633923 0.136624 0.736595 -0.031033
C9    C     C_1   0.647711 0.161748 0.806208 -0.029581
C10   C     C_1   0.625872 0.114048 0.676890 0.001550
C11   C     C_R   0.667301 0.668412 0.191869 0.011104
C12   C     C_R   0.613048 0.745640 0.598582 0.540284
C13   C     C_R   0.547031 0.704310 0.223006 0.026586
C14   C     C_R   0.535956 0.716702 0.292044 -0.005669
C15   C     C_R   0.770123 0.646284 0.303764 -0.168532
C16   C     C_R   0.781401 0.635313 0.232667 -0.151009
C17   C     C_3   0.412843 0.824260 0.210555 -0.283158
C18   C     C_3   0.400078 0.838142 0.287433 -0.247497
C19   C     C_R   0.644800 0.691269 0.333573 -0.001349
C20   C     C_R   0.107552 0.215162 0.200179 -0.000670
C21   C     C_R   0.108143 0.315875 0.238864 -0.011853
C22   C     C_R   0.124463 0.306651 0.308568 0.041349
C23   C     C_R   0.241488 0.145164 0.598262 0.538689
C24   C     C_R   0.122387 0.099084 0.306705 -0.167910
C25   C     C_R   0.100385 0.112652 0.235594 -0.150735
C26   C     C_3   0.182569 0.388058 0.228668 -0.209538
C27   C     C_3   0.196148 0.385981 0.305880 0.157747
C28   C     C_R   0.153749 0.186490 0.341691 -0.020964
C29   C     C_R   0.687682 0.195490 0.199210 -0.027418
C30   C     C_R   0.789666 0.084771 0.233021 0.017320
C31   C     C_R   0.783529 0.066191 0.301409 -0.031400
C32   C     C_R   0.581880 0.283211 0.310049 0.225593
C33   C     C_R   0.588216 0.300176 0.238770 -0.154042
C34   C     C_R   0.645612 0.113699 0.403312 0.574162
C35   C     C_3   0.852400 0.939037 0.216584 -0.260745
C36   C     C_3   0.845172 0.917652 0.292358 -0.253343
C37   C     C_R   0.673556 0.158122 0.339602 0.029103
C38   C     C_R   0.081484 0.231227 0.928574 0.547343
C39   C     C_R   0.683401 0.604707 0.929581 0.543940
C40   C     C_R   0.706732 0.205672 0.930807 0.546724
C41   C     C_R   0.076220 0.239338 0.127665 0.544642
C42   C     C_R   0.683155 0.613540 0.124563 0.544037
C43   C     C_R   0.710486 0.212753 0.128154 0.547999
C44   C     C_R   0.616122 0.739835 0.402446 0.539827
C45   C     C_R   0.237528 0.144805 0.403380 0.523902
C46   C     C_1   0.669141 0.647147 0.860252 0.004725
C47   C     C_1   0.655207 0.683945 0.728550 -0.032510
C48   C     C_1   0.662728 0.667323 0.799816 -0.031369
Cr1   Cr    Cr6+3 0.404720 0.198220 0.499960 1.022243
Cr2   Cr    Cr6+3 0.698290 0.897110 0.500380 1.009274
Cr3   Cr    Cr6+3 0.396970 0.904720 0.499610 1.011729
Cr4   Cr    Cr6+3 0.926290 0.152010 0.028150 1.024390
Cr5   Cr    Cr6+3 0.921440 0.451830 0.027490 1.023092
Cr6   Cr    Cr6+3 0.626370 0.446880 0.028730 1.027712
H1    H     H_    0.856191 0.626302 0.334775 0.175557
H2    H     H_    0.279808 0.325263 0.202177 0.091775
H3    H     H_    0.302359 0.330562 0.322510 0.192670
H4    H     H_    0.513821 0.391644 0.214232 0.135948
H5    H     H_    0.956825 0.895709 0.197791 0.141890
H6    H     H_    0.786360 0.915452 0.184898 0.137874
H7    H     H_    0.774334 0.882286 0.304337 0.163513
H8    H     H_    0.945365 0.860776 0.317221 0.157956
H9    H     H_    0.878924 0.598366 0.209941 0.153993
H10   H     H_    0.341606 0.797665 0.186602 0.140539
H11   H     H_    0.418450 0.907433 0.185516 0.132110
H12   H     H_    0.399112 0.929234 0.306933 0.159858
H13   H     H_    0.322576 0.818256 0.308187 0.132431
H14   H     H_    0.127906 0.013933 0.332480 0.126729
H15   H     H_    0.084097 0.039981 0.208390 0.139834
H16   H     H_    0.118738 0.489594 0.206711 0.165699
O1    O     O_R   0.267750 0.231960 0.575440 -0.520590
O2    O     O_R   0.685950 0.784660 0.430010 -0.509391
O3    O     O_R   0.502510 0.767000 0.423980 -0.524960
O4    O     O_R   0.288320 0.026340 0.429250 -0.501217
O5    O     O_3   0.499990 0.000020 0.499980 -0.273292
O6    O     O_R   0.821590 0.119350 0.952850 -0.505211
O7    O     O_R   0.037230 0.162540 0.957390 -0.493313
O8    O     O_R   0.056530 0.344750 0.951370 -0.503864
O9    O     O_R   0.798000 0.560370 0.957490 -0.494427
O10   O     O_R   0.596230 0.579400 0.952760 -0.505813
O11   O     O_R   0.639160 0.321170 0.958690 -0.492574
O12   O     O_R   0.527290 0.186640 0.570530 -0.489014
O13   O     O_R   0.821370 0.124220 0.104400 -0.516393
O14   O     O_R   0.037020 0.167050 0.097880 -0.507805
O15   O     O_R   0.056310 0.349620 0.102920 -0.518839
O16   O     O_R   0.797790 0.564880 0.097980 -0.513416
O17   O     O_R   0.596000 0.584270 0.104310 -0.513560
O18   O     O_R   0.638950 0.325690 0.099180 -0.505266
O19   O     O_3   0.824700 0.350240 0.028120 -0.253043
O20   O     O_R   0.728110 0.003450 0.576380 -0.500197
O21   O     O_R   0.682980 0.789190 0.570500 -0.511590
O22   O     O_R   0.499300 0.771880 0.575540 -0.501306
O23   O     O_R   0.285350 0.030870 0.569740 -0.492135
O24   O     O_R   0.270960 0.227070 0.423890 -0.543842
O25   O     O_R   0.530270 0.182120 0.430040 -0.452178
O26   O     O_R   0.731320 0.998570 0.424830 -0.528125
O27   O     O_3   0.118599 0.518130 0.331753 -0.591082
C49   C     C_3   0.130953 0.519722 0.403402 -0.094390
H17   H     H_    0.079417 0.625629 0.420928 0.116958
H18   H     H_    0.237510 0.472852 0.419973 0.168698
H19   H     H_    0.080214 0.471076 0.428177 0.142551
O28   O     O_3   0.476740 0.378171 0.349087 -0.584159
C50   C     C_3   0.472840 0.501538 0.346888 -0.103217
H20   H     H_    0.427338 0.553691 0.298064 0.127475
H21   H     H_    0.574030 0.488968 0.355330 0.132702
H22   H     H_    0.407539 0.566138 0.388832 0.147888

loop_
_geom_bond_atom_site_label_1
_geom_bond_atom_site_label_2
_ccdc_geom_bond_type
C21   C26   S    
C1    O20   A    
C34   C37   S    
C43   O13   A    
C14   C18   S    
C12   O21   A    
C35   C36   S    
Cr3   O4    S    
C2    C12   S    
C20   C41   S    
C15   C19   A    
C26   C27   S    
C33   H4    S    
C30   C35   S    
C43   O18   A    
Cr5   O9    S    
Cr3   O5    S    
C17   H10   S    
Cr6   O17   S    
C20   C25   A    
C15   C16   A    
C29   C33   A    
C11   C42   S    
C35   H5    S    
Cr4   O14   S    
Cr2   O2    S    
Cr2   O20   S    
C3    C38   S    
C8    C9    S    
C7    C40   S    
Cr1   O5    S    
Cr5   O16   S    
C42   O16   A    
C16   H9    S    
Cr1   O24   S    
C24   C28   A    
C22   C28   A    
C21   C22   A    
C29   C43   S    
Cr4   O19   S    
O28   C50   S    
C36   H8    S    
C45   O24   A    
C40   O11   A    
O27   C49   S    
Cr6   O10   S    
C46   C48   T    
C28   C45   S    
C23   O1    A    
C24   C25   A    
Cr6   O19   S    
C4    C6    T    
C27   H3    S    
C38   O8    A    
Cr4   O6    S    
C18   H13   S    
C41   O14   A    
Cr1   O25   S    
C23   O23   A    
C31   C37   A    
C35   H6    S    
C15   H1    S    
Cr1   O12   S    
Cr4   O13   S    
C29   C30   A    
Cr3   O22   S    
C11   C16   A    
C47   C48   S    
C17   C18   S    
C50   H21   S    
C32   C37   A    
C34   O25   A    
Cr3   O23   S    
C39   C46   S    
C49   H18   S    
C22   C27   S    
Cr5   O19   S    
C26   H16   S    
C32   O28   S    
C25   H15   S    
Cr4   O7    S    
C19   C44   S    
C7    C9    T    
C27   O27   S    
C14   C19   A    
C12   O22   A    
C1    C10   S    
Cr3   O3    S    
C34   O26   A    
C4    C5    S    
C3    C5    T    
C26   H2    S    
C38   O7    A    
C2    C47   T    
C18   H12   S    
C49   H19   S    
C41   O15   A    
C17   H11   S    
C13   C17   S    
C32   C33   A    
Cr5   O8    S    
C1    O12   A    
Cr2   O5    S    
C39   O10   A    
Cr6   O18   S    
C11   C13   A    
Cr2   O26   S    
C30   C31   A    
C6    C23   S    
C44   O2    A    
C50   H22   S    
C44   O3    A    
C24   H14   S    
C40   O6    A    
Cr2   O21   S    
C20   C21   A    
C8    C10   T    
C49   H17   S    
Cr1   O1    S    
C50   H20   S    
C31   C36   S    
C45   O4    A    
Cr5   O15   S    
C42   O17   A    
C13   C14   A    
Cr6   O11   S    
C36   H7    S    
C39   O9    A    
