data_mof_unit_63114.cif
_audit_creation_date              2012-12-10T21:26:03-0500
_audit_creation_method            fapswitch 2.2
_symmetry_space_group_name_H-M    P1
_symmetry_Int_Tables_number       1
_space_group_crystal_system       triclinic
_cell_length_a                    8.63605
_cell_length_b                    16.194011
_cell_length_c                    16.762294
_cell_angle_alpha                 86.641276
_cell_angle_beta                  91.618632
_cell_angle_gamma                 101.197621
_cell_volume                      2295.32758519

loop_
_atom_site_label
_atom_site_type_symbol
_atom_type_description
_atom_site_fract_x
_atom_site_fract_y
_atom_site_fract_z
_atom_type_partial_charge
C1    C     C_R   0.500663 0.488165 0.652595 1.014476
C2    C     C_R   0.499332 0.511834 0.347409 1.014594
C3    C     C_R   0.420668 0.756504 0.461665 0.639720
C4    C     C_R   0.579349 0.243496 0.538324 0.639721
C5    C     C_R   0.423827 0.843752 0.463281 0.432177
C6    C     C_R   0.576191 0.156249 0.536705 0.432173
C7    C     C_R   0.530895 0.893206 0.515397 -0.073204
C8    C     C_R   0.469103 0.106793 0.484598 -0.073212
C9    C     C_R   0.630412 0.852266 0.563821 0.516347
C10   C     C_R   0.369572 0.147733 0.436184 0.516337
C11   C     C_R   0.623630 0.765189 0.560515 0.173145
C12   C     C_R   0.376356 0.234810 0.439491 0.173118
C13   C     C_R   0.800324 0.521723 0.501037 0.894780
C14   C     C_R   0.199676 0.478277 0.498967 0.894815
C15   C     C_2   0.965453 0.533314 0.503490 0.362222
C16   C     C_2   0.034547 0.466685 0.496518 0.362162
C17   C     C_R   0.500989 0.478304 0.738345 -0.359532
C18   C     C_R   0.498790 0.521675 0.261661 -0.359464
C19   C     C_R   0.375677 0.498461 0.779269 0.516317
C20   C     C_R   0.624129 0.501657 0.220659 0.516288
C21   C     C_R   0.375801 0.491619 0.862011 0.593581
C22   C     C_R   0.623771 0.508459 0.137913 0.593534
C23   C     C_R   0.503634 0.465995 0.903913 0.045285
C24   C     C_R   0.495676 0.533888 0.096092 0.045236
C25   C     C_R   0.624300 0.441961 0.862758 -0.211767
C26   C     C_R   0.374961 0.557781 0.137320 -0.211730
C27   C     C_R   0.624834 0.448728 0.779821 0.224773
C28   C     C_R   0.374670 0.551066 0.220262 0.224757
H1    H     H_    0.721867 0.422012 0.895466 0.251979
H2    H     H_    0.277202 0.577594 0.104669 0.252058
N1    N     N_2   0.518185 0.467893 0.987367 -0.032342
N2    N     N_2   0.481003 0.531974 0.012644 -0.032134
N3    N     N_R   0.519180 0.718290 0.509780 -0.249803
N4    N     N_R   0.480820 0.281710 0.490220 -0.249809
N5    N     N_2   0.544927 0.982568 0.522157 0.054886
N6    N     N_2   0.455072 0.017432 0.477837 0.054886
O1    O     O_R   0.493140 0.422050 0.612640 -0.580414
O2    O     O_R   0.506860 0.577950 0.387360 -0.580388
O3    O     O_R   0.505450 0.562230 0.618920 -0.573888
O4    O     O_R   0.494550 0.437770 0.381080 -0.574014
O5    O     O_R   0.723530 0.446300 0.497600 -0.540514
O6    O     O_R   0.276470 0.553700 0.502400 -0.540472
O7    O     O_R   0.735850 0.586490 0.503880 -0.569770
O8    O     O_R   0.264150 0.413510 0.496120 -0.569769
Zn1   Zn    Zn3+2 0.491780 0.406400 0.495810 1.139385
Zn2   Zn    Zn3+2 0.508220 0.593600 0.504190 1.139467
F1    F     F_    0.046353 0.613118 0.514552 -0.568786
F2    F     F_    0.953648 0.386880 0.485457 -0.568813
F3    F     F_    0.746315 0.475621 0.260947 -0.569601
F4    F     F_    0.253741 0.524672 0.738909 -0.569574
F5    F     F_    0.746663 0.489581 0.098536 -0.562383
F6    F     F_    0.252948 0.510651 0.901304 -0.562305
Br1   Br    Br    0.802946 0.424031 0.726341 -0.234944
Br2   Br    Br    0.196559 0.575602 0.273864 -0.234972
F7    F     F_    0.681708 0.290019 0.588617 -0.519895
F8    F     F_    0.318332 0.709981 0.411361 -0.519921
F9    F     F_    0.676953 0.121623 0.585734 -0.511360
F10   F     F_    0.323087 0.878380 0.414239 -0.511365
F11   F     F_    0.734842 0.897499 0.614509 -0.512224
F12   F     F_    0.265126 0.102500 0.385503 -0.512235
Br3   Br    Br    0.765413 0.715233 0.628990 -0.188735
Br4   Br    Br    0.234567 0.284767 0.371021 -0.188877

loop_
_geom_bond_atom_site_label_1
_geom_bond_atom_site_label_2
_ccdc_geom_bond_type
C10   F12   S    
C27   Br1   S    
C8    N6    S    
C20   F3    S    
C11   N3    A    
C1    O1    A    
C25   C27   A    
C12   Br4   S    
C3    F8    S    
C2    O2    A    
C9    F11   S    
C1    C17   S    
N1    N2    D    
C6    F9    S    
C15   F1    S    
C14   O6    A    
C7    C9    A    
C16   F2    S    
C11   Br3   S    
C13   O5    A    
C28   Br2   S    
N4    Zn1   S    
O5    Zn1   S    
C12   N4    A    
N3    Zn2   S    
C9    C11   A    
C19   F4    S    
C10   C12   A    
C5    F10   S    
O3    Zn2   S    
C22   C24   A    
C8    C10   A    
C26   C28   A    
C19   C21   A    
C24   C26   A    
C26   H2    S    
C14   C16   S    
C13   C15   S    
C4    F7    S    
C25   H1    S    
O4    Zn1   S    
O7    Zn2   S    
C4    N4    A    
O2    Zn2   S    
C4    C6    A    
C2    C18   S    
C1    O3    A    
O1    Zn1   S    
C15   C16   D    
C17   C27   A    
C2    O4    A    
C13   O7    A    
C23   C25   A    
C18   C28   A    
O8    Zn1   S    
C18   C20   A    
C14   O8    A    
O6    Zn2   S    
C24   N2    S    
C5    C7    A    
C3    N3    A    
C6    C8    A    
C17   C19   A    
C7    N5    S    
C21   C23   A    
C21   F6    S    
N5    N6    D    
C20   C22   A    
C22   F5    S    
C3    C5    A    
C23   N1    S    
