data_mof_unit_42749.cif
_audit_creation_date              2012-12-10T16:57:05-0500
_audit_creation_method            fapswitch 2.2
_symmetry_space_group_name_H-M    P1
_symmetry_Int_Tables_number       1
_space_group_crystal_system       triclinic
_cell_length_a                    7.769946
_cell_length_b                    8.5783
_cell_length_c                    16.526834
_cell_angle_alpha                 91.727876
_cell_angle_beta                  80.681168
_cell_angle_gamma                 93.729051
_cell_volume                      1084.50722649

loop_
_atom_site_label
_atom_site_type_symbol
_atom_type_description
_atom_site_fract_x
_atom_site_fract_y
_atom_site_fract_z
_atom_type_partial_charge
C1    C     C_R   0.546190 0.794815 0.498023 0.967082
C2    C     C_R   0.453795 0.205194 0.502110 0.973050
C3    C     C_2   0.570516 0.958293 0.497044 -0.325657
C4    C     C_2   0.429440 0.041759 0.503436 -0.340182
C5    C     C_R   0.475637 0.492013 0.654375 0.898934
C6    C     C_R   0.522116 0.496115 0.345113 0.908125
C7    C     C_R   0.450668 0.439244 0.738628 -0.121765
C8    C     C_R   0.527401 0.461310 0.258031 -0.122726
C9    C     C_R   0.539843 0.311934 0.760117 0.367955
C10   C     C_R   0.403113 0.517042 0.214674 0.369714
C11   C     C_R   0.498048 0.252590 0.838623 -0.191753
C12   C     C_R   0.392267 0.457836 0.136442 -0.190629
C13   C     C_R   0.369705 0.319067 0.896188 0.119649
C14   C     C_R   0.503438 0.342767 0.100928 0.126416
C15   C     C_R   0.275300 0.439398 0.873619 -0.149812
C16   C     C_R   0.633415 0.294784 0.142102 -0.156206
C17   C     C_R   0.315733 0.499373 0.795283 -0.225787
C18   C     C_R   0.645071 0.353209 0.220377 -0.227438
C19   C     C_2   0.354116 0.286195 0.983241 -0.203542
C20   C     C_2   0.499933 0.287054 0.016749 -0.190312
H1    H     H_    0.741597 0.308699 0.252745 0.181081
H2    H     H_    0.242397 0.593665 0.778982 0.172279
H3    H     H_    0.625789 0.271569 0.978760 0.155672
H4    H     H_    0.228952 0.302211 0.021730 0.154404
H5    H     H_    0.176388 0.492249 0.917880 0.144260
H6    H     H_    0.723953 0.210297 0.114159 0.150084
H7    H     H_    0.299333 0.505037 0.102994 0.163935
H8    H     H_    0.568614 0.156797 0.855377 0.168144
H9    H     H_    0.703695 0.009431 0.491024 0.194941
H10   H     H_    0.296252 0.990640 0.509522 0.186898
H11   H     H_    0.022732 0.380199 0.439249 0.199575
H12   H     H_    0.977271 0.619823 0.560733 0.197878
N1    N     N_2   0.953500 0.457650 0.478520 -0.139189
N2    N     N_2   0.046500 0.542350 0.521480 -0.145838
O1    O     O_R   0.388470 0.738640 0.505270 -0.606822
O2    O     O_R   0.611530 0.261360 0.494730 -0.594834
O3    O     O_R   0.679650 0.711510 0.491500 -0.622674
O4    O     O_R   0.320350 0.288490 0.508500 -0.627671
O5    O     O_R   0.337210 0.515200 0.623500 -0.615333
O6    O     O_R   0.662790 0.484800 0.376500 -0.617994
O7    O     O_R   0.628380 0.488060 0.609730 -0.575813
O8    O     O_R   0.371620 0.511940 0.390270 -0.579544
Zn1   Zn    Zn3+2 0.305580 0.518120 0.509190 1.002075
Zn2   Zn    Zn3+2 0.694420 0.481880 0.490810 1.007665
Cl1   Cl    Cl    0.698335 0.216845 0.690731 -0.623534
Cl2   Cl    Cl    0.262016 0.663540 0.254626 -0.614760

loop_
_geom_bond_atom_site_label_1
_geom_bond_atom_site_label_2
_ccdc_geom_bond_type
C10   Cl2   S    
C2    C4    S    
H11   N1    S    
C9    Cl1   S    
C14   C20   S    
C18   H1    S    
O1    Zn1   S    
C2    O4    A    
O6    Zn2   S    
C19   C20   D    
C20   H3    S    
C1    O3    A    
O3    Zn2   S    
C13   C15   A    
C19   H4    S    
C4    H10   S    
O4    Zn1   S    
C9    C11   A    
C10   C12   A    
C11   H8    S    
C6    C8    S    
C16   C18   A    
C12   C14   A    
N1    N2    D    
C5    C7    S    
C5    O5    A    
C16   H6    S    
O7    Zn2   S    
C14   C16   A    
C15   H5    S    
O2    Zn2   S    
O8    Zn1   S    
C13   C19   S    
C12   H7    S    
C3    C4    D    
C7    C9    A    
C11   C13   A    
C6    O6    A    
C1    O1    A    
C8    C10   A    
C6    O8    A    
C2    O2    A    
C3    H9    S    
C5    O7    A    
O5    Zn1   S    
C1    C3    S    
C15   C17   A    
N1    Zn2   S    
C8    C18   A    
N2    Zn1   S    
C17   H2    S    
C7    C17   A    
H12   N2    S    
