data_mof_unit_49196.cif
_audit_creation_date              2012-10-26T20:37:04-0400
_audit_creation_method            fapswitch 2.2
_symmetry_space_group_name_H-M    P1
_symmetry_Int_Tables_number       1
_space_group_crystal_system       triclinic
_cell_length_a                    10.859865
_cell_length_b                    19.351259
_cell_length_c                    18.01756
_cell_angle_alpha                 91.03853
_cell_angle_beta                  91.457201
_cell_angle_gamma                 90.109504
_cell_volume                      3784.57038163

loop_
_atom_site_label
_atom_site_type_symbol
_atom_type_description
_atom_site_fract_x
_atom_site_fract_y
_atom_site_fract_z
_atom_type_partial_charge
C1    C     C_R   0.502827 0.367293 0.499382 0.543154
C2    C     C_R   0.553506 0.816645 0.448671 -0.141196
C3    C     C_R   0.511375 0.146003 0.497698 0.013222
C4    C     C_R   0.488608 0.853996 0.502287 0.013223
C5    C     C_R   0.578993 0.181829 0.444266 -0.023061
C6    C     C_R   0.420968 0.818172 0.555710 -0.023053
C7    C     C_R   0.577060 0.254861 0.444160 -0.037981
C8    C     C_R   0.422917 0.745140 0.555826 -0.037984
C9    C     C_R   0.508489 0.291413 0.497798 -0.008431
C10   C     C_R   0.491513 0.708587 0.502201 -0.008426
C11   C     C_R   0.493563 0.930105 0.501191 0.336045
C12   C     C_R   0.497174 0.632707 0.500617 0.543157
C13   C     C_R   0.506420 0.069893 0.498793 0.336051
C14   C     C_R   0.568455 0.547573 0.280389 0.041587
C15   C     C_R   0.431545 0.452427 0.719611 0.041585
C16   C     C_R   0.261835 0.501709 0.498996 0.547484
C17   C     C_R   0.738165 0.498291 0.501004 0.547480
C18   C     C_R   0.570725 0.547993 0.202347 -0.158816
C19   C     C_R   0.429276 0.452007 0.797652 -0.158816
C20   C     C_R   0.503324 0.498528 0.159786 0.002843
C21   C     C_R   0.496676 0.501472 0.840214 0.002843
C22   C     C_R   0.435391 0.449323 0.198520 -0.164541
C23   C     C_R   0.871850 0.497462 0.502492 -0.005345
C24   C     C_R   0.564609 0.550677 0.801480 -0.164545
C25   C     C_R   0.433812 0.451507 0.276591 0.055736
C26   C     C_R   0.566188 0.548493 0.723409 0.055726
C27   C     C_R   0.497423 0.501063 0.923830 0.327619
C28   C     C_R   0.502578 0.498936 0.076169 0.327617
C29   C     C_R   0.231986 0.621096 0.290045 -0.111025
C30   C     C_R   0.768017 0.378908 0.709959 -0.111024
C31   C     C_R   0.188300 0.600738 0.358708 -0.053319
C32   C     C_R   0.811701 0.399265 0.641295 -0.053318
C33   C     C_R   0.108761 0.543702 0.362748 0.034124
C34   C     C_R   0.128149 0.502538 0.497508 -0.005339
C35   C     C_R   0.891239 0.456300 0.637253 0.034124
C36   C     C_R   0.069935 0.509549 0.296797 -0.107798
C37   C     C_R   0.930064 0.490457 0.703202 -0.107798
C38   C     C_R   0.109593 0.531152 0.227383 0.005093
C39   C     C_R   0.890409 0.468855 0.772617 0.005091
C40   C     C_R   0.193096 0.586544 0.224627 -0.106808
C41   C     C_R   0.806908 0.413463 0.775376 -0.106807
C42   C     C_R   0.929718 0.518841 0.438221 -0.156992
C43   C     C_R   0.070282 0.481160 0.561779 -0.156981
C44   C     C_R   0.655362 0.292296 0.392033 0.056324
C45   C     C_R   0.942919 0.478214 0.565621 -0.037752
C46   C     C_R   0.613037 0.304303 0.319170 -0.067344
C47   C     C_R   0.689939 0.336231 0.269020 -0.100221
C48   C     C_R   0.809022 0.356234 0.291440 -0.101814
C49   C     C_R   0.850833 0.345597 0.364335 -0.103654
C50   C     C_R   0.774247 0.313644 0.414627 -0.080105
C51   C     C_R   0.344608 0.707705 0.607948 0.056310
C52   C     C_R   0.225709 0.686378 0.585359 -0.080121
C53   C     C_R   0.149117 0.654428 0.635650 -0.103657
C54   C     C_R   0.190934 0.643775 0.708541 -0.101820
C55   C     C_R   0.310031 0.663755 0.730956 -0.100224
C56   C     C_R   0.057081 0.521787 0.434379 -0.037753
C57   C     C_R   0.386940 0.695679 0.680807 -0.067340
C58   C     C_R   0.063288 0.495121 0.158726 0.017209
C59   C     C_R   0.144214 0.476099 0.102347 -0.099349
C60   C     C_R   0.102445 0.436218 0.041243 -0.092056
C61   C     C_R   0.978743 0.416520 0.034846 -0.091996
C62   C     C_R   0.896275 0.437529 0.089017 -0.113869
C63   C     C_R   0.938079 0.476796 0.150538 -0.112933
C64   C     C_R   0.936714 0.504889 0.841273 0.017208
C65   C     C_R   0.855790 0.523911 0.897653 -0.099351
C66   C     C_R   0.897559 0.563795 0.958755 -0.092057
C67   C     C_R   0.445381 0.255111 0.551505 -0.158070
C68   C     C_R   0.021261 0.583493 0.965150 -0.091996
C69   C     C_R   0.103727 0.562486 0.910977 -0.113868
C70   C     C_R   0.061923 0.523217 0.849459 -0.112934
C71   C     C_R   0.659604 0.143824 0.392452 0.054025
C72   C     C_R   0.623700 0.134229 0.317579 -0.064204
C73   C     C_R   0.700678 0.098838 0.268912 -0.100093
C74   C     C_R   0.813517 0.072774 0.294749 -0.096777
C75   C     C_R   0.849530 0.082031 0.369319 -0.103890
C76   C     C_R   0.772865 0.117458 0.418142 -0.079193
C77   C     C_R   0.340316 0.856179 0.607499 0.054017
C78   C     C_R   0.554637 0.744886 0.448499 -0.158066
C79   C     C_R   0.227112 0.882584 0.581763 -0.079194
C80   C     C_R   0.150410 0.918018 0.630559 -0.103885
C81   C     C_R   0.186329 0.927244 0.705148 -0.096779
C82   C     C_R   0.299111 0.901141 0.731031 -0.100099
C83   C     C_R   0.376127 0.865745 0.682390 -0.064200
C84   C     C_R   0.446506 0.183352 0.551327 -0.141198
Cu1   Cu    Cu3+1 0.499990 0.499980 0.573360 0.940228
Cu2   Cu    Cu3+1 0.500010 0.500020 0.426640 0.940231
H1    H     H_    0.226130 0.603967 0.171924 0.107356
H2    H     H_    0.620008 0.586163 0.694613 0.121773
H3    H     H_    0.295005 0.664334 0.287437 0.110992
H4    H     H_    0.704999 0.335670 0.712569 0.110990
H5    H     H_    0.217089 0.628994 0.408601 0.102801
H6    H     H_    0.782912 0.371007 0.591403 0.102797
H7    H     H_    0.008435 0.465737 0.299803 0.095448
H8    H     H_    0.991563 0.534269 0.700193 0.095453
H9    H     H_    0.875059 0.534796 0.390308 0.132726
H10   H     H_    0.124940 0.465205 0.609692 0.132727
H11   H     H_    0.393080 0.282442 0.593174 0.119218
H12   H     H_    0.773875 0.396041 0.828080 0.107356
H13   H     H_    0.606958 0.717555 0.406840 0.119213
H14   H     H_    0.394574 0.156822 0.592784 0.135869
H15   H     H_    0.605453 0.843175 0.407221 0.135865
H16   H     H_    0.521234 0.288358 0.301201 0.087067
H17   H     H_    0.657710 0.344893 0.212617 0.107719
H18   H     H_    0.869243 0.379250 0.252082 0.105581
H19   H     H_    0.943014 0.361350 0.381624 0.108607
H20   H     H_    0.808045 0.304490 0.470632 0.085179
H21   H     H_    0.191906 0.695546 0.529357 0.085196
H22   H     H_    0.056926 0.638691 0.618364 0.108611
H23   H     H_    0.621894 0.585502 0.312175 0.115893
H24   H     H_    0.130709 0.620764 0.747899 0.105582
H25   H     H_    0.342265 0.655081 0.787355 0.107717
H26   H     H_    0.478752 0.711608 0.698772 0.087071
H27   H     H_    0.239843 0.491135 0.106202 0.127914
H28   H     H_    0.165818 0.421041 0.998537 0.140864
H29   H     H_    0.946360 0.386126 0.987220 0.111816
H30   H     H_    0.799953 0.423358 0.083423 0.120480
H31   H     H_    0.872736 0.492625 0.191943 0.101194
H32   H     H_    0.760161 0.508874 0.893799 0.127914
H33   H     H_    0.834187 0.578971 0.001461 0.140862
H34   H     H_    0.378106 0.414498 0.687825 0.115893
H35   H     H_    0.053644 0.613889 0.012775 0.111816
H36   H     H_    0.200049 0.576658 0.916570 0.120477
H37   H     H_    0.127265 0.507388 0.808052 0.101197
H38   H     H_    0.536192 0.153919 0.297146 0.099770
H39   H     H_    0.672813 0.091548 0.211198 0.104071
H40   H     H_    0.872989 0.045366 0.257010 0.106955
H41   H     H_    0.936889 0.061813 0.389263 0.108298
H42   H     H_    0.801651 0.124556 0.475778 0.102760
H43   H     H_    0.198399 0.875512 0.524112 0.102770
H44   H     H_    0.063097 0.938267 0.610580 0.108305
H45   H     H_    0.625465 0.586713 0.175665 0.114048
H46   H     H_    0.126829 0.954656 0.742866 0.106961
H47   H     H_    0.326904 0.908407 0.788758 0.104072
H48   H     H_    0.463593 0.846028 0.702859 0.099769
H49   H     H_    0.374536 0.413286 0.824335 0.114049
H50   H     H_    0.382658 0.409646 0.168837 0.112458
H51   H     H_    0.617342 0.590354 0.831163 0.112459
H52   H     H_    0.379992 0.413837 0.305387 0.121774
N1    N     N_R   0.505428 0.032018 0.434654 -0.220007
N2    N     N_R   0.556851 0.551098 0.039120 -0.247392
N3    N     N_R   0.494555 0.967979 0.565330 -0.219994
N4    N     N_R   0.499700 0.963408 0.435802 -0.237716
N5    N     N_R   0.500283 0.036589 0.564182 -0.237712
N6    N     N_R   0.500010 0.500050 0.316380 -0.209517
N7    N     N_R   0.499990 0.499950 0.683620 -0.209518
N8    N     N_R   0.445644 0.447875 0.035094 -0.256795
N9    N     N_R   0.554357 0.552125 0.964906 -0.256795
N10   N     N_R   0.443151 0.448902 0.960880 -0.247392
O1    O     O_R   0.500010 0.400130 0.561970 -0.514815
O2    O     O_R   0.499990 0.599870 0.438030 -0.514814
O3    O     O_R   0.500020 0.400160 0.438070 -0.495284
O4    O     O_R   0.499980 0.599840 0.561930 -0.495289
O5    O     O_R   0.319640 0.499990 0.561950 -0.506286
O6    O     O_R   0.680360 0.500010 0.438050 -0.506289
O7    O     O_R   0.319650 0.500020 0.438050 -0.495119
O8    O     O_R   0.680350 0.499980 0.561950 -0.495118

loop_
_geom_bond_atom_site_label_1
_geom_bond_atom_site_label_2
_ccdc_geom_bond_type
C14   H23   S    
C66   C68   A    
C34   C56   A    
C23   C45   A    
C73   C74   A    
C14   C18   A    
C60   H28   S    
C28   N2    A    
C30   H4    S    
C29   H3    S    
C81   C82   A    
C10   C78   A    
Cu2   N6    S    
C39   C41   A    
C32   H6    S    
C53   C54   A    
C15   C19   A    
C39   C64   S    
C46   H16   S    
C17   C23   S    
C23   C42   A    
C13   N1    A    
C40   H1    S    
C19   C21   A    
Cu1   N7    S    
Cu2   O2    S    
C71   C76   A    
C63   H31   S    
N1    N4    A    
C57   H26   S    
C77   C83   A    
C19   H49   S    
C48   H18   S    
C33   C36   A    
C15   H34   S    
C54   H24   S    
C46   C47   A    
C49   C50   A    
C12   O4    A    
C83   H48   S    
C42   C56   A    
C38   C58   S    
C36   H7    S    
C52   H21   S    
C68   C69   A    
C22   C25   A    
C61   H29   S    
C65   H32   S    
C31   C33   A    
C30   C41   A    
C1    O1    A    
C51   C57   A    
C64   C70   A    
C75   H41   S    
C3    C13   S    
C72   C73   A    
C16   C34   S    
C33   C56   S    
C21   C27   S    
C59   C60   A    
C38   C40   A    
C72   H38   S    
C18   H45   S    
C69   C70   A    
C17   O6    A    
C70   H37   S    
N2    N9    A    
C44   C46   A    
N8    N10   A    
C77   C79   A    
C37   C39   A    
C14   N6    A    
C80   H44   S    
C74   C75   A    
C51   C52   A    
C84   H14   S    
C32   C35   A    
C12   O2    A    
C47   H17   S    
C4    C6    A    
C15   N7    A    
C27   N10   A    
C81   H46   S    
C49   H19   S    
C20   C28   S    
C2    H15   S    
C3    C5    A    
C58   C59   A    
Cu1   Cu2   S    
C42   H9    S    
C22   H50   S    
C60   C61   A    
Cu1   O8    S    
C26   N7    A    
C2    C4    A    
C75   C76   A    
C9    C67   A    
C62   H30   S    
C62   C63   A    
C2    C78   A    
C11   N3    A    
C47   C48   A    
C59   H27   S    
C16   O7    A    
C43   H10   S    
C1    C9    S    
Cu2   O7    S    
Cu1   O5    S    
C7    C44   S    
C4    C11   S    
C43   C45   A    
C8    C51   S    
C10   C12   S    
C26   H2    S    
C48   C49   A    
C20   C22   A    
C65   C66   A    
C31   H5    S    
C66   H33   S    
C55   C57   A    
C76   H42   S    
C25   N6    A    
C35   C45   S    
C16   O5    A    
C52   C53   A    
C35   C37   A    
C5    C7    A    
C44   C50   A    
C58   C63   A    
C7    C9    A    
C54   C55   A    
C55   H25   S    
C8    C10   A    
C34   C43   A    
C24   C26   A    
C80   C81   A    
C6    C77   S    
C68   H35   S    
C6    C8    A    
C24   H51   S    
C78   H13   S    
C28   N8    A    
C64   C65   A    
C82   H47   S    
N3    N5    A    
C25   H52   S    
Cu2   O6    S    
Cu1   O4    S    
C71   C72   A    
C29   C31   A    
C27   N9    A    
Cu2   O3    S    
C30   C32   A    
C53   H22   S    
C74   H40   S    
C69   H36   S    
C73   H39   S    
C29   C40   A    
C36   C38   A    
C37   H8    S    
C1    O3    A    
C18   C20   A    
C13   N5    A    
C61   C62   A    
C11   N4    A    
Cu1   O1    S    
C67   H11   S    
C79   C80   A    
C67   C84   A    
C5    C71   S    
C82   C83   A    
C21   C24   A    
C3    C84   A    
C50   H20   S    
C41   H12   S    
C17   O8    A    
C79   H43   S    
