data_mof_unit_62856.cif
_audit_creation_date              2012-12-10T18:42:52-0500
_audit_creation_method            fapswitch 2.2
_symmetry_space_group_name_H-M    P1
_symmetry_Int_Tables_number       1
_space_group_crystal_system       triclinic
_cell_length_a                    45.03533
_cell_length_b                    31.831541
_cell_length_c                    31.841173
_cell_angle_alpha                 89.999398
_cell_angle_beta                  135.006974
_cell_angle_gamma                 89.999722
_cell_volume                      32272.4699613

loop_
_atom_site_label
_atom_site_type_symbol
_atom_type_description
_atom_site_fract_x
_atom_site_fract_y
_atom_site_fract_z
_atom_type_partial_charge
C1    C     C_R   0.581395 1.000000 0.581390 0.909434
C2    C     C_3   0.999994 0.208958 0.500032 0.206333
C3    C     C_R   0.581391 0.499999 0.081446 0.908704
C4    C     C_3   0.022382 0.032386 0.786052 0.190160
C5    C     C_3   0.016776 0.964362 0.780440 0.189674
C6    C     C_3   0.515562 0.536192 0.779224 0.189620
C7    C     C_3   0.523463 0.468396 0.787136 0.190212
C8    C     C_3   0.476007 0.532065 0.711927 -0.162244
C9    C     C_3   0.484020 0.463304 0.719951 -0.162094
C10   C     C_3   0.982789 0.036141 0.718718 -0.162075
C11   C     C_3   0.977103 0.967149 0.713026 -0.162243
C12   C     C_1   0.499935 0.499998 0.625857 -0.189653
C13   C     C_3   0.466245 0.236047 0.445126 -0.163208
C14   C     C_1   0.999935 0.000002 0.625857 -0.189651
C15   C     C_1   0.999864 0.000001 0.874071 -0.186574
C16   C     C_1   0.499863 0.500001 0.874070 -0.186579
C17   C     C_3   0.539787 0.504654 0.775662 -0.189354
C18   C     C_3   0.039921 0.996698 0.775796 -0.189350
C19   C     C_3   0.499953 0.500006 0.708792 0.143065
C20   C     C_3   0.999952 0.999997 0.708792 0.143053
C21   C     C_3   0.999901 0.999995 0.791127 0.083690
C22   C     C_3   0.499901 0.500010 0.791126 0.083698
C23   C     C_3   0.535179 0.236048 0.516547 -0.163508
C24   C     C_3   0.466583 0.763954 0.444937 -0.162748
C25   C     C_3   0.535469 0.763950 0.517408 -0.163738
C26   C     C_3   0.035290 0.736048 0.516876 -0.163553
C27   C     C_3   0.035390 0.263951 0.517169 -0.163689
C28   C     C_3   0.960155 0.003275 0.724088 -0.230541
C29   C     C_3   0.460288 0.495388 0.724220 -0.230553
C30   C     C_1   0.499923 0.499999 0.663352 -0.056089
C31   C     C_1   0.999923 0.000002 0.663352 -0.056086
C32   C     C_1   0.999831 0.000001 0.836536 -0.087297
C33   C     C_1   0.499830 0.500002 0.836535 -0.087296
C34   C     C_3   0.014470 0.962811 0.250589 -0.164915
C35   C     C_3   0.966372 0.736048 0.445057 -0.163233
C36   C     C_3   0.025301 0.030952 0.261423 -0.163717
C37   C     C_3   0.515363 0.463168 0.251482 -0.164891
C38   C     C_3   0.524543 0.531551 0.260662 -0.163755
C39   C     C_3   0.475883 0.468471 0.239870 -0.163441
C40   C     C_3   0.485062 0.536854 0.249052 -0.163255
C41   C     C_3   0.975127 0.969069 0.239113 -0.163497
C42   C     C_3   0.985958 0.037209 0.249947 -0.163217
C43   C     C_1   0.500077 0.500006 0.374192 -0.187820
C44   C     C_1   0.000077 0.000006 0.374192 -0.187821
C45   C     C_1   0.000138 0.000001 0.126137 -0.188721
C46   C     C_3   0.966489 0.263954 0.444984 -0.162733
C47   C     C_1   0.500137 0.500001 0.126136 -0.188723
C48   C     C_3   0.539677 0.494710 0.303705 -0.164047
C49   C     C_3   0.039538 0.993756 0.303568 -0.164034
C50   C     C_3   0.500194 0.500013 0.291294 0.206519
C51   C     C_3   0.000194 0.000013 0.291293 0.206525
C52   C     C_3   0.000231 0.000008 0.209242 0.206638
C53   C     C_3   0.500227 0.500009 0.209239 0.206634
C54   C     C_1   0.499998 0.125929 0.500002 -0.187237
C55   C     C_1   0.499997 0.874071 0.500003 -0.186353
C56   C     C_1   0.999998 0.625929 0.500002 -0.187217
C57   C     C_3   0.501424 0.263951 0.461656 -0.162952
C58   C     C_1   0.999997 0.374071 0.500003 -0.186383
C59   C     C_3   0.960891 0.006265 0.196973 -0.162435
C60   C     C_3   0.460749 0.505312 0.196833 -0.162421
C61   C     C_1   0.500135 0.500011 0.336711 -0.079677
C62   C     C_1   0.000135 0.000010 0.336710 -0.079671
C63   C     C_1   0.000198 0.000004 0.163736 -0.080038
C64   C     C_1   0.500195 0.500004 0.163733 -0.080047
C65   C     C_1   0.499992 0.374056 0.500038 -0.187796
C66   C     C_1   0.499990 0.625944 0.500039 -0.187703
C67   C     C_1   0.999992 0.874056 0.500041 -0.187770
C68   C     C_3   0.502055 0.736049 0.462323 -0.163156
C69   C     C_1   0.999990 0.125944 0.500036 -0.187727
C70   C     C_3   0.498572 0.236034 0.538395 -0.164123
C71   C     C_3   0.497936 0.763965 0.537738 -0.163610
C72   C     C_3   0.998333 0.736034 0.538152 -0.164027
C73   C     C_3   0.998109 0.263964 0.537915 -0.163716
C74   C     C_3   0.499999 0.208944 0.500018 0.206684
C75   C     C_3   0.499997 0.791056 0.500022 0.206340
C76   C     C_3   0.999999 0.708944 0.500022 0.206646
C77   C     C_3   0.999997 0.291056 0.500018 0.206385
C78   C     C_3   0.719422 0.002049 0.803686 -0.425541
C79   C     C_3   0.001662 0.763952 0.461910 -0.162974
C80   C     C_3   0.754974 0.002827 0.871329 -0.875273
C81   C     C_3   0.219423 0.500523 0.803710 -0.425531
C82   C     C_3   0.254975 0.500721 0.871361 -0.875282
C83   C     C_3   0.248808 0.984309 0.357823 0.068170
C84   C     C_3   0.251292 0.022486 0.389365 -0.328618
C85   C     C_3   0.217822 0.020568 0.390137 -0.973596
C86   C     C_3   0.748811 0.485728 0.358021 0.068169
C87   C     C_3   0.751297 0.524281 0.389064 -0.328640
C88   C     C_3   0.717831 0.522808 0.389866 -0.973550
C89   C     C_3   0.047871 0.069300 0.828521 -0.415633
C90   C     C_3   0.001882 0.236050 0.462135 -0.163132
C91   C     C_3   0.066208 0.095660 0.811325 -0.872345
C92   C     C_3   0.035878 0.923766 0.816511 -0.414786
C93   C     C_3   0.049650 0.894765 0.794744 -0.872981
C94   C     C_3   0.533281 0.577411 0.813909 -0.414711
C95   C     C_3   0.546068 0.606861 0.791154 -0.873061
C96   C     C_3   0.550186 0.432364 0.830841 -0.415728
C97   C     C_3   0.569406 0.406635 0.814533 -0.872170
C98   C     C_1   0.499999 0.163471 0.500007 -0.079613
C99   C     C_R   0.081395 0.500000 0.581390 0.909432
C100  C     C_1   0.499998 0.836529 0.500011 -0.078817
C101  C     C_1   0.999999 0.663471 0.500010 -0.079588
C102  C     C_1   0.999998 0.336529 0.500008 -0.078851
C103  C     C_1   0.499994 0.336514 0.500037 -0.079813
C104  C     C_1   0.499991 0.663485 0.500041 -0.079574
C105  C     C_1   0.999994 0.836515 0.500042 -0.079765
C106  C     C_1   0.999991 0.163485 0.500035 -0.079624
C107  C     C_3   0.764073 0.965833 0.784900 -0.175696
C108  C     C_3   0.764071 0.035140 0.783214 -0.175751
C109  C     C_3   0.264073 0.465462 0.784277 -0.175706
C110  C     C_3   0.464817 0.263937 0.483504 -0.163959
C111  C     C_3   0.264072 0.534788 0.783846 -0.175740
C112  C     C_3   0.736072 0.964987 0.717057 -0.197210
C113  C     C_3   0.736071 0.034049 0.715377 -0.197275
C114  C     C_3   0.236072 0.465338 0.716426 -0.197240
C115  C     C_3   0.236071 0.534419 0.715997 -0.197243
C116  C     C_1   0.625890 0.999999 0.625858 -0.186886
C117  C     C_1   0.125890 0.500000 0.625858 -0.186886
C118  C     C_1   0.874091 0.000001 0.874127 -0.188973
C119  C     C_1   0.374091 0.500001 0.874127 -0.188974
C120  C     C_R   0.499996 0.081408 0.500003 0.910409
C121  C     C_3   0.464522 0.736063 0.482653 -0.163480
C122  C     C_R   0.499996 0.918592 0.500004 0.911357
C123  C     C_R   0.999996 0.581408 0.500003 0.910436
C124  C     C_R   0.999996 0.418592 0.500004 0.911317
C125  C     C_3   0.736376 0.000959 0.775791 0.219028
C126  C     C_3   0.236376 0.500245 0.775802 0.219026
C127  C     C_3   0.708888 0.000001 0.708928 0.146007
C128  C     C_3   0.208888 0.500001 0.708928 0.146006
C129  C     C_3   0.791126 0.000002 0.791203 0.175081
C130  C     C_3   0.291126 0.500002 0.791203 0.175081
C131  C     C_3   0.763986 0.999034 0.724216 -0.148791
C132  C     C_3   0.964705 0.763937 0.483187 -0.163944
C133  C     C_3   0.263986 0.499755 0.724204 -0.148792
C134  C     C_1   0.663411 0.999999 0.663369 -0.083143
C135  C     C_1   0.163411 0.500000 0.663369 -0.083143
C136  C     C_1   0.836568 0.000001 0.836605 -0.068079
C137  C     C_1   0.336568 0.500001 0.836604 -0.068079
C138  C     C_3   0.235951 0.031283 0.260877 -0.259225
C139  C     C_3   0.236003 0.962461 0.249825 -0.265414
C140  C     C_3   0.735953 0.531602 0.260469 -0.259251
C141  C     C_3   0.736003 0.462640 0.250314 -0.265381
C142  C     C_3   0.263848 0.037389 0.249296 -0.225837
C143  C     C_3   0.964601 0.236063 0.482881 -0.163505
C144  C     C_3   0.263887 0.969086 0.238320 -0.220175
C145  C     C_3   0.763849 0.537189 0.248810 -0.225886
C146  C     C_3   0.763887 0.468748 0.238726 -0.220121
C147  C     C_1   0.374090 0.000028 0.374085 -0.178766
C148  C     C_1   0.874090 0.500024 0.374085 -0.178762
C149  C     C_1   0.125886 0.999997 0.125838 -0.193290
C150  C     C_1   0.625886 0.499996 0.125839 -0.193290
C151  C     C_R   0.418592 0.000002 0.418604 0.907172
C152  C     C_R   0.918592 0.500002 0.418604 0.907155
C153  C     C_3   0.263496 0.993854 0.301628 0.559442
C154  C     C_3   0.499997 0.291042 0.500033 0.206645
C155  C     C_3   0.763497 0.494347 0.301706 0.559437
C156  C     C_3   0.291098 0.000082 0.290627 0.137988
C157  C     C_3   0.791098 0.500069 0.290626 0.137983
C158  C     C_3   0.208847 0.000011 0.208665 0.140685
C159  C     C_3   0.708847 0.500005 0.208667 0.140684
C160  C     C_3   0.235860 0.006388 0.196206 -0.123057
C161  C     C_3   0.735860 0.505863 0.196126 -0.123054
C162  C     C_1   0.336564 0.000054 0.336409 -0.020452
C163  C     C_1   0.836564 0.500046 0.336408 -0.020451
C164  C     C_1   0.163407 0.999999 0.163265 -0.054820
C165  C     C_3   0.499993 0.708958 0.500038 0.206313
C166  C     C_1   0.663407 0.499995 0.163266 -0.054817
C167  C     C_R   0.499963 0.499999 0.581410 0.909829
C168  C     C_R   0.999963 0.000001 0.581410 0.909829
C169  C     C_R   0.499990 0.418577 0.500038 0.911168
C170  C     C_R   0.499990 0.581423 0.500038 0.911201
C171  C     C_R   0.999990 0.918577 0.500039 0.911182
C172  C     C_R   0.999990 0.081423 0.500037 0.911187
C173  C     C_R   0.500027 0.500001 0.418667 0.910959
C174  C     C_R   0.000027 0.000001 0.418667 0.910955
C175  C     C_R   0.000059 1.000000 0.081536 0.910930
C176  C     C_3   0.999996 0.791042 0.500039 0.206632
C177  C     C_R   0.500059 0.500000 0.081536 0.910926
C178  C     C_3   0.533751 0.263938 0.554924 -0.164165
C179  C     C_3   0.533408 0.736060 0.555123 -0.164234
C180  C     C_3   0.033623 0.763938 0.555005 -0.164095
C181  C     C_3   0.033502 0.236060 0.555066 -0.164300
C182  C     C_R   0.918588 0.000000 0.918634 0.911085
C183  C     C_R   0.418588 0.500000 0.918634 0.911082
C184  C     C_R   0.999928 0.000000 0.918603 0.910128
C185  C     C_R   0.499928 0.500000 0.918603 0.910123
C186  C     C_R   0.081391 0.999999 0.081446 0.908711
H1    H     H_    0.564023 0.223824 0.530093 0.132939
H2    H     H_    0.223977 0.932053 0.249913 0.139815
H3    H     H_    0.518476 0.614580 0.743660 0.258029
H4    H     H_    0.558778 0.636452 0.817249 0.251608
H5    H     H_    0.509097 0.592964 0.809477 0.212642
H6    H     H_    0.561109 0.570525 0.861623 0.207163
H7    H     H_    0.544332 0.392769 0.769558 0.257980
H8    H     H_    0.589999 0.426706 0.815382 0.258527
H9    H     H_    0.588578 0.380765 0.847103 0.251459
H10   H     H_    0.575682 0.445475 0.876222 0.206708
H11   H     H_    0.530226 0.411670 0.830639 0.212719
H12   H     H_    0.723664 0.557081 0.268540 0.137402
H13   H     H_    0.723976 0.432393 0.250799 0.139811
H14   H     H_    0.223490 0.011577 0.151652 0.136718
H15   H     H_    0.723490 0.510632 0.151508 0.136699
H16   H     H_    0.456605 0.558362 0.680353 0.137307
H17   H     H_    0.471187 0.433246 0.694954 0.136971
H18   H     H_    0.968947 0.065749 0.692711 0.137058
H19   H     H_    0.958601 0.940211 0.682355 0.137218
H20   H     H_    0.927597 0.005959 0.703694 0.151586
H21   H     H_    0.564554 0.776173 0.531656 0.133008
H22   H     H_    0.427838 0.491607 0.703932 0.151592
H23   H     H_    0.572275 0.508440 0.796079 0.134871
H24   H     H_    0.072518 0.994011 0.796320 0.134886
H25   H     H_    0.455932 0.442609 0.232125 0.133257
H26   H     H_    0.472638 0.567065 0.248836 0.132911
H27   H     H_    0.954555 0.943696 0.230739 0.133300
H28   H     H_    0.974269 0.067713 0.250462 0.132882
H29   H     H_    0.561425 0.276164 0.599935 0.134007
H30   H     H_    0.560801 0.723834 0.600294 0.134110
H31   H     H_    0.061192 0.776162 0.600078 0.134028
H32   H     H_    0.064225 0.723825 0.530687 0.132935
H33   H     H_    0.060973 0.223833 0.600194 0.134096
H34   H     H_    0.026161 0.932309 0.250074 0.133743
H35   H     H_    0.045878 0.056319 0.269795 0.134007
H36   H     H_    0.527788 0.432959 0.251697 0.133714
H37   H     H_    0.544497 0.557408 0.268407 0.134026
H38   H     H_    0.928647 0.011390 0.152487 0.133096
H39   H     H_    0.428390 0.509658 0.152235 0.133085
H40   H     H_    0.572038 0.490365 0.348301 0.134825
H41   H     H_    0.071784 0.988631 0.348052 0.134817
H42   H     H_    0.502593 0.276187 0.430198 0.132632
H43   H     H_    0.064410 0.276174 0.531225 0.133009
H44   H     H_    0.503744 0.723813 0.431407 0.132723
H45   H     H_    0.003027 0.776188 0.430655 0.132640
H46   H     H_    0.003428 0.223815 0.431069 0.132711
H47   H     H_    0.438571 0.223822 0.400116 0.133168
H48   H     H_    0.439189 0.776180 0.399767 0.133685
H49   H     H_    0.938802 0.723824 0.399984 0.133180
H50   H     H_    0.939017 0.276180 0.399856 0.133667
H51   H     H_    0.435974 0.276161 0.469959 0.134092
H52   H     H_    0.435438 0.723841 0.468407 0.134477
H53   H     H_    0.935770 0.776161 0.469377 0.134098
H54   H     H_    0.276055 0.067829 0.249657 0.150029
H55   H     H_    0.935582 0.223840 0.468826 0.134467
H56   H     H_    0.497403 0.223799 0.569853 0.134611
H57   H     H_    0.496247 0.776199 0.568654 0.135075
H58   H     H_    0.996968 0.723799 0.569407 0.134671
H59   H     H_    0.996563 0.276198 0.568981 0.135014
H60   H     H_    0.723873 0.936351 0.689137 0.142490
H61   H     H_    0.723870 0.061888 0.686083 0.142555
H62   H     H_    0.223873 0.436991 0.687990 0.142517
H63   H     H_    0.223870 0.562563 0.687210 0.142526
H64   H     H_    0.776232 0.937993 0.814184 0.134488
H65   H     H_    0.276103 0.943917 0.229727 0.150226
H66   H     H_    0.776229 0.063779 0.811124 0.134535
H67   H     H_    0.276233 0.437316 0.813055 0.134517
H68   H     H_    0.276230 0.563137 0.812273 0.134507
H69   H     H_    0.776206 0.998241 0.703796 0.136193
H70   H     H_    0.276205 0.499553 0.703775 0.136194
H71   H     H_    0.774795 0.974289 0.888011 0.257970
H72   H     H_    0.774795 0.031179 0.886629 0.257954
H73   H     H_    0.741597 0.003610 0.890139 0.252736
H74   H     H_    0.699604 0.030484 0.787882 0.210322
H75   H     H_    0.699603 0.973843 0.789257 0.210435
H76   H     H_    0.776057 0.567471 0.248774 0.150033
H77   H     H_    0.274796 0.472245 0.887528 0.257991
H78   H     H_    0.274795 0.529151 0.887175 0.257932
H79   H     H_    0.241598 0.500920 0.890181 0.252737
H80   H     H_    0.199603 0.528880 0.788419 0.210358
H81   H     H_    0.199605 0.472224 0.788771 0.210400
H82   H     H_    0.254434 0.955486 0.382306 0.164597
H83   H     H_    0.216355 0.981508 0.312338 0.121530
H84   H     H_    0.282843 0.023686 0.435821 0.233689
H85   H     H_    0.246864 0.051676 0.366344 0.213797
H86   H     H_    0.185953 0.020310 0.344059 0.264684
H87   H     H_    0.776102 0.443309 0.230463 0.150222
H88   H     H_    0.220602 0.048567 0.413529 0.266743
H89   H     H_    0.222013 0.991907 0.413789 0.264643
H90   H     H_    0.754437 0.457153 0.382879 0.164602
H91   H     H_    0.716358 0.482759 0.312574 0.121512
H92   H     H_    0.782850 0.525676 0.435502 0.233690
H93   H     H_    0.746866 0.553226 0.365661 0.213796
H94   H     H_    0.685960 0.522362 0.343794 0.264705
H95   H     H_    0.720611 0.551074 0.412890 0.266753
H96   H     H_    0.722026 0.494404 0.413894 0.264623
H97   H     H_    0.087465 0.076295 0.812837 0.258496
H98   H     H_    0.223661 0.056494 0.269278 0.137389
H99   H     H_    0.040678 0.108671 0.765895 0.258028
H100  H     H_    0.084496 0.122163 0.843008 0.251452
H101  H     H_    0.027224 0.089307 0.827631 0.212745
H102  H     H_    0.073797 0.057057 0.874329 0.206672
H103  H     H_    0.022334 0.886117 0.747527 0.257966
H104  H     H_    0.073789 0.910391 0.799140 0.258414
H105  H     H_    0.063354 0.865621 0.821834 0.251601
H106  H     H_    0.063458 0.931591 0.863976 0.207189
H107  H     H_    0.012234 0.907408 0.812622 0.212634
H108  H     H_    0.570723 0.592059 0.796069 0.258357
O1    O     O_R   0.561630 0.000000 0.596420 -0.620709
O2    O     O_R   0.965230 1.000000 0.403640 -0.618066
O3    O     O_R   0.000030 0.965220 0.061700 -0.618489
O4    O     O_R   0.000030 0.034780 0.061700 -0.618042
O5    O     O_R   0.500030 0.465220 0.061700 -0.618483
O6    O     O_R   0.500030 0.534780 0.061700 -0.618049
O7    O     O_R   0.938380 0.965210 0.938430 -0.618028
O8    O     O_R   0.938380 0.034790 0.938430 -0.618026
O9    O     O_R   0.438380 0.465210 0.938430 -0.617995
O10   O     O_R   0.438380 0.534790 0.938430 -0.618059
O11   O     O_R   0.999950 0.965200 0.938400 -0.619135
O12   O     O_R   0.061630 0.500000 0.596420 -0.620708
O13   O     O_R   0.999950 0.034800 0.938400 -0.618870
O14   O     O_R   0.499950 0.465200 0.938400 -0.618759
O15   O     O_R   0.499950 0.534800 0.938400 -0.619240
O16   O     O_R   0.061600 0.965210 0.061670 -0.618607
O17   O     O_R   0.061600 0.034790 0.061670 -0.617756
O18   O     O_R   0.561600 0.465210 0.061670 -0.618573
O19   O     O_R   0.561600 0.534790 0.061670 -0.617782
O20   O     O_R   0.561580 0.000000 0.526800 -0.617249
O21   O     O_R   0.061580 0.500000 0.526800 -0.617248
O22   O     O_R   0.500020 0.061610 0.534810 -0.617902
O23   O     O_R   0.465210 0.438380 0.465220 -0.618299
O24   O     O_R   0.500020 0.938390 0.534810 -0.617073
O25   O     O_R   0.000020 0.561610 0.534810 -0.617874
O26   O     O_R   0.000020 0.438390 0.534810 -0.617097
O27   O     O_R   0.499970 0.061600 0.465200 -0.618463
O28   O     O_R   0.499970 0.938400 0.465200 -0.618555
O29   O     O_R   0.999970 0.561600 0.465200 -0.618468
O30   O     O_R   0.999970 0.438400 0.465200 -0.618553
O31   O     O_R   0.438410 0.000000 0.473200 -0.609226
O32   O     O_R   0.938410 0.500000 0.473200 -0.609198
O33   O     O_R   0.438360 0.000000 0.403580 -0.621488
O34   O     O_R   0.465210 0.561620 0.465220 -0.618270
O35   O     O_R   0.938360 0.500000 0.403580 -0.621496
O36   O     O_R   0.534760 0.500000 0.596460 -0.618329
O37   O     O_R   0.034760 0.000000 0.596460 -0.618331
O38   O     O_R   0.465190 0.500000 0.526830 -0.618168
O39   O     O_R   0.965190 1.000000 0.526830 -0.618166
O40   O     O_R   0.534770 0.438380 0.534860 -0.618183
O41   O     O_R   0.534770 0.561620 0.534860 -0.618171
O42   O     O_R   0.034770 0.938380 0.534860 -0.618212
O43   O     O_R   0.034770 0.061620 0.534860 -0.618138
O44   O     O_3   0.280838 0.986929 0.359162 -0.647838
O45   O     O_R   0.965210 0.938380 0.465220 -0.618328
O46   O     O_3   0.780840 0.487947 0.359327 -0.647826
O47   O     O_R   0.965210 0.061620 0.465220 -0.618242
O48   O     O_R   0.534790 0.500000 0.473270 -0.618174
O49   O     O_R   0.034790 0.000000 0.473270 -0.618171
O50   O     O_R   0.465230 0.500000 0.403640 -0.618066
Zn1   Zn    Zn3+2 0.500030 0.000000 0.546480 0.964788
Zn2   Zn    Zn3+2 0.999990 0.046460 0.000050 0.957644
Zn3   Zn    Zn3+2 0.499990 0.453540 0.000050 0.956864
Zn4   Zn    Zn3+2 0.499990 0.546460 0.000050 0.957392
Zn5   Zn    Zn3+2 0.000030 0.500000 0.546480 0.964815
Zn6   Zn    Zn3+2 0.499960 0.000000 0.453520 0.958239
Zn7   Zn    Zn3+2 0.999960 0.500000 0.453520 0.958232
Zn8   Zn    Zn3+2 0.546440 0.500000 0.546540 0.958246
Zn9   Zn    Zn3+2 0.046440 1.000000 0.546540 0.958250
Zn10  Zn    Zn3+2 0.453540 0.500000 0.453560 0.958520
Zn11  Zn    Zn3+2 0.953540 1.000000 0.453560 0.958521
Zn12  Zn    Zn3+2 0.999990 0.953540 0.000050 0.956601

loop_
_geom_bond_atom_site_label_1
_geom_bond_atom_site_label_2
_ccdc_geom_bond_type
C22   C29   S    
C81   C126  S    
C26   H32   S    
C28   H20   S    
C107  C112  S    
C36   C42   S    
C107  C129  S    
O2    Zn11  S    
C110  H51   S    
C15   C32   T    
O33   Zn6   S    
O34   Zn10  S    
C123  O29   A    
C29   H22   S    
C178  H29   S    
C18   H24   S    
C132  H53   S    
O26   Zn5   S    
C107  H64   S    
C140  C159  S    
C53   C64   S    
C131  H69   S    
C73   H59   S    
O37   Zn9   S    
C85   H88   S    
C27   C90   S    
C86   H91   S    
C97   H7    S    
C2    C90   S    
C140  H12   S    
C57   H42   S    
C9    C19   S    
C10   C20   S    
C6    C94   S    
C105  C176  S    
C179  H30   S    
C70   C74   S    
C185  O14   A    
C159  C161  S    
C144  C160  S    
C73   C181  S    
C169  O23   A    
O28   Zn6   S    
C4    C18   S    
C48   C50   S    
C149  C186  S    
O16   Zn12  S    
C155  O46   S    
C72   C132  S    
C118  C182  S    
C146  C161  S    
C11   C20   S    
C123  O25   A    
C56   C123  S    
C124  O26   A    
C128  C135  S    
C47   C64   T    
C146  C157  S    
C67   C105  T    
C5    C18   S    
C92   H107  S    
O7    Zn12  S    
C69   C172  S    
C46   H50   S    
C108  C113  S    
C41   H27   S    
C111  C130  S    
C15   C184  S    
C153  C156  S    
C79   H45   S    
O48   Zn8   S    
O27   Zn6   S    
C21   C28   S    
C27   H43   S    
C89   H101  S    
C91   H99   S    
C83   O44   S    
C14   C168  S    
C117  C135  T    
C118  C136  T    
C43   C61   T    
C4    C89   S    
C57   C154  S    
C147  C162  T    
C88   H96   S    
C140  C145  S    
C56   C101  T    
C46   C77   S    
C55   C100  T    
C93   H103  S    
C7    C22   S    
C145  C157  S    
C44   C62   T    
C182  O8    A    
C72   C180  S    
C170  O34   A    
O11   Zn12  S    
C43   C173  S    
C97   H9    S    
C38   C53   S    
C145  C161  S    
C39   C60   S    
C24   C121  S    
C175  O3    A    
C82   H79   S    
C112  C131  S    
C42   H28   S    
C24   H48   S    
C59   H38   S    
C172  O47   A    
C5    C21   S    
C174  O49   A    
C125  C127  S    
C73   C77   S    
C80   H71   S    
C141  H13   S    
C142  C156  S    
C78   C125  S    
C35   C132  S    
C2    C181  S    
O49   Zn9   S    
C40   C60   S    
C3    O18   A    
C127  C134  S    
C14   C31   T    
C173  O48   A    
C74   C98   S    
O22   Zn1   S    
O43   Zn9   S    
C93   H104  S    
C108  H66   S    
O47   Zn11  S    
C8    C29   S    
C120  O22   A    
C85   H86   S    
C44   C174  S    
C45   C175  S    
C78   C80   S    
C13   C57   S    
C150  C166  T    
C168  O39   A    
C112  C127  S    
C70   C110  S    
C104  C165  S    
C141  C159  S    
C7    C17   S    
C177  O6    A    
C91   H97   S    
C89   C91   S    
C171  O45   A    
C38   C48   S    
C36   C52   S    
C37   C53   S    
C152  O32   A    
C1    O20   A    
C90   H46   S    
C180  H31   S    
C94   C95   S    
C51   C62   S    
O21   Zn7   S    
C53   C60   S    
C68   H44   S    
C35   C76   S    
C8    C19   S    
C95   H108  S    
C107  C125  S    
C149  C164  T    
C49   C51   S    
C113  H61   S    
C2    C106  S    
O5    Zn3   S    
C115  C128  S    
C186  O17   A    
C87   H92   S    
C144  C156  S    
C147  C151  S    
C27   C181  S    
C99   C117  S    
C138  C158  S    
C103  C154  S    
C83   C84   S    
C92   H106  S    
O15   Zn4   S    
O3    Zn12  S    
C170  O41   A    
C80   H73   S    
C119  C183  S    
C109  C114  S    
C144  H65   S    
C122  O24   A    
C82   H78   S    
C165  C179  S    
C35   H49   S    
O35   Zn7   S    
C23   C74   S    
C139  H2    S    
C173  O50   A    
C13   H47   S    
C169  O40   A    
C23   C57   S    
C6    C17   S    
C34   C49   S    
C126  C128  S    
C84   H85   S    
C171  O42   A    
C79   C176  S    
C71   C121  S    
C148  C152  S    
O14   Zn3   S    
C42   C59   S    
O12   Zn5   S    
C115  H63   S    
C121  C165  S    
C99   O21   A    
O20   Zn6   S    
O41   Zn8   S    
C23   H1    S    
C19   C30   S    
C35   C79   S    
C41   C51   S    
C183  O10   A    
C109  C126  S    
C176  C180  S    
C138  H98   S    
C81   H81   S    
C50   C61   S    
C65   C103  T    
C11   H19   S    
C36   H35   S    
O1    Zn1   S    
C87   C88   S    
O19   Zn4   S    
O42   Zn9   S    
C155  C157  S    
C72   H58   S    
C12   C167  S    
C142  H54   S    
C7    C96   S    
C34   C41   S    
C174  O2    A    
C3    O19   A    
C83   H82   S    
C5    C11   S    
O17   Zn2   S    
C17   H23   S    
C16   C185  S    
C34   H34   S    
C116  C134  T    
C139  C153  S    
O38   Zn10  S    
C121  H52   S    
C6    C22   S    
C132  C176  S    
C94   H5    S    
C95   H4    S    
C114  H62   S    
O40   Zn8   S    
C181  H33   S    
C143  H55   S    
C58   C102  T    
C49   H41   S    
O6    Zn4   S    
C158  C160  S    
C77   C102  S    
C25   C68   S    
C152  O35   A    
O30   Zn7   S    
C1    O1    A    
C66   C104  T    
O32   Zn5   S    
C84   C85   S    
C138  C142  S    
C86   C87   S    
C141  C155  S    
C6    C8    S    
C115  C133  S    
C85   H89   S    
C65   C169  S    
C25   C75   S    
C86   H90   S    
C97   H8    S    
O36   Zn8   S    
C120  O27   A    
C111  C126  S    
C185  O15   A    
C87   H93   S    
C88   H94   S    
C141  C146  S    
O8    Zn2   S    
C138  C153  S    
C154  C178  S    
C167  O36   A    
C130  C133  S    
C80   H72   S    
C151  O33   A    
C73   C143  S    
C10   C28   S    
C3    C150  S    
C12   C30   T    
C69   C106  T    
C25   C179  S    
C24   C75   S    
C46   C90   S    
C26   C180  S    
C40   H26   S    
C34   C52   S    
C26   C79   S    
C84   H84   S    
C71   H57   S    
C37   C39   S    
C38   C40   S    
C11   C28   S    
C40   C50   S    
C109  H67   S    
C92   C93   S    
C86   O46   S    
C184  O11   A    
C153  O44   S    
C24   C68   S    
C140  C155  S    
C96   H10   S    
C13   C74   S    
C89   H102  S    
O10   Zn4   S    
C177  O5    A    
C91   H100  S    
C25   H21   S    
C130  C137  S    
O50   Zn10  S    
C36   C49   S    
C38   H37   S    
C54   C120  S    
O23   Zn10  S    
C168  O37   A    
C72   C76   S    
C146  H87   S    
C88   H95   S    
C81   C82   S    
C160  H14   S    
C112  H60   S    
C182  O7    A    
C161  H15   S    
C37   H36   S    
O13   Zn2   S    
C48   H40   S    
O24   Zn1   S    
C175  O4    A    
C114  C128  S    
C99   O12   A    
C60   H39   S    
C71   C179  S    
C83   H83   S    
C52   C63   S    
C23   C178  S    
C9    H17   S    
O18   Zn3   S    
C139  C158  S    
C26   C76   S    
C1    C116  S    
C108  C125  S    
C151  O31   A    
C158  C164  S    
C42   C51   S    
C68   C165  S    
C124  O30   A    
C111  H68   S    
C55   C122  S    
C156  C162  S    
O45   Zn11  S    
O29   Zn7   S    
C2    C143  S    
O31   Zn1   S    
C133  H70   S    
C96   H11   S    
C21   C32   S    
C93   H105  S    
C119  C137  T    
C41   C59   S    
C70   C178  S    
C67   C171  S    
C45   C63   T    
O4    Zn2   S    
C184  O13   A    
C13   C110  S    
C110  C154  S    
C52   C59   S    
C16   C33   T    
C129  C136  S    
C139  C144  S    
C96   C97   S    
C39   H25   S    
C37   C48   S    
C183  O9    A    
C108  C129  S    
C122  O28   A    
C81   H80   S    
C78   H75   S    
C4    C10   S    
C109  C130  S    
C172  O43   A    
C76   C101  S    
C7    C9    S    
C22   C33   S    
C157  C163  S    
C78   H74   S    
C113  C131  S    
C148  C163  T    
O9    Zn3   S    
C66   C170  S    
C142  C160  S    
C27   C77   S    
C46   C143  S    
C113  C127  S    
C9    C29   S    
O25   Zn5   S    
C58   C124  S    
C159  C166  S    
C186  O16   A    
C8    H16   S    
C47   C177  S    
C167  O38   A    
C70   H56   S    
C71   C75   S    
C4    C21   S    
C75   C100  S    
C17   C19   S    
C114  C133  S    
O39   Zn11  S    
C18   C20   S    
C94   H6    S    
C5    C92   S    
C95   H3    S    
C39   C50   S    
C145  H76   S    
C54   C98   T    
C111  C115  S    
C129  C131  S    
C10   H18   S    
C82   H77   S    
C20   C31   S    
