data_mof_unit_59040.cif
_audit_creation_date              2012-12-10T17:51:22-0500
_audit_creation_method            fapswitch 2.2
_symmetry_space_group_name_H-M    P1
_symmetry_Int_Tables_number       1
_space_group_crystal_system       triclinic
_cell_length_a                    14.677664
_cell_length_b                    14.806414
_cell_length_c                    17.172211
_cell_angle_alpha                 106.234449
_cell_angle_beta                  72.76499
_cell_angle_gamma                 114.86466
_cell_volume                      3181.80736728

loop_
_atom_site_label
_atom_site_type_symbol
_atom_type_description
_atom_site_fract_x
_atom_site_fract_y
_atom_site_fract_z
_atom_type_partial_charge
C1    C     C_R   0.118611 0.687779 0.513978 0.802984
C2    C     C_R   0.881395 0.312273 0.486407 0.794137
C3    C     C_R   0.185086 0.794947 0.524259 -0.055099
C4    C     C_R   0.814948 0.205210 0.477656 -0.046827
C5    C     C_R   0.210333 0.971560 0.573967 -0.205398
C6    C     C_R   0.790135 0.028202 0.433188 -0.211864
C7    C     C_R   0.144627 0.871031 0.559761 -0.198349
C8    C     C_R   0.855598 0.128901 0.446855 -0.220304
C9    C     C_R   0.291178 0.820410 0.500630 -0.262625
C10   C     C_R   0.708811 0.179838 0.497968 -0.259755
C11   C     C_R   0.359377 0.921122 0.513964 0.085682
C12   C     C_R   0.640954 0.078798 0.487688 0.084095
C13   C     C_R   0.316979 0.996907 0.552688 0.175764
C14   C     C_R   0.683536 0.002853 0.451872 0.177234
C15   C     C_R   0.467941 0.948234 0.491605 0.060181
C16   C     C_R   0.532484 0.051541 0.510251 0.058644
C17   C     C_R   0.486505 0.123859 0.552165 -0.240256
C18   C     C_R   0.514208 0.875688 0.451550 -0.238243
C19   C     C_R   0.381046 0.096990 0.571641 -0.248038
C20   C     C_R   0.619675 0.902575 0.433576 -0.247795
C21   C     C_R   0.317966 0.364007 0.339557 -0.018910
C22   C     C_R   0.682320 0.635570 0.661174 -0.019033
C23   C     C_R   0.987002 0.499836 0.652574 0.780257
C24   C     C_R   0.010432 0.496010 0.347365 0.790071
C25   C     C_R   0.225615 0.380766 0.370390 0.048102
C26   C     C_R   0.774966 0.619540 0.629537 0.048758
C27   C     C_R   0.280880 0.482018 0.493370 -0.012454
C28   C     C_R   0.718461 0.517246 0.507294 0.000533
C29   C     C_R   0.373881 0.463294 0.468405 -0.061164
C30   C     C_R   0.625233 0.535558 0.532868 -0.061514
C31   C     C_R   0.385374 0.392183 0.394546 0.088612
C32   C     C_R   0.613937 0.606663 0.606811 0.086643
C33   C     C_R   0.455473 0.513146 0.513569 0.049411
C34   C     C_R   0.543393 0.485414 0.488038 0.051277
C35   C     C_R   0.543398 0.403278 0.422373 -0.244523
C36   C     C_R   0.455308 0.594986 0.579517 -0.245358
C37   C     C_R   0.462932 0.352256 0.379461 0.091738
C38   C     C_R   0.535852 0.646086 0.622427 0.092556
C39   C     C_R   0.974566 0.493667 0.738719 -0.058435
C40   C     C_R   0.020172 0.499270 0.261800 -0.025309
C41   C     C_R   0.986871 0.414136 0.760246 0.074199
C42   C     C_R   0.986278 0.410141 0.203658 0.078558
C43   C     C_R   0.975167 0.415241 0.844675 -0.182550
C44   C     C_R   0.998325 0.418855 0.121886 -0.202145
C45   C     C_R   0.952927 0.492965 0.905204 0.118647
C46   C     C_R   0.039572 0.514297 0.099410 0.124511
C47   C     C_R   0.934261 0.566505 0.883378 -0.185774
C48   C     C_R   0.075985 0.601684 0.156832 -0.187008
C49   C     C_R   0.945334 0.567021 0.800525 -0.225030
C50   C     C_R   0.065882 0.594142 0.237944 -0.225686
C51   C     C_2   0.952003 0.498634 0.992022 0.027021
C52   C     C_2   0.041591 0.522735 0.015840 0.026067
Cu1   Cu    Cu3+1 0.916740 0.524770 0.521640 0.925359
Cu2   Cu    Cu3+1 0.083260 0.475230 0.478360 0.919548
H1    H     H_    0.735510 0.468983 0.449793 0.125745
H2    H     H_    0.263567 0.530133 0.550876 0.132663
H3    H     H_    0.831375 0.647278 0.667700 0.127105
H4    H     H_    0.169987 0.353736 0.331597 0.127792
H5    H     H_    0.602965 0.372953 0.406016 0.129478
H6    H     H_    0.395443 0.624931 0.596187 0.132249
H7    H     H_    0.092669 0.662439 0.282554 0.135881
H8    H     H_    0.933654 0.626565 0.784417 0.138388
H9    H     H_    0.915366 0.625807 0.930201 0.130332
H10   H     H_    0.108789 0.675637 0.139598 0.130404
H11   H     H_    0.681198 0.240956 0.519089 0.152733
H12   H     H_    0.318238 0.759309 0.473387 0.152409
H13   H     H_    0.937717 0.147110 0.430941 0.157459
H14   H     H_    0.062533 0.852755 0.578251 0.152509
H15   H     H_    0.177780 0.029421 0.602989 0.132504
H16   H     H_    0.822867 0.970164 0.406923 0.133871
N1    N     N_R   0.208390 0.438070 0.445820 -0.190477
N2    N     N_R   0.791610 0.561930 0.554180 -0.190311
O1    O     O_R   0.020090 0.662480 0.528530 -0.583812
O2    O     O_R   0.979910 0.337520 0.471470 -0.589672
O3    O     O_R   0.160710 0.620650 0.491980 -0.583633
O4    O     O_R   0.839290 0.379350 0.508020 -0.590000
O5    O     O_R   0.921540 0.523360 0.633990 -0.589023
O6    O     O_R   0.078460 0.476640 0.366010 -0.593234
O7    O     O_R   0.062170 0.481520 0.597440 -0.594644
O8    O     O_R   0.937830 0.518480 0.402560 -0.585388
C53   C     C_3   0.011000 0.329997 0.693097 -0.375319
C54   C     C_3   0.001630 0.237477 0.723384 -0.381814
C55   C     C_3   0.017780 0.154845 0.650432 -0.850686
H17   H     H_    0.958750 0.128810 0.612570 0.259820
H18   H     H_    0.095252 0.183642 0.610757 0.251147
H19   H     H_    0.011289 0.089289 0.673957 0.234874
H20   H     H_    0.060695 0.259906 0.760520 0.213098
H21   H     H_    0.924095 0.206074 0.762317 0.222534
H22   H     H_    0.957321 0.302710 0.650149 0.201646
H23   H     H_    0.090566 0.362293 0.657632 0.215088
C56   C     C_3   0.932776 0.306427 0.227585 -0.437187
C57   C     C_3   0.819974 0.287977 0.269673 -0.352386
C58   C     C_3   0.759582 0.176951 0.277028 -0.842801
H24   H     H_    0.752641 0.129682 0.214642 0.246248
H25   H     H_    0.798471 0.150267 0.307179 0.271008
H26   H     H_    0.681454 0.167662 0.314837 0.248393
H27   H     H_    0.815313 0.334926 0.332637 0.221479
H28   H     H_    0.783559 0.309695 0.233173 0.217384
H29   H     H_    0.936322 0.247368 0.171274 0.200440
H30   H     H_    0.972995 0.298252 0.269304 0.189312
H31   H     H_    0.529319 0.202447 0.572213 0.145605
H32   H     H_    0.471848 0.796533 0.433434 0.144511
C59   C     C_3   0.456226 0.248847 0.326611 -0.449605
C60   C     C_3   0.450625 0.175219 0.377266 -0.321979
C61   C     C_3   0.437339 0.070408 0.324533 -0.843040
H33   H     H_    0.364302 0.037621 0.302211 0.248517
H34   H     H_    0.502435 0.075020 0.270501 0.250466
H35   H     H_    0.435321 0.019452 0.362163 0.255870
H36   H     H_    0.521646 0.203116 0.401607 0.218547
H37   H     H_    0.384390 0.168552 0.430579 0.231321
H38   H     H_    0.385898 0.211830 0.300686 0.207382
H39   H     H_    0.524127 0.258305 0.274558 0.193967
C62   C     C_3   0.542070 0.749155 0.675850 -0.453141
C63   C     C_3   0.546222 0.822891 0.626020 -0.320989
C64   C     C_3   0.560519 0.927782 0.678898 -0.830746
H40   H     H_    0.496044 0.923350 0.733435 0.249307
H41   H     H_    0.634080 0.960231 0.700406 0.247314
H42   H     H_    0.562101 0.978925 0.641637 0.255315
H43   H     H_    0.611561 0.829403 0.571996 0.231297
H44   H     H_    0.474300 0.795191 0.602962 0.222340
H45   H     H_    0.474632 0.739107 0.728295 0.199448
H46   H     H_    0.612784 0.786561 0.701218 0.208404
C65   C     C_3   0.348883 0.333438 0.246142 -0.459422
C66   C     C_3   0.350020 0.408551 0.199083 -0.322500
C67   C     C_3   0.391622 0.383317 0.106359 -0.859882
H47   H     H_    0.472029 0.388323 0.094956 0.248208
H48   H     H_    0.343511 0.305819 0.080335 0.253316
H49   H     H_    0.390310 0.438024 0.074115 0.242527
H50   H     H_    0.271264 0.406752 0.207659 0.215785
H51   H     H_    0.399187 0.486547 0.223413 0.225465
H52   H     H_    0.427690 0.332976 0.228348 0.216191
H53   H     H_    0.294721 0.256390 0.225661 0.190583
C68   C     C_3   0.652701 0.666715 0.754680 -0.460447
C69   C     C_3   0.654474 0.593258 0.801893 -0.323056
C70   C     C_3   0.615646 0.620058 0.894929 -0.859789
H54   H     H_    0.664283 0.698044 0.919512 0.251805
H55   H     H_    0.534898 0.614658 0.907946 0.250353
H56   H     H_    0.618947 0.566495 0.927241 0.243447
H57   H     H_    0.605030 0.514752 0.778971 0.225327
H58   H     H_    0.733710 0.595678 0.791875 0.213761
H59   H     H_    0.706346 0.744405 0.774339 0.191115
H60   H     H_    0.573368 0.665883 0.773288 0.216367
C71   C     C_3   0.146678 0.554147 0.958216 -0.401748
C72   C     C_3   0.182286 0.661623 0.941469 -0.325018
C73   C     C_3   0.286165 0.689569 0.881576 -0.871014
H61   H     H_    0.345154 0.686017 0.907658 0.250497
H62   H     H_    0.280725 0.637068 0.821097 0.255133
H63   H     H_    0.310499 0.767763 0.870947 0.239951
H64   H     H_    0.126158 0.668157 0.914250 0.230451
H65   H     H_    0.189078 0.716666 0.000591 0.205156
H66   H     H_    0.204361 0.552036 0.986912 0.196209
H67   H     H_    0.146759 0.499169 0.899181 0.199023
C74   C     C_3   0.847232 0.471398 0.050439 -0.403415
C75   C     C_3   0.832090 0.563734 0.112506 -0.335340
C76   C     C_3   0.727239 0.533543 0.170956 -0.848967
H68   H     H_    0.664990 0.499157 0.135325 0.249882
H69   H     H_    0.720333 0.478501 0.207079 0.251814
H70   H     H_    0.718043 0.601623 0.214932 0.242068
H71   H     H_    0.891950 0.599879 0.150282 0.232588
H72   H     H_    0.837939 0.620377 0.078539 0.206487
H73   H     H_    0.786103 0.438467 0.013609 0.196151
H74   H     H_    0.835085 0.411478 0.083460 0.196632
H75   H     H_    0.971701 0.351689 0.076210 0.119229
H76   H     H_    0.985866 0.357989 0.864710 0.115990
H77   H     H_    0.349358 0.155170 0.602746 0.142536
H78   H     H_    0.651509 0.844138 0.404590 0.141690

loop_
_geom_bond_atom_site_label_1
_geom_bond_atom_site_label_2
_ccdc_geom_bond_type
C70   H56   S    
C60   H37   S    
C6    H16   S    
C58   H24   S    
C29   C33   A    
C65   H53   S    
C76   H69   S    
C26   N2    A    
C15   C18   A    
C2    C4    S    
C4    C8    A    
C63   C64   S    
C57   H28   S    
C65   C66   S    
C39   C41   A    
Cu1   Cu2   S    
C61   H34   S    
C68   H60   S    
C22   C32   A    
C35   H5    S    
C35   C37   A    
C34   C35   A    
C3    C7    A    
C47   H9    S    
C60   H36   S    
C40   C50   A    
C48   H10   S    
C27   C29   A    
C45   C51   S    
C15   C16   A    
C46   C52   S    
C33   C36   A    
C59   H38   S    
C42   C56   S    
C18   H32   S    
C17   H31   S    
C9    H12   S    
C72   H65   S    
C17   C19   A    
C7    H14   S    
Cu2   O2    S    
C11   C15   A    
C24   O8    A    
C62   H46   S    
C12   C16   A    
C16   C17   A    
C64   H41   S    
C67   H49   S    
C5    H15   S    
C25   N1    A    
C44   H75   S    
C32   C38   A    
C56   H30   S    
C5    C13   A    
C63   H43   S    
C2    O2    A    
C53   H22   S    
C43   H76   S    
C40   C42   A    
C58   H25   S    
C71   H66   S    
C76   H70   S    
C41   C43   A    
C28   N2    A    
C42   C44   A    
C60   C61   S    
C73   H62   S    
C28   H1    S    
C44   C46   A    
C57   H27   S    
C73   H61   S    
C45   C47   A    
C61   H35   S    
C46   C48   A    
C76   H68   S    
C52   C71   S    
Cu2   N1    S    
C22   C68   S    
C51   C52   D    
C1    O3    A    
C14   C20   A    
C70   H54   S    
Cu1   O8    S    
C47   C49   A    
C69   H57   S    
C37   C59   S    
C38   C62   S    
C30   C34   A    
C27   H2    S    
C13   C19   A    
C6    C8    A    
C53   C54   S    
C31   C37   A    
C27   N1    A    
C74   H73   S    
C59   H39   S    
C1    C3    S    
C21   C65   S    
Cu1   O5    S    
C75   H72   S    
C72   H64   S    
C3    C9    A    
C6    C14   A    
C21   C31   A    
C55   H17   S    
C64   H42   S    
C41   C53   S    
C33   C34   A    
C66   H51   S    
C23   O5    A    
C9    C11   A    
C75   C76   S    
C10   C12   A    
C53   H23   S    
C24   O6    A    
C71   H67   S    
C55   H18   S    
C12   C14   A    
C58   H26   S    
C67   H47   S    
C54   H20   S    
Cu1   O4    S    
C25   H4    S    
C4    C10   A    
C36   C38   A    
C56   C57   S    
C73   H63   S    
C2    O4    A    
C5    C7    A    
C62   C63   S    
C10   H11   S    
C70   H55   S    
C21   C25   A    
C51   C74   S    
C49   H8    S    
C65   H52   S    
Cu1   O1    S    
C72   C73   S    
C36   H6    S    
C39   C49   A    
C69   C70   S    
C69   H58   S    
C20   H78   S    
C61   H33   S    
C68   H59   S    
C74   H74   S    
C1    O1    A    
C28   C30   A    
C75   H71   S    
C43   C45   A    
C56   H29   S    
C30   C32   A    
C11   C13   A    
C64   H40   S    
C68   C69   S    
C54   H21   S    
C48   C50   A    
C57   C58   S    
C24   C40   S    
C66   H50   S    
C18   C20   A    
C26   H3    S    
Cu2   O7    S    
Cu2   O3    S    
C55   H19   S    
C62   H45   S    
C8    H13   S    
C29   C31   A    
C54   C55   S    
C22   C26   A    
C59   C60   S    
C67   H48   S    
C50   H7    S    
C19   H77   S    
C23   O7    A    
C74   C75   S    
Cu1   N2    S    
C23   C39   S    
C63   H44   S    
C71   C72   S    
C66   C67   S    
Cu2   O6    S    
