data_mof_unit_57789.cif
_audit_creation_date              2012-12-11T15:41:07-0500
_audit_creation_method            fapswitch 2.2
_symmetry_space_group_name_H-M    P1
_symmetry_Int_Tables_number       1
_space_group_crystal_system       triclinic
_cell_length_a                    19.094992
_cell_length_b                    10.982094
_cell_length_c                    18.809377
_cell_angle_alpha                 90.023667
_cell_angle_beta                  90.199986
_cell_angle_gamma                 89.956467
_cell_volume                      3944.3572321

loop_
_atom_site_label
_atom_site_type_symbol
_atom_type_description
_atom_site_fract_x
_atom_site_fract_y
_atom_site_fract_z
_atom_type_partial_charge
C1    C     C_R   0.724426 0.962223 0.856172 0.546842
C2    C     C_R   0.275668 0.962296 0.143753 0.548593
C3    C     C_R   0.227171 0.456363 0.853409 0.545951
C4    C     C_R   0.775894 0.462957 0.143584 0.549951
C5    C     C_R   0.703081 0.479309 0.034761 0.027134
C6    C     C_R   0.301373 0.472032 0.961530 0.014474
C7    C     C_R   0.202438 0.976413 0.035126 0.008631
C8    C     C_R   0.795739 0.984270 0.965854 0.030215
C9    C     C_R   0.695116 0.466176 0.961944 0.018200
C10   C     C_R   0.306858 0.453951 0.034132 0.016119
C11   C     C_R   0.194557 0.964322 0.962235 0.009986
C12   C     C_R   0.803310 0.971260 0.038769 0.018458
C13   C     C_R   0.817378 0.414891 0.951300 -0.152569
C14   C     C_R   0.218777 0.297423 0.026087 -0.147748
C15   C     C_R   0.317142 0.916153 0.951262 -0.157823
C16   C     C_R   0.683020 0.906972 0.047485 -0.152365
C17   C     C_R   0.824377 0.422313 0.024761 -0.149171
C18   C     C_R   0.214933 0.312689 0.952862 -0.158650
C19   C     C_R   0.323923 0.921647 0.024820 -0.149631
C20   C     C_R   0.677035 0.912199 0.974009 -0.150602
C21   C     C_3   0.631111 0.433823 0.049493 -0.284750
C22   C     C_3   0.313152 0.606044 0.969278 -0.247072
C23   C     C_3   0.130972 0.928870 0.049738 -0.290747
C24   C     C_3   0.869525 0.947238 0.952046 -0.284565
C25   C     C_3   0.622433 0.417539 0.969888 -0.260234
C26   C     C_3   0.319947 0.585472 0.048663 -0.280494
C27   C     C_3   0.122356 0.913536 0.970072 -0.261252
C28   C     C_3   0.877754 0.930817 0.031703 -0.261456
C29   C     C_R   0.750809 0.424925 0.919911 0.016151
C30   C     C_R   0.260660 0.375451 0.068136 0.021670
C31   C     C_R   0.250557 0.925257 0.919900 0.012810
C32   C     C_R   0.748593 0.924193 0.079978 0.016327
C33   C     C_R   0.502802 0.162063 0.422902 -0.004693
C34   C     C_R   0.515535 0.172184 0.569747 0.057093
C35   C     C_R   0.978452 0.669942 0.432969 0.057071
C36   C     C_R   0.990038 0.671828 0.580092 -0.003146
C37   C     C_R   0.537103 0.259855 0.454509 0.020373
C38   C     C_R   0.543936 0.263781 0.526899 0.005897
C39   C     C_R   0.973478 0.778562 0.470431 -0.011473
C40   C     C_R   0.979046 0.780589 0.542689 0.012506
C41   C     C_R   0.489176 0.066861 0.538357 -0.171045
C42   C     C_R   0.484024 0.060862 0.464793 -0.169693
C43   C     C_R   0.979857 0.560791 0.544887 -0.165801
C44   C     C_R   0.975471 0.559639 0.470715 -0.163502
C45   C     C_R   0.529502 0.177612 0.850506 0.545470
C46   C     C_R   0.469943 0.177783 0.149145 0.554131
C47   C     C_R   0.030503 0.677415 0.851113 0.541842
C48   C     C_R   0.970335 0.677744 0.149466 0.552194
C49   C     C_3   0.524341 0.394335 0.449777 0.269797
C50   C     C_3   0.532391 0.398408 0.529600 0.263286
C51   C     C_3   0.013844 0.892959 0.459819 0.253522
C52   C     C_3   0.021662 0.895805 0.539445 0.267273
C53   C     C_R   0.752181 0.419054 0.423711 0.054307
C54   C     C_R   0.237798 0.434602 0.571153 0.008325
C55   C     C_R   0.263434 0.940408 0.430376 0.042571
C56   C     C_R   0.738343 0.931216 0.572032 0.011748
C57   C     C_R   0.781549 0.316206 0.455605 0.012429
C58   C     C_R   0.178721 0.418738 0.528056 0.038888
C59   C     C_R   0.319579 0.894994 0.469746 0.012534
C60   C     C_R   0.679324 0.924080 0.527919 0.041324
C61   C     C_R   0.780391 0.304377 0.528453 0.030270
C62   C     C_R   0.183452 0.412644 0.455245 0.024652
C63   C     C_R   0.316813 0.886411 0.542458 0.010139
C64   C     C_R   0.684659 0.918875 0.455131 0.014618
C65   C     C_R   0.712798 0.488032 0.540403 -0.179466
C66   C     C_R   0.307032 0.453868 0.464117 -0.153407
C67   C     C_R   0.205096 0.987877 0.542028 -0.160554
C68   C     C_R   0.809952 0.938666 0.466459 -0.159538
C69   C     C_R   0.715234 0.502279 0.466741 -0.084209
C70   C     C_R   0.301595 0.460486 0.538218 -0.156673
C71   C     C_R   0.208245 0.995930 0.467629 -0.101881
C72   C     C_R   0.803893 0.945328 0.540461 -0.172649
C73   C     C_3   0.854052 0.264767 0.451047 -0.269514
C74   C     C_3   0.122893 0.324082 0.531130 -0.247102
C75   C     C_3   0.358476 0.778188 0.461357 -0.265405
C76   C     C_3   0.619273 0.837141 0.529301 -0.256301
C77   C     C_3   0.853825 0.257837 0.531289 -0.240768
C78   C     C_3   0.125716 0.320853 0.450777 -0.260477
C79   C     C_3   0.356807 0.768886 0.541496 -0.246385
C80   C     C_3   0.622182 0.837186 0.448831 -0.263977
C81   C     C_R   0.748377 0.391296 0.571962 0.013257
C82   C     C_R   0.248855 0.418683 0.422441 0.012967
C83   C     C_R   0.256162 0.920911 0.579149 0.014507
C84   C     C_R   0.750593 0.915581 0.423442 0.015285
C85   C     C_R   0.738240 0.364784 0.852293 0.543262
C86   C     C_R   0.264137 0.354713 0.144178 0.547671
C87   C     C_R   0.238268 0.865066 0.852200 0.534678
C88   C     C_R   0.761702 0.864676 0.147689 0.545167
C89   C     C_R   0.726743 0.956997 0.646613 0.545963
C90   C     C_R   0.274193 0.960453 0.354753 0.566473
C91   C     C_R   0.226413 0.458179 0.646126 0.549983
C92   C     C_R   0.772571 0.456767 0.352921 0.558911
C93   C     C_R   0.531544 0.176950 0.643842 0.565807
C94   C     C_R   0.470326 0.175642 0.354725 0.558422
C95   C     C_R   0.028196 0.676804 0.646136 0.547120
C96   C     C_R   0.966068 0.676401 0.357716 0.587078
C97   C     C_R   0.739410 0.360515 0.645972 0.541245
C98   C     C_R   0.260574 0.362905 0.353382 0.549688
C99   C     C_R   0.240159 0.863699 0.647063 0.544614
C100  C     C_R   0.760810 0.862381 0.353578 0.541157
C101  C     C_2   0.496975 0.168982 0.920678 -0.116877
C102  C     C_2   0.500795 0.170510 0.078224 -0.112347
C103  C     C_2   0.000135 0.666973 0.922123 -0.127451
C104  C     C_2   0.003089 0.670499 0.079521 -0.125590
C105  C     C_2   0.495042 0.069335 0.038626 -0.164971
C106  C     C_2   0.506478 0.069472 0.961213 -0.166844
C107  C     C_2   0.000392 0.568693 0.040270 -0.165641
C108  C     C_2   0.014809 0.569951 0.963450 -0.167812
C109  C     C_R   0.765683 0.445504 0.067764 0.021356
C110  C     C_R   0.251519 0.408348 0.920899 0.016228
C111  C     C_R   0.265246 0.943854 0.067986 0.018110
C112  C     C_R   0.735015 0.943342 0.931861 0.020948
Cr1   Cr    Cr6+3 0.769260 0.163750 0.750730 1.035060
Cr2   Cr    Cr6+3 0.230740 0.163750 0.249270 1.029791
Cr3   Cr    Cr6+3 0.269260 0.663750 0.750730 1.023366
Cr4   Cr    Cr6+3 0.730740 0.663750 0.249270 1.044441
Cr5   Cr    Cr6+3 0.612640 0.009910 0.748780 1.013644
Cr6   Cr    Cr6+3 0.387360 0.009910 0.251220 1.013227
Cr7   Cr    Cr6+3 0.112640 0.509910 0.748780 1.020244
Cr8   Cr    Cr6+3 0.887360 0.509910 0.251220 1.010762
Cr9   Cr    Cr6+3 0.614190 0.322400 0.747710 1.039481
Cr10  Cr    Cr6+3 0.385810 0.322400 0.252290 1.036064
Cr11  Cr    Cr6+3 0.114190 0.822400 0.747710 1.042056
Cr12  Cr    Cr6+3 0.885810 0.822400 0.252290 1.023083
H1    H     H_    0.481943 0.983326 0.063443 0.136364
H2    H     H_    0.524274 0.985217 0.937383 0.140249
H3    H     H_    0.987129 0.482234 0.064576 0.143655
H4    H     H_    0.039198 0.489235 0.941089 0.158806
H5    H     H_    0.982789 0.969156 0.437040 0.142171
H6    H     H_    0.076374 0.883983 0.557600 0.171773
H7    H     H_    0.471585 0.421454 0.431269 0.162020
H8    H     H_    0.578041 0.450260 0.549188 0.156399
H9    H     H_    0.685319 0.553921 0.572747 0.110738
H10   H     H_    0.357818 0.466387 0.440341 0.146356
H11   H     H_    0.160085 0.024293 0.569475 0.136062
H12   H     H_    0.861707 0.940991 0.443698 0.134348
H13   H     H_    0.692769 0.583192 0.444104 0.165894
H14   H     H_    0.347078 0.483065 0.569838 0.208402
H15   H     H_    0.166145 0.039575 0.439151 0.176204
H16   H     H_    0.850248 0.957092 0.572972 0.184774
H17   H     H_    0.893564 0.329117 0.430609 0.154288
H18   H     H_    0.072911 0.359176 0.552066 0.151759
H19   H     H_    0.412103 0.790207 0.439930 0.140776
H20   H     H_    0.571013 0.877410 0.551199 0.153262
H21   H     H_    0.854683 0.174133 0.424886 0.144386
H22   H     H_    0.141433 0.238661 0.556541 0.146070
H23   H     H_    0.326665 0.707360 0.434088 0.151832
H24   H     H_    0.633783 0.748092 0.553108 0.134814
H25   H     H_    0.857631 0.164310 0.552301 0.186297
H26   H     H_    0.142315 0.231673 0.429938 0.159645
H27   H     H_    0.325070 0.691381 0.560272 0.175402
H28   H     H_    0.632740 0.746429 0.426206 0.177299
H29   H     H_    0.890293 0.323563 0.556811 0.139365
H30   H     H_    0.078118 0.358732 0.424920 0.135965
H31   H     H_    0.409375 0.777530 0.566576 0.143623
H32   H     H_    0.577161 0.884360 0.423568 0.142163
H33   H     H_    0.518214 0.255042 0.054407 0.105695
H34   H     H_    0.475114 0.251695 0.943203 0.111709
H35   H     H_    0.019938 0.755385 0.055728 0.104934
H36   H     H_    0.974873 0.746671 0.944324 0.101033
H37   H     H_    0.862617 0.388206 0.920339 0.140165
H38   H     H_    0.186366 0.227802 0.049880 0.150387
H39   H     H_    0.362495 0.890431 0.920201 0.136283
H40   H     H_    0.638260 0.875479 0.077570 0.138963
H41   H     H_    0.875346 0.405485 0.047854 0.136594
H42   H     H_    0.178076 0.257907 0.922820 0.139018
H43   H     H_    0.374675 0.903624 0.047883 0.134586
H44   H     H_    0.627459 0.887535 0.950298 0.133564
H45   H     H_    0.096074 0.999845 0.072487 0.141057
H46   H     H_    0.901276 0.023516 0.930542 0.144636
H47   H     H_    0.596815 0.506055 0.071836 0.146104
H48   H     H_    0.266011 0.660306 0.954981 0.157544
H49   H     H_    0.631445 0.346671 0.079570 0.136434
H50   H     H_    0.362782 0.636100 0.944079 0.143837
H51   H     H_    0.132313 0.841370 0.079428 0.136741
H52   H     H_    0.872787 0.860871 0.921417 0.132824
H53   H     H_    0.618209 0.320368 0.953963 0.154871
H54   H     H_    0.373769 0.601991 0.069180 0.142331
H55   H     H_    0.119137 0.816501 0.953699 0.153510
H56   H     H_    0.885387 0.834106 0.047219 0.154992
H57   H     H_    0.582387 0.479126 0.946344 0.144831
H58   H     H_    0.277361 0.628968 0.079927 0.139075
H59   H     H_    0.081662 0.974252 0.946894 0.143008
H60   H     H_    0.915119 0.996350 0.056078 0.141730
H61   H     H_    0.470495 0.991959 0.570551 0.119595
H62   H     H_    0.458740 0.982515 0.441567 0.144013
H63   H     H_    0.981950 0.475998 0.573821 0.122862
H64   H     H_    0.973026 0.473799 0.443063 0.118238
O1    O     O_R   0.784290 0.290360 0.830540 -0.521165
O2    O     O_R   0.215710 0.290360 0.169460 -0.527186
O3    O     O_R   0.284290 0.790360 0.830540 -0.531382
O4    O     O_R   0.715710 0.790360 0.169460 -0.521652
O5    O     O_R   0.554690 0.080440 0.673480 -0.518782
O6    O     O_R   0.445310 0.080440 0.326520 -0.513892
O7    O     O_R   0.054690 0.580440 0.673480 -0.506491
O8    O     O_R   0.945310 0.580440 0.326520 -0.521008
O9    O     O_R   0.543980 0.282110 0.666770 -0.472162
O10   O     O_R   0.456020 0.282110 0.333230 -0.510491
O11   O     O_R   0.043980 0.782110 0.666770 -0.497527
O12   O     O_R   0.956020 0.782110 0.333230 -0.493694
O13   O     O_R   0.679070 0.374030 0.674430 -0.509024
O14   O     O_R   0.320930 0.374030 0.325570 -0.510664
O15   O     O_R   0.179070 0.874030 0.674430 -0.504727
O16   O     O_R   0.820930 0.874030 0.325570 -0.516645
O17   O     O_3   0.665360 0.165350 0.749070 -0.260592
O18   O     O_3   0.334640 0.165350 0.250930 -0.260781
O19   O     O_3   0.165360 0.665350 0.749070 -0.256151
O20   O     O_3   0.834640 0.665350 0.250930 -0.263464
O21   O     O_R   0.762610 0.041070 0.825230 -0.493620
O22   O     O_R   0.237390 0.041070 0.174770 -0.496435
O23   O     O_R   0.262610 0.541070 0.825230 -0.498866
O24   O     O_R   0.737390 0.541070 0.174770 -0.490714
O25   O     O_R   0.667390 0.924160 0.829970 -0.527173
O26   O     O_R   0.332610 0.924160 0.170030 -0.527626
O27   O     O_R   0.167390 0.424160 0.829970 -0.525164
O28   O     O_R   0.832610 0.424160 0.170030 -0.525921
O29   O     O_R   0.553980 0.081420 0.821780 -0.500056
O30   O     O_R   0.446020 0.081420 0.178220 -0.501577
O31   O     O_R   0.053980 0.581420 0.821780 -0.498232
O32   O     O_R   0.946020 0.581420 0.178220 -0.496397
O33   O     O_R   0.543210 0.283170 0.826740 -0.518101
O34   O     O_R   0.456790 0.283170 0.173260 -0.509822
O35   O     O_R   0.043210 0.783170 0.826740 -0.519151
O36   O     O_R   0.956790 0.783170 0.173260 -0.518880
O37   O     O_R   0.678350 0.375000 0.822720 -0.502108
O38   O     O_R   0.321650 0.375000 0.177280 -0.495814
O39   O     O_R   0.178350 0.875000 0.822720 -0.499415
O40   O     O_R   0.821650 0.875000 0.177280 -0.501614
O41   O     O_R   0.785060 0.289300 0.670580 -0.514665
O42   O     O_R   0.214940 0.289300 0.329420 -0.522302
O43   O     O_R   0.285060 0.789300 0.670580 -0.521189
O44   O     O_R   0.714940 0.789300 0.329420 -0.522266
O45   O     O_R   0.763330 0.040090 0.676940 -0.495723
O46   O     O_R   0.236670 0.040090 0.323060 -0.495317
O47   O     O_R   0.263330 0.540090 0.676940 -0.502201
O48   O     O_R   0.736670 0.540090 0.323060 -0.481256
O49   O     O_R   0.668160 0.923110 0.670000 -0.517141
O50   O     O_R   0.331840 0.923110 0.330000 -0.521559
O51   O     O_R   0.168160 0.423110 0.670000 -0.513706
O52   O     O_R   0.831840 0.423110 0.330000 -0.532776
F1    F     F_    0.577790 0.453008 0.414397 -0.671449
F2    F     F_    0.470632 0.428451 0.563456 -0.683266
F3    F     F_    0.076490 0.871146 0.425294 -0.669882
F4    F     F_    0.987067 0.993397 0.569942 -0.684028

loop_
_geom_bond_atom_site_label_1
_geom_bond_atom_site_label_2
_ccdc_geom_bond_type
C58   C62   A    
C39   C51   S    
C4    C109  S    
C67   C83   A    
Cr2   O2    S    
Cr3   O19   S    
Cr9   O33   S    
C6    C110  A    
C41   C42   A    
C14   C18   A    
C93   O9    A    
C36   C95   S    
C34   C93   S    
Cr9   O17   S    
C53   C69   A    
C33   C94   S    
C49   C50   S    
C75   H19   S    
Cr3   O47   S    
C51   H5    S    
C9    C25   S    
Cr2   O46   S    
C63   C79   S    
C35   C96   S    
C16   H40   S    
C21   H49   S    
Cr7   O27   S    
C49   H7    S    
C78   H26   S    
Cr12  O12   S    
Cr8   O8    S    
C89   O45   A    
C12   C28   S    
C46   O30   A    
C33   C42   A    
C73   H17   S    
C13   C29   A    
Cr6   O18   S    
C74   H22   S    
C27   H55   S    
C55   C90   S    
Cr5   O17   S    
C52   F4    S    
C1    C112  S    
C54   C58   A    
C25   H53   S    
C103  H36   S    
C67   C71   A    
C23   H51   S    
C3    C110  S    
C85   O1    A    
C48   C104  S    
C91   O47   A    
C65   C69   A    
Cr9   O37   S    
Cr8   O32   S    
C90   O46   A    
C102  C105  D    
C96   O12   A    
C96   O8    A    
C57   C73   S    
C57   C61   A    
C18   H42   S    
Cr10  O18   S    
C64   C84   A    
C7    C11   A    
C47   O35   A    
C67   H11   S    
C77   H29   S    
C15   C19   A    
C74   C78   S    
C61   C81   A    
C97   O41   A    
Cr8   O28   S    
Cr12  O36   S    
C61   C77   S    
C56   C72   A    
C23   H45   S    
Cr6   O30   S    
C107  C108  S    
Cr5   O29   S    
C103  C108  D    
C11   C27   S    
C30   C86   S    
C24   H46   S    
Cr3   O43   S    
Cr2   O22   S    
C8    C12   A    
Cr1   O45   S    
Cr6   O50   S    
C74   H18   S    
C11   C31   A    
Cr4   O44   S    
C98   O42   A    
Cr12  O20   S    
Cr7   O31   S    
C64   C80   S    
C47   C103  S    
C34   C41   A    
C19   H43   S    
C14   C30   A    
Cr6   O6    S    
C100  O16   A    
C102  H33   S    
C7    C111  A    
C34   C38   A    
Cr12  O40   S    
C25   H57   S    
C80   H32   S    
C3    O27   A    
C26   H54   S    
C69   H13   S    
C20   H44   S    
C51   F3    S    
C2    C111  S    
C2    O22   A    
C86   O2    A    
C90   O50   A    
C1    O21   A    
C51   C52   S    
Cr8   O20   S    
C89   O49   A    
C36   C40   A    
C31   C87   S    
C17   H41   S    
Cr10  O38   S    
C22   H50   S    
C77   H25   S    
C39   C40   A    
C53   C57   A    
Cr1   O21   S    
C78   H30   S    
C71   H15   S    
C48   O36   A    
C3    O23   A    
C75   H23   S    
C40   C52   S    
C47   O31   A    
C92   O48   A    
Cr7   O51   S    
C108  H4    S    
Cr2   O18   S    
C73   H21   S    
C68   C72   A    
C94   O10   A    
C68   C84   A    
C55   C71   A    
C14   H38   S    
C35   C39   A    
C43   C44   A    
C5    C9    A    
C37   C38   A    
C66   C82   A    
C37   C49   S    
C10   C30   A    
C65   C81   A    
C54   C70   A    
C43   H63   S    
C16   C20   A    
Cr4   O48   S    
C53   C92   S    
C10   C26   S    
C36   C43   A    
C85   O37   A    
C5    C21   S    
Cr6   O26   S    
Cr10  O10   S    
C68   H12   S    
C15   C31   A    
C35   C44   A    
C28   H56   S    
Cr9   O9    S    
Cr4   O20   S    
C50   H8    S    
Cr8   O52   S    
C65   H9    S    
C26   H58   S    
C95   O11   A    
C56   C89   S    
C44   H64   S    
C101  H34   S    
C2    O26   A    
C23   C27   S    
C45   C101  S    
Cr10  O34   S    
C86   O38   A    
C87   O39   A    
C59   C63   A    
C32   C88   S    
C12   C32   A    
C72   H16   S    
C91   O51   A    
C13   H37   S    
C24   H52   S    
Cr5   O5    S    
C59   C75   S    
C41   H61   S    
Cr11  O11   S    
C55   C59   A    
C58   C74   S    
C24   C28   S    
C87   O3    A    
C48   O32   A    
C79   H27   S    
C15   H39   S    
C101  C106  D    
C80   H28   S    
C21   C25   S    
C52   H6    S    
C92   O52   A    
C95   O7    A    
C99   O15   A    
C94   O6    A    
C29   C85   S    
C62   C78   S    
C93   O5    A    
C76   C80   S    
C97   O13   A    
C76   H20   S    
C17   C109  A    
Cr2   O42   S    
Cr7   O19   S    
C99   O43   A    
Cr1   O41   S    
C38   C50   S    
C19   C111  A    
C88   O4    A    
C16   C32   A    
C79   H31   S    
Cr1   O1    S    
C105  C106  S    
C106  H2    S    
C98   O14   A    
Cr11  O35   S    
C4    O24   A    
Cr3   O23   S    
C107  H3    S    
C60   C64   A    
C45   O33   A    
C105  H1    S    
C8    C112  A    
C28   H60   S    
Cr3   O3    S    
C54   C91   S    
Cr4   O24   S    
C21   H47   S    
C1    O25   A    
C49   F1    S    
Cr9   O13   S    
C70   H14   S    
C42   H62   S    
C88   O40   A    
C81   C97   S    
C7    C23   S    
C5    C109  A    
C50   F2    S    
C8    C24   S    
C60   C76   S    
C33   C37   A    
Cr7   O7    S    
C62   C82   A    
C46   O34   A    
Cr5   O25   S    
C27   H59   S    
C82   C98   S    
Cr12  O16   S    
C84   C100  S    
C6    C10   A    
Cr5   O49   S    
C13   C17   A    
C56   C60   A    
Cr10  O14   S    
Cr11  O19   S    
Cr11  O39   S    
C66   C70   A    
C76   H24   S    
C18   C110  A    
C9    C29   A    
C22   C26   S    
C20   C112  A    
C63   C83   A    
C4    O28   A    
C73   C77   S    
Cr4   O4    S    
C100  O44   A    
C83   C99   S    
C104  H35   S    
Cr11  O15   S    
C66   H10   S    
C75   C79   S    
C104  C107  D    
C22   H48   S    
C45   O29   A    
Cr1   O17   S    
C46   C102  S    
C6    C22   S    
