data_mof_unit_16904.cif
_audit_creation_date              2013-03-05T15:50:49-0500
_audit_creation_method            fapswitch 2.2
_symmetry_space_group_name_H-M    P1
_symmetry_Int_Tables_number       1
_space_group_crystal_system       triclinic
_cell_length_a                    9.587123
_cell_length_b                    10.859411
_cell_length_c                    15.551445
_cell_angle_alpha                 88.169141
_cell_angle_beta                  74.187481
_cell_angle_gamma                 90.811936
_cell_volume                      1556.56496455

loop_
_atom_site_label
_atom_site_type_symbol
_atom_site_description
_atom_site_fract_x
_atom_site_fract_y
_atom_site_fract_z
_atom_type_partial_charge
O1    O     O_R   0.118810 0.319640 0.500010 -0.553368
O2    O     O_R   0.881240 0.319660 0.500000 -0.596958
C1    C     C_R   0.002254 0.262841 0.493563 0.870052
O3    O     O_R   0.055570 0.499980 0.629840 -0.599503
O4    O     O_R   0.818000 0.500010 0.629830 -0.536296
C2    C     C_R   0.918214 0.500046 0.671762 0.850003
Cu1   Cu    Cu3+1 0.140660 0.499990 0.500010 0.974241
Cu2   Cu    Cu3+1 0.859340 0.500010 0.499990 1.001613
O5    O     O_R   0.118760 0.680340 0.500000 -0.637582
O6    O     O_R   0.881190 0.680360 0.499990 -0.544265
O7    O     O_R   0.182000 0.499990 0.370170 -0.556684
O8    O     O_R   0.944430 0.500020 0.370160 -0.605481
C3    C     C_R   0.997913 0.737286 0.508267 0.830569
C4    C     C_R   0.081996 0.501300 0.328002 0.817264
C5    C     C_R   0.873121 0.490953 0.769681 -0.107614
C6    C     C_R   0.128836 0.509484 0.229752 -0.075015
C7    C     C_R   0.914854 0.415376 0.908079 -0.180248
C8    C     C_R   0.961829 0.432271 0.815712 -0.242474
C9    C     C_R   0.736777 0.533317 0.817066 0.297587
C10   C     C_R   0.678058 0.495956 0.908023 0.014065
C11   C     C_R   0.773791 0.446790 0.954376 0.046106
C12   C     C_R   0.529065 0.507294 0.954727 0.038840
C13   C     C_R   0.484021 0.495873 0.050247 -0.022905
C14   C     C_R   0.593808 0.471683 0.095110 0.361603
C15   C     C_R   0.731087 0.436580 0.046989 -0.221291
C16   C     C_R   0.423304 0.521600 0.907628 -0.110769
C17   C     C_R   0.280321 0.544250 0.951243 -0.220623
C18   C     C_R   0.234087 0.540456 0.044048 0.150663
C19   C     C_R   0.332590 0.508574 0.094462 0.084386
C20   C     C_R   0.087536 0.561165 0.086848 -0.191635
C21   C     C_R   0.035886 0.548653 0.179565 -0.191167
C22   C     C_R   0.272783 0.483655 0.186248 -0.143284
H1    H     H_    0.809430 0.410002 0.082636 0.181986
H2    H     H_    0.333386 0.438032 0.225264 0.258727
H3    H     H_    0.923743 0.568535 0.211663 0.189318
H4    H     H_    0.204154 0.560014 0.911958 0.156036
H5    H     H_    0.068190 0.400915 0.780421 0.165778
H6    H     H_    0.013062 0.587466 0.048461 0.155942
C23   C     C_R   0.272480 0.116729 0.419800 0.410410
C24   C     C_R   0.400211 0.062477 0.426626 -0.181912
C25   C     C_R   0.393602 0.954550 0.477883 -0.204400
C26   C     C_R   0.261162 0.892585 0.513123 -0.130597
C27   C     C_R   0.131938 0.940764 0.499764 -0.013917
C28   C     C_R   0.135917 0.063927 0.467823 0.011012
C29   C     C_R   0.004162 0.128517 0.487720 -0.149238
C30   C     C_R   0.872048 0.063666 0.520131 -0.255937
C31   C     C_R   0.868081 0.936675 0.532693 0.383668
C32   C     C_R   0.998813 0.872242 0.517643 -0.164797
H7    H     H_    0.583041 0.358835 0.599204 0.134099
C33   C     C_R   0.699102 0.664306 0.382351 -0.088929
C34   C     C_R   0.653105 0.747501 0.326847 -0.174177
H8    H     H_    0.730318 0.810412 0.282152 0.155966
C35   C     C_R   0.509134 0.748860 0.327593 -0.135623
H9    H     H_    0.473544 0.813129 0.283689 0.166986
C36   C     C_R   0.410411 0.666907 0.383778 -0.097585
C37   C     C_R   0.451884 0.581895 0.442843 0.227833
C38   C     C_R   0.601670 0.581227 0.442467 0.253730
N1    N     N_R   0.648320 0.501210 0.499140 -0.193808
C39   C     C_R   0.548562 0.422431 0.554515 -0.023178
C40   C     C_R   0.400650 0.422339 0.554397 -0.032975
N2    N     N_R   0.352470 0.501290 0.499110 -0.195500
H10   H     H_    0.770631 0.112029 0.537989 0.190434
Cl1   Cl    Cl    0.289866 0.231925 0.335506 -0.631813
H11   H     H_    0.504747 0.103265 0.391475 0.184442
H12   H     H_    0.492126 0.914687 0.485607 0.220112
H13   H     H_    0.261702 0.809498 0.553014 0.192210
Cl2   Cl    Cl    0.696030 0.865640 0.578234 -0.584255
H14   H     H_    0.812367 0.668989 0.374646 0.180508
H15   H     H_    0.303505 0.674744 0.377546 0.191270
H16   H     H_    0.324561 0.358677 0.598978 0.132272
H17   H     H_    0.987796 0.375573 0.943180 0.152290
Cl3   Cl    Cl    0.664181 0.659164 0.768929 -0.554300
Cl4   Cl    Cl    0.583793 0.499825 0.207526 -0.668446
H18   H     H_    0.448859 0.512106 0.836171 0.186528

loop_
_geom_bond_atom_site_label_1
_geom_bond_atom_site_label_2
_geom_bond_distance
_ccdc_geom_bond_type
C5    C8    1.399926 A    
C36   C37   1.417522 A    
C25   C26   1.392238 A    
C9    C10   1.416070 A    
Cu1   Cu2   2.697137 S    
C35   H9    1.083039 S    
C6    C21   1.397401 A    
C5    C9    1.406077 A    
C16   C17   1.383159 A    
C30   H10   1.083951 S    
C13   C19   1.437788 A    
C18   C19   1.421884 A    
C8    H5    1.083394 S    
C19   C22   1.401557 A    
C20   C21   1.392546 A    
O7    C4    1.300720 A    
C14   Cl4   1.761366 S    
C37   C38   1.434557 A    
C20   H6    1.083922 S    
O5    C3    1.298253 A    
Cu1   N2    2.026725 S    
Cu2   N1    2.026940 S    
C2    C5    1.464901 S    
C13   C14   1.435247 A    
C27   C32   1.423511 A    
C39   C40   1.418545 A    
C9    Cl3   1.777080 S    
O3    Cu1   1.960708 S    
C31   Cl2   1.763454 S    
C7    C8    1.388555 A    
C35   C36   1.388168 A    
C34   H8    1.082932 S    
C14   C15   1.390396 A    
O3    C2    1.300505 A    
C23   C24   1.394716 A    
C25   H12   1.078939 S    
N1    C39   1.367125 A    
C29   C30   1.399427 A    
C1    C29   1.464464 S    
C7    C11   1.400658 A    
C40   N2    1.366835 A    
O1    C1    1.297936 A    
C22   H2    1.064077 S    
Cu1   O7    1.948875 S    
C27   C28   1.408130 A    
C3    C32   1.477535 S    
C31   C32   1.410924 A    
C40   H16   1.081754 S    
Cu2   O8    1.960708 S    
C33   C34   1.387312 A    
C36   H15   1.059797 S    
C24   C25   1.386983 A    
C10   C12   1.424196 A    
C7    H17   1.084135 S    
C4    C6    1.469822 S    
C26   C27   1.415417 A    
C28   C29   1.417479 A    
Cu1   O5    1.972672 S    
C11   C15   1.386145 A    
C30   C31   1.385145 A    
O1    Cu1   1.966712 S    
C33   C38   1.416616 A    
C12   C13   1.430248 A    
O2    Cu2   1.972672 S    
O8    C4    1.302724 A    
O6    C3    1.309564 A    
C24   H11   1.082961 S    
O4    Cu2   1.948875 S    
C23   C28   1.420965 A    
C17   H4    1.084332 S    
C6    C22   1.398272 A    
C23   Cl1   1.755371 S    
H7    C39   1.081752 S    
C18   C20   1.405883 A    
O2    C1    1.302952 A    
C38   N1    1.381571 A    
O4    C2    1.299907 A    
C16   H18   1.079443 S    
C21   H3    1.082904 S    
C10   C11   1.413128 A    
Cu2   O6    1.966712 S    
C12   C16   1.410906 A    
C17   C18   1.388593 A    
C26   H13   1.079394 S    
C37   N2    1.383171 A    
C34   C35   1.377447 A    
C33   H14   1.059820 S    
C15   H1    1.085171 S    
