data_mof_unit_38870.cif
_audit_creation_date              2012-10-26T19:51:30-0400
_audit_creation_method            fapswitch 2.2
_symmetry_space_group_name_H-M    P1
_symmetry_Int_Tables_number       1
_space_group_crystal_system       triclinic
_cell_length_a                    19.435243
_cell_length_b                    18.364949
_cell_length_c                    9.097688
_cell_angle_alpha                 89.997311
_cell_angle_beta                  95.646092
_cell_angle_gamma                 90.000096
_cell_volume                      3231.45912027

loop_
_atom_site_label
_atom_site_type_symbol
_atom_type_description
_atom_site_fract_x
_atom_site_fract_y
_atom_site_fract_z
_atom_type_partial_charge
C1    C     C_R   0.367781 0.500000 0.501036 0.566564
C2    C     C_R   0.461308 0.199453 0.391377 -0.115480
C3    C     C_R   0.500000 0.839995 0.500000 -0.080470
C4    C     C_R   0.500000 0.160005 0.500000 -0.080470
C5    C     C_R   0.560795 0.961724 0.542659 -0.090371
C6    C     C_R   0.439205 0.038276 0.457341 -0.090371
C7    C     C_R   0.439205 0.961726 0.457341 -0.090405
C8    C     C_R   0.560795 0.038274 0.542658 -0.090405
C9    C     C_R   0.500000 0.077913 0.499999 0.039327
C10   C     C_R   0.500000 0.922087 0.500000 0.039327
C11   C     C_R   0.499952 0.500001 0.220697 0.565063
C12   C     C_R   0.632219 0.500000 0.498963 0.566563
C13   C     C_R   0.500048 0.499999 0.779303 0.565062
C14   C     C_1   0.499995 0.500001 0.065514 0.029914
C15   C     C_1   0.500005 0.499999 0.934486 0.029913
C16   C     C_R   0.744146 0.433968 0.498081 -0.101510
C17   C     C_R   0.255854 0.566032 0.501919 -0.101510
C18   C     C_R   0.255800 0.433966 0.500740 -0.101060
C19   C     C_R   0.744200 0.566034 0.499260 -0.101060
C20   C     C_R   0.815773 0.433995 0.498284 -0.114008
C21   C     C_R   0.184227 0.566005 0.501716 -0.114008
C22   C     C_R   0.184166 0.433993 0.500372 -0.113955
C23   C     C_R   0.460419 0.723569 0.390671 0.356405
C24   C     C_R   0.815834 0.566006 0.499628 -0.113955
C25   C     C_R   0.852134 0.500001 0.499148 0.025366
C26   C     C_R   0.147866 0.499999 0.500852 0.025366
C27   C     C_R   0.707759 0.500001 0.498675 0.024146
C28   C     C_R   0.292241 0.499999 0.501325 0.024146
C29   C     C_R   0.968338 0.547583 0.592649 -0.105740
C30   C     C_R   0.031662 0.452417 0.407351 -0.105740
C31   C     C_R   0.039982 0.547581 0.593071 -0.106965
C32   C     C_R   0.960018 0.452419 0.406928 -0.106965
C33   C     C_R   0.072159 0.499997 0.500426 0.030652
C34   C     C_R   0.539580 0.276431 0.609329 0.356405
C35   C     C_R   0.927841 0.500003 0.499574 0.030652
C36   C     C_R   0.539581 0.723564 0.609328 0.356366
C37   C     C_R   0.460419 0.276436 0.390672 0.356366
C38   C     C_R   0.461309 0.800552 0.391377 -0.115462
C39   C     C_R   0.538691 0.199448 0.608623 -0.115462
C40   C     C_R   0.538692 0.800547 0.608622 -0.115480
Cu1   Cu    Cu3+1 0.500000 0.573360 0.500000 1.140207
Cu2   Cu    Cu3+1 0.500000 0.426640 0.500000 1.140207
H1    H     H_    0.717399 0.382226 0.497894 0.169652
H2    H     H_    0.055372 0.415987 0.333445 0.117601
H3    H     H_    0.070327 0.584011 0.667292 0.116016
H4    H     H_    0.929673 0.415989 0.332708 0.116016
H5    H     H_    0.433102 0.830724 0.302808 0.170368
H6    H     H_    0.566898 0.169276 0.697192 0.170367
H7    H     H_    0.566899 0.830715 0.697193 0.170371
H8    H     H_    0.433101 0.169286 0.302807 0.170372
H9    H     H_    0.608940 0.933534 0.573871 0.124025
H10   H     H_    0.391060 0.066466 0.426129 0.124025
H11   H     H_    0.391060 0.933536 0.426130 0.124007
H12   H     H_    0.282601 0.617774 0.502106 0.169652
H13   H     H_    0.608940 0.066464 0.573870 0.124007
H14   H     H_    0.352845 0.593799 0.147798 0.350251
H15   H     H_    0.647154 0.406202 0.852202 0.350251
H16   H     H_    0.647160 0.593794 0.852240 0.350350
H17   H     H_    0.352840 0.406206 0.147759 0.350350
H18   H     H_    0.282537 0.382223 0.500753 0.169993
H19   H     H_    0.717463 0.617776 0.499247 0.169993
H20   H     H_    0.842859 0.382422 0.499624 0.122158
H21   H     H_    0.157141 0.617578 0.500376 0.122158
H22   H     H_    0.157190 0.382421 0.501489 0.121901
H23   H     H_    0.842810 0.617579 0.498511 0.121901
H24   H     H_    0.944628 0.584013 0.666555 0.117601
N1    N     N_R   0.500000 0.683620 0.500000 -0.264757
N2    N     N_R   0.500000 0.316380 0.500000 -0.264757
O1    O     O_R   0.400190 0.561980 0.499980 -0.470427
O2    O     O_2   0.461403 0.676367 0.114595 -0.232694
O3    O     O_3   0.368983 0.609625 0.249474 -0.512227
O4    O     O_2   0.538596 0.323633 0.885405 -0.232695
O5    O     O_2   0.640925 0.257432 0.829992 -0.304039
O6    O     O_3   0.631017 0.390375 0.750526 -0.512227
O7    O     O_2   0.640945 0.742545 0.829951 -0.304029
O8    O     O_2   0.538600 0.676384 0.885424 -0.232564
O9    O     O_3   0.630991 0.609596 0.750562 -0.512723
O10   O     O_2   0.461400 0.323616 0.114576 -0.232564
O11   O     O_2   0.359055 0.257455 0.170049 -0.304029
O12   O     O_R   0.599810 0.438020 0.500020 -0.470426
O13   O     O_3   0.369009 0.390404 0.249438 -0.512723
O14   O     O_R   0.599810 0.561980 0.500020 -0.470378
O15   O     O_R   0.400190 0.438020 0.499980 -0.470378
O16   O     O_R   0.500000 0.561940 0.288400 -0.443994
O17   O     O_R   0.500000 0.438060 0.711600 -0.443995
O18   O     O_R   0.500000 0.561940 0.711600 -0.444037
O19   O     O_R   0.500000 0.438060 0.288400 -0.444037
O20   O     O_2   0.359075 0.742568 0.170008 -0.304040
S1    S     S_3+6 0.411967 0.687438 0.229188 0.043350
S2    S     S_3+6 0.588032 0.312561 0.770812 0.043351
S3    S     S_3+6 0.588033 0.687428 0.770813 0.043243
S4    S     S_3+6 0.411967 0.312572 0.229187 0.043243

loop_
_geom_bond_atom_site_label_1
_geom_bond_atom_site_label_2
_ccdc_geom_bond_type
C7    C10   A    
C21   C26   A    
Cu2   O12   S    
Cu1   Cu2   S    
C6    C9    A    
C36   N1    A    
Cu1   N1    S    
Cu1   O18   S    
O5    S2    D    
C11   C14   S    
C20   C25   A    
C40   H7    S    
C37   N2    A    
C23   N1    A    
C2    H8    S    
H16   O9    S    
O13   S4    S    
C3    C38   A    
C11   O19   A    
C8    C9    A    
C13   O18   A    
C1    C28   S    
C23   S1    S    
C19   C27   A    
C37   S4    S    
O7    S3    D    
C16   C27   A    
Cu2   N2    S    
C30   H2    S    
C8    H13   S    
C12   C27   S    
C34   C39   A    
C32   C35   A    
C36   C40   A    
C18   C28   A    
C24   C25   A    
C34   N2    A    
O10   S4    D    
Cu1   O16   S    
C17   C21   A    
H15   O6    S    
C2    C4    A    
C34   S2    S    
O4    S2    D    
C26   C33   S    
O3    S1    S    
C4    C39   A    
C16   C20   A    
H14   O3    S    
C31   C33   A    
O11   S4    D    
C12   O14   A    
Cu2   O17   S    
C16   H1    S    
C38   H5    S    
C24   H23   S    
C25   C35   S    
C36   S3    S    
C18   H18   S    
C3    C40   A    
C13   C15   S    
C31   H3    S    
O2    S1    D    
C7    H11   S    
Cu1   O1    S    
O9    S3    S    
C30   C33   A    
C18   C22   A    
C17   C28   A    
C32   H4    S    
Cu2   O15   S    
H17   O13   S    
C5    C8    A    
C6    C7    A    
C11   O16   A    
C1    O15   A    
C23   C38   A    
C29   C35   A    
O6    S2    S    
C19   C24   A    
C5    C10   A    
C29   C31   A    
C3    C10   S    
C30   C32   A    
C2    C37   A    
C19   H19   S    
Cu1   O14   S    
C12   O12   A    
C20   H20   S    
C1    O1    A    
C21   H21   S    
O8    S3    D    
C22   H22   S    
C29   H24   S    
O20   S1    D    
C22   C26   A    
C13   O17   A    
C14   C15   T    
C5    H9    S    
Cu2   O19   S    
C6    H10   S    
C4    C9    S    
C17   H12   S    
C39   H6    S    
