data_mof_unit_65105.cif
_audit_creation_date              2012-12-10T18:15:55-0500
_audit_creation_method            fapswitch 2.2
_symmetry_space_group_name_H-M    P1
_symmetry_Int_Tables_number       1
_space_group_crystal_system       triclinic
_cell_length_a                    27.878197
_cell_length_b                    27.869962
_cell_length_c                    27.912994
_cell_angle_alpha                 109.386582
_cell_angle_beta                  109.626616
_cell_angle_gamma                 109.301053
_cell_volume                      16715.3101753

loop_
_atom_site_label
_atom_site_type_symbol
_atom_type_description
_atom_site_fract_x
_atom_site_fract_y
_atom_site_fract_z
_atom_type_partial_charge
C1    C     C_R   0.420434 0.420449 0.499991 0.825551
C2    C     C_R   0.206458 0.205684 0.499443 0.117871
C3    C     C_R   0.259603 0.206582 0.507643 0.201402
C4    C     C_R   0.579828 0.500010 0.579843 0.823077
C5    C     C_R   0.301420 0.250959 0.506978 -0.204745
C6    C     C_R   0.291353 0.294215 0.498261 0.024078
C7    C     C_R   0.237923 0.293465 0.489828 -0.017181
C8    C     C_1   0.161563 0.161115 0.499639 -0.037800
C9    C     C_1   0.337129 0.338773 0.498929 0.020317
C10   C     C_1   0.375325 0.375969 0.499476 -0.123664
C11   C     C_1   0.124063 0.123908 0.499780 -0.168980
C12   C     C_3   0.754460 0.441359 0.734024 -0.436808
C13   C     C_R   0.247625 0.548708 0.254802 -0.194060
C14   C     C_R   0.204218 0.495965 0.202508 0.065646
C15   C     C_R   0.204718 0.442993 0.194389 -0.018001
C16   C     C_R   0.579580 0.579592 0.499990 0.822931
C17   C     C_R   0.249213 0.445134 0.239733 -0.206012
C18   C     C_R   0.292253 0.498094 0.291666 0.122031
C19   C     C_R   0.291336 0.549804 0.299034 -0.159118
C20   C     C_1   0.159870 0.497935 0.158796 0.009543
C21   C     C_1   0.337505 0.499200 0.337319 -0.042896
C22   C     C_1   0.375261 0.499741 0.375248 -0.155416
C23   C     C_3   0.791462 0.502019 0.790994 0.314320
C24   C     C_1   0.122712 0.499294 0.122164 -0.122042
C25   C     C_R   0.801140 0.795100 0.552890 -0.172096
C26   C     C_R   0.793639 0.793557 0.500052 0.151339
C27   C     C_R   0.742407 0.748293 0.447201 -0.172307
C28   C     C_R   0.420129 0.499981 0.420115 0.833659
C29   C     C_R   0.698971 0.704872 0.447189 -0.171983
C30   C     C_R   0.706470 0.706417 0.500027 0.152020
C31   C     C_R   0.757704 0.751677 0.552878 -0.173549
C32   C     C_1   0.838404 0.838326 0.500061 -0.063856
C33   C     C_1   0.661688 0.661659 0.500013 -0.064718
C34   C     C_3   0.819473 0.549245 0.775463 0.034673
C35   C     C_1   0.624210 0.624202 0.500001 -0.167262
C36   C     C_1   0.875855 0.875792 0.500054 -0.166307
C37   C     C_R   0.998516 0.420498 0.918942 0.832475
C38   C     C_R   0.918422 0.500126 0.918429 0.825823
C39   C     C_R   0.998000 0.579707 0.077598 0.822137
C40   C     C_3   0.705673 0.440756 0.685653 -0.383458
C41   C     C_R   0.078094 0.500082 0.078095 0.826376
C42   C     C_R   0.999794 0.079578 0.579404 0.826792
C43   C     C_R   0.079527 0.079533 0.499955 0.827143
C44   C     C_R   0.000202 0.920430 0.420592 0.825775
C45   C     C_3   0.770176 0.548553 0.726920 -0.367495
C46   C     C_R   0.920439 0.920410 0.500026 0.825520
C47   C     C_R   0.052044 0.251009 0.757734 -0.169912
C48   C     C_R   0.999415 0.206416 0.705901 0.150759
C49   C     C_R   0.946606 0.205553 0.697601 -0.170610
C50   C     C_R   0.946429 0.249001 0.740844 -0.173254
C51   C     C_R   0.999057 0.293599 0.792674 0.151050
C52   C     C_3   0.701404 0.514969 0.763130 -0.375822
C53   C     C_R   0.051865 0.294457 0.800980 -0.165115
C54   C     C_1   0.999592 0.161657 0.661302 -0.061384
C55   C     C_1   0.998872 0.338388 0.837232 -0.058497
C56   C     C_1   0.836680 0.500932 0.836587 -0.100069
C57   C     C_1   0.998709 0.375871 0.874524 -0.158653
C58   C     C_1   0.999705 0.124193 0.623941 -0.164273
C59   C     C_R   0.993442 0.795592 0.242014 -0.171889
C60   C     C_R   0.999760 0.793705 0.293242 0.151298
C61   C     C_R   0.005632 0.748095 0.300345 -0.172318
C62   C     C_R   0.005188 0.704646 0.256495 -0.172104
C63   C     C_R   0.998859 0.706527 0.205263 0.151968
C64   C     C_3   0.748807 0.513680 0.810959 -0.364863
C65   C     C_R   0.992996 0.752143 0.198165 -0.173514
C66   C     C_1   0.000081 0.838420 0.338351 -0.063773
C67   C     C_1   0.662392 0.500526 0.662199 -0.100873
C68   C     C_1   0.998446 0.661772 0.160104 -0.064924
C69   C     C_1   0.998178 0.624312 0.122379 -0.167095
C70   C     C_1   0.000227 0.875852 0.375985 -0.165850
C71   C     C_1   0.873857 0.500370 0.873911 -0.173370
C72   C     C_3   0.708693 0.501124 0.708262 0.285145
C73   C     C_3   0.861478 0.611567 0.828890 -0.890073
C74   C     C_2   0.223738 0.337804 0.480030 0.854891
C75   C     C_3   0.273722 0.161635 0.517247 -0.868547
C76   C     C_2   0.160310 0.385047 0.140042 0.842060
C77   C     C_1   0.624641 0.500213 0.624570 -0.169342
C78   C     C_R   0.196225 0.248847 0.490723 -0.259769
Cu1   Cu    Cu3+1 0.500150 0.458980 0.459120 0.968967
Cu2   Cu    Cu3+1 0.499850 0.541020 0.540880 0.977787
Cu3   Cu    Cu3+1 0.957230 0.459100 0.998270 0.979113
Cu4   Cu    Cu3+1 0.039250 0.541110 0.998230 0.965691
Cu5   Cu    Cu3+1 0.041170 0.999960 0.541120 0.967010
Cu6   Cu    Cu3+1 0.958830 0.000040 0.458870 0.970705
H1    H     H_    0.734008 0.406301 0.743155 0.179002
H2    H     H_    0.764061 0.753397 0.594021 0.137835
H3    H     H_    0.840514 0.829829 0.594043 0.139409
H4    H     H_    0.736049 0.746574 0.406057 0.139536
H5    H     H_    0.659594 0.670145 0.406036 0.139322
H6    H     H_    0.092845 0.328674 0.840832 0.143019
H7    H     H_    0.093159 0.252191 0.764700 0.141180
H8    H     H_    0.905627 0.171341 0.657746 0.139256
H9    H     H_    0.905314 0.247825 0.733872 0.137656
H10   H     H_    0.988083 0.754111 0.158787 0.138196
H11   H     H_    0.705137 0.558968 0.781218 0.167217
H12   H     H_    0.710907 0.429815 0.646245 0.169010
H13   H     H_    0.988847 0.830595 0.235976 0.139855
H14   H     H_    0.010527 0.746119 0.339716 0.139748
H15   H     H_    0.009769 0.669634 0.262527 0.139550
H16   H     H_    0.656996 0.482375 0.750791 0.166382
H17   H     H_    0.726916 0.478520 0.819318 0.163793
H18   H     H_    0.773098 0.555631 0.853000 0.168521
H19   H     H_    0.776525 0.539495 0.688211 0.143283
H20   H     H_    0.772570 0.592058 0.742307 0.176464
H21   H     H_    0.846345 0.537083 0.757309 0.148786
H22   H     H_    0.882248 0.641734 0.815080 0.235860
H23   H     H_    0.783261 0.431092 0.717879 0.163724
H24   H     H_    0.837764 0.628522 0.848298 0.242280
H25   H     H_    0.897144 0.612374 0.863026 0.245869
H26   H     H_    0.168209 0.370134 0.471790 0.341394
H27   H     H_    0.238271 0.128310 0.517130 0.241527
H28   H     H_    0.281169 0.138433 0.481994 0.233079
H29   H     H_    0.314300 0.183954 0.560212 0.232385
H30   H     H_    0.128087 0.297456 0.098687 0.341769
H31   H     H_    0.155040 0.247253 0.484310 0.197077
H32   H     H_    0.342367 0.251806 0.513438 0.150013
H33   H     H_    0.324429 0.591042 0.339038 0.141555
H34   H     H_    0.247632 0.589302 0.261469 0.144687
H35   H     H_    0.661935 0.405898 0.672207 0.173153
H36   H     H_    0.250790 0.405524 0.234779 0.188604
O1    O     O_R   0.440300 0.405520 0.465490 -0.583940
O2    O     O_R   0.965060 0.059870 0.524970 -0.578406
O3    O     O_R   0.094600 0.059810 0.534710 -0.580493
O4    O     O_R   0.440040 0.474790 0.534530 -0.568575
O5    O     O_R   0.025070 0.059880 0.465260 -0.576521
O6    O     O_R   0.034940 0.940120 0.475030 -0.579646
O7    O     O_R   0.965400 0.940190 0.405570 -0.579075
O8    O     O_R   0.974930 0.940120 0.534740 -0.579299
O9    O     O_R   0.905400 0.940180 0.465280 -0.579445
O10   O     O_R   0.560200 0.465360 0.525540 -0.581948
O11   O     O_R   0.559940 0.534640 0.594570 -0.582183
O12   O     O_R   0.033070 0.474870 0.938590 -0.579837
O13   O     O_R   0.559960 0.525210 0.465470 -0.579570
O14   O     O_R   0.559700 0.594480 0.534510 -0.580687
O15   O     O_R   0.440060 0.465360 0.405430 -0.577834
O16   O     O_R   0.439800 0.534640 0.474460 -0.574860
O17   O     O_R   0.963810 0.405620 0.938630 -0.574637
O18   O     O_2   0.255323 0.373615 0.472584 -0.590685
O19   O     O_R   0.173337 0.338301 0.478882 -0.768954
O20   O     O_2   0.124254 0.381424 0.097235 -0.592415
O21   O     O_R   0.160005 0.333996 0.137689 -0.767321
O22   O     O_R   0.903540 0.465480 0.938210 -0.581754
O23   O     O_R   0.972800 0.534740 0.938170 -0.582074
O24   O     O_R   0.963400 0.525340 0.057910 -0.579932
O25   O     O_R   0.032660 0.594600 0.057870 -0.580553
O26   O     O_R   0.023680 0.465480 0.058320 -0.567099
O27   O     O_R   0.092940 0.534740 0.058290 -0.584481
O28   O     O_R   0.034600 0.059810 0.594420 -0.579066

loop_
_geom_bond_atom_site_label_1
_geom_bond_atom_site_label_2
_ccdc_geom_bond_type
C25   C31   A    
C63   C65   A    
C44   O7    A    
C26   C32   S    
C27   C29   A    
C28   O15   A    
C38   O23   A    
C78   H31   S    
C67   C77   T    
Cu5   O8    S    
C42   O28   A    
C43   O5    A    
C46   O9    A    
C29   H5    S    
Cu3   Cu4   S    
C23   C56   S    
C66   C70   T    
C64   H18   S    
Cu1   O1    S    
C12   C23   S    
C44   O6    A    
C75   H28   S    
C29   C30   A    
C12   H1    S    
Cu5   Cu6   S    
C52   C72   S    
C32   C36   T    
C46   O8    A    
H26   O19   S    
C40   H12   S    
C18   C19   A    
C16   C35   S    
Cu2   O4    S    
C30   C31   A    
Cu6   O2    S    
C18   C21   S    
Cu6   O9    S    
C25   H3    S    
Cu2   O14   S    
C52   H11   S    
C67   C72   S    
C62   H15   S    
C45   H19   S    
C17   H36   S    
C63   C68   S    
Cu3   O24   S    
C41   O26   A    
C20   C24   T    
C68   C69   T    
C44   C70   S    
C75   H29   S    
C7    C74   S    
C3    C75   S    
C9    C10   T    
C47   C53   A    
C76   O21   S    
C56   C71   T    
Cu6   O7    S    
C15   C76   S    
C16   O14   A    
C59   C60   A    
C31   H2    S    
C37   O17   A    
C13   C14   A    
C45   C72   S    
C24   C41   S    
C38   O22   A    
C42   C58   S    
C61   C62   A    
C6    C9    S    
C16   O13   A    
Cu4   O27   S    
C4    O11   A    
C76   O20   D    
C64   H17   S    
Cu1   O13   S    
C13   C19   A    
H30   O21   S    
C13   H34   S    
C52   C64   S    
C48   C54   S    
C73   H24   S    
C4    O10   A    
C50   C51   A    
C25   C26   A    
Cu1   O10   S    
C52   H16   S    
Cu5   O28   S    
C60   C61   A    
C51   C53   A    
C12   C40   S    
Cu3   O17   S    
C62   C63   A    
C2    C78   A    
C45   H20   S    
C14   C20   S    
C74   O18   D    
C47   C48   A    
C41   O27   A    
C23   C34   S    
C39   O25   A    
C17   C18   A    
C39   C69   S    
C34   C45   S    
C11   C43   S    
C7    C78   A    
C65   H10   S    
Cu3   O26   S    
C55   C57   T    
C5    H32   S    
C26   C27   A    
C59   H13   S    
Cu5   O6    S    
Cu4   O12   S    
C43   O3    A    
Cu4   O25   S    
C42   O2    A    
C54   C58   T    
Cu6   O5    S    
C15   C17   A    
C38   C71   S    
C48   C49   A    
C40   C72   S    
C30   C33   S    
C28   O16   A    
C34   H21   S    
C47   H7    S    
C2    C8    S    
C1    C10   S    
Cu4   O23   S    
C3    C5    A    
C12   H23   S    
C50   H9    S    
C73   H25   S    
C6    C7    A    
Cu1   O15   S    
C74   O19   S    
C75   H27   S    
Cu2   O16   S    
C37   O12   A    
C2    C3    A    
C23   C64   S    
C4    C77   S    
Cu3   O22   S    
C59   C65   A    
C36   C46   S    
C61   H14   S    
C73   H22   S    
C5    C6    A    
C8    C11   T    
C33   C35   T    
C51   C55   S    
C27   H4    S    
C1    O1    A    
C1    O4    A    
C34   C73   S    
C60   C66   S    
Cu1   Cu2   S    
C40   H35   S    
C39   O24   A    
C19   H33   S    
C49   C50   A    
C53   H6    S    
Cu2   O11   S    
C14   C15   A    
C22   C28   S    
C49   H8    S    
Cu5   O3    S    
C21   C22   T    
C37   C57   S    
