data_mof_unit_34636.cif
_audit_creation_date              2012-12-11T16:37:24-0500
_audit_creation_method            fapswitch 2.2
_symmetry_space_group_name_H-M    P1
_symmetry_Int_Tables_number       1
_space_group_crystal_system       monoclinic
_cell_length_a                    19.525481
_cell_length_b                    6.934827
_cell_length_c                    17.703129
_cell_angle_alpha                 90.0
_cell_angle_beta                  109.040704
_cell_angle_gamma                 90.0
_cell_volume                      2265.95412797

loop_
_atom_site_label
_atom_site_type_symbol
_atom_type_description
_atom_site_fract_x
_atom_site_fract_y
_atom_site_fract_z
_atom_type_partial_charge
O1    O     O_R   0.561710 0.369960 0.440200 -0.539910
O2    O     O_R   0.061710 0.630040 0.940200 -0.539910
O3    O     O_R   0.412630 0.033330 0.406330 -0.543499
O4    O     O_R   0.912630 0.966670 0.906330 -0.543499
O5    O     O_R   0.438290 0.869790 0.559800 -0.541236
O6    O     O_R   0.938290 0.130210 0.059800 -0.541236
C1    C     C_R   0.384493 0.203068 0.383683 0.699118
C2    C     C_R   0.884493 0.796932 0.883683 0.699118
O7    O     O_R   0.559570 0.039810 0.430640 -0.543353
O8    O     O_R   0.059570 0.960190 0.930640 -0.543353
O9    O     O_R   0.586280 0.876320 0.584290 -0.537681
O10   O     O_R   0.086280 0.123680 0.084290 -0.537681
C3    C     C_R   0.581037 0.209174 0.415509 0.687624
C4    C     C_R   0.081037 0.790825 0.915509 0.687623
O11   O     O_R   0.413720 0.363440 0.415710 -0.537081
O12   O     O_R   0.913720 0.636560 0.915710 -0.537082
O13   O     O_3   0.508590 0.205630 0.550380 -0.368437
O14   O     O_3   0.008590 0.794370 0.050380 -0.368437
V1    V     V_3+5 0.498410 0.928130 0.490650 1.384280
V2    V     V_3+5 0.998410 0.071870 0.990650 1.384280
O15   O     O_R   0.587370 0.546990 0.593670 -0.539018
O16   O     O_R   0.087370 0.453010 0.093670 -0.539018
C5    C     C_R   0.615578 0.716792 0.616506 0.701368
C6    C     C_R   0.115578 0.283208 0.116507 0.701368
O17   O     O_R   0.440430 0.540520 0.569360 -0.540091
O18   O     O_R   0.940430 0.459480 0.069360 -0.540091
C7    C     C_R   0.417438 0.709584 0.582787 0.694862
C8    C     C_R   0.917438 0.290416 0.082787 0.694863
V3    V     V_3+5 0.501590 0.428960 0.509350 1.396697
V4    V     V_3+5 0.001590 0.571040 0.009350 1.396697
O19   O     O_3   0.491410 0.701330 0.449620 -0.370783
O20   O     O_3   0.991410 0.298670 0.949620 -0.370783
C9    C     C_R   0.271066 0.884460 0.667337 -0.114614
C10   C     C_R   0.771066 0.115540 0.167337 -0.114615
H1    H     H_    0.233007 0.002789 0.658264 0.127357
H2    H     H_    0.733007 0.997211 0.158264 0.127357
C11   C     C_R   0.316996 0.877784 0.620896 0.193618
C12   C     C_R   0.816995 0.122216 0.120896 0.193618
C13   C     C_R   0.366604 0.722081 0.629958 -0.103481
C14   C     C_R   0.866604 0.277919 0.129958 -0.103481
C15   C     C_R   0.366806 0.575582 0.685034 -0.185312
C16   C     C_R   0.866806 0.424418 0.185035 -0.185312
H3    H     H_    0.403603 0.454548 0.693360 0.131542
H4    H     H_    0.903604 0.545452 0.193360 0.131542
C17   C     C_R   0.320895 0.584986 0.731467 -0.139361
C18   C     C_R   0.820895 0.415014 0.231467 -0.139360
H5    H     H_    0.324087 0.471735 0.774571 0.113479
H6    H     H_    0.824087 0.528265 0.274571 0.113479
C19   C     C_R   0.272785 0.740439 0.723678 0.024666
C20   C     C_R   0.772785 0.259560 0.223678 0.024667
C21   C     C_R   0.192332 0.586618 0.793084 -0.139074
C22   C     C_R   0.692331 0.413382 0.293083 -0.139074
H7    H     H_    0.202253 0.446345 0.771891 0.102093
H8    H     H_    0.702252 0.553655 0.271890 0.102094
C23   C     C_R   0.146036 0.599215 0.838899 -0.164186
C24   C     C_R   0.646035 0.400785 0.338899 -0.164187
H9    H     H_    0.122487 0.467669 0.852413 0.122478
H10   H     H_    0.622486 0.532331 0.352412 0.122478
C25   C     C_R   0.129825 0.778829 0.866172 -0.054426
C26   C     C_R   0.629825 0.221171 0.366172 -0.054425
C27   C     C_R   0.161543 0.945429 0.846685 -0.163597
C28   C     C_R   0.661543 0.054570 0.346686 -0.163597
H11   H     H_    0.150922 0.085883 0.867192 0.117486
H12   H     H_    0.650923 0.914116 0.367193 0.117486
C29   C     C_R   0.208224 0.932676 0.801266 -0.143093
C30   C     C_R   0.708225 0.067324 0.301267 -0.143094
H13   H     H_    0.232629 0.063791 0.788735 0.098131
H14   H     H_    0.732630 0.936209 0.288736 0.098131
C31   C     C_R   0.224095 0.753135 0.773525 0.103532
C32   C     C_R   0.724096 0.246865 0.273525 0.103532
C33   C     C_R   0.767835 0.624255 0.811982 0.117546
C34   C     C_R   0.267835 0.375744 0.311982 0.117546
C35   C     C_R   0.814102 0.782977 0.818076 -0.112998
C36   C     C_R   0.314102 0.217023 0.318076 -0.112998
C37   C     C_R   0.790528 0.927817 0.759761 -0.184087
C38   C     C_R   0.290528 0.072183 0.259761 -0.184087
H15   H     H_    0.823966 0.053118 0.761781 0.133959
H16   H     H_    0.323966 0.946882 0.261781 0.133959
C39   C     C_R   0.726021 0.905344 0.694732 -0.171197
C40   C     C_R   0.226021 0.094656 0.194732 -0.171197
H17   H     H_    0.711418 0.016249 0.649277 0.127000
H18   H     H_    0.211418 0.983751 0.149277 0.127000
C41   C     C_R   0.683168 0.736967 0.685770 -0.112451
C42   C     C_R   0.183168 0.263033 0.185770 -0.112450
C43   C     C_R   0.704060 0.601926 0.747706 0.101423
C44   C     C_R   0.204060 0.398074 0.247706 0.101423
C45   C     C_3   0.714811 0.389960 0.744173 -0.420270
C46   C     C_3   0.214811 0.610040 0.244173 -0.420269
C47   C     C_3   0.784036 0.413796 0.814666 -0.390641
C48   C     C_3   0.284036 0.586204 0.314666 -0.390641
H19   H     H_    0.724653 0.346279 0.688205 0.167993
H20   H     H_    0.224653 0.653721 0.188205 0.167993
H21   H     H_    0.672336 0.306307 0.759006 0.180294
H22   H     H_    0.172336 0.693693 0.259006 0.180294
H23   H     H_    0.833992 0.382339 0.799807 0.172888
H24   H     H_    0.333993 0.617661 0.299807 0.172888
H25   H     H_    0.781349 0.344907 0.870340 0.166077
H26   H     H_    0.281349 0.655093 0.370340 0.166077
N1    N     N_3   0.309865 0.028664 0.563461 -0.676070
H27   H     H_    0.356868 0.112613 0.580624 0.246837
H28   H     H_    0.302357 0.967431 0.507352 0.223598
N2    N     N_3   0.809864 0.971337 0.063460 -0.676069
H29   H     H_    0.856867 0.887387 0.080623 0.246837
H30   H     H_    0.802357 0.032571 0.007352 0.223598

loop_
_geom_bond_atom_site_label_1
_geom_bond_atom_site_label_2
_ccdc_geom_bond_type
C30   H14   S    
C23   C25   A    
O13   V3    S    
O4    C2    A    
V1    O19   S    
C13   C15   A    
C3    C26   S    
C4    C25   S    
O9    V1    S    
C36   C38   A    
C42   C44   A    
O3    C1    A    
C44   C46   S    
C8    C14   S    
O12   V4    S    
C26   C28   A    
C16   C18   A    
C27   H11   S    
O7    C3    A    
C28   H12   S    
O13   V1    S    
O5    C7    A    
O7    V1    S    
O6    C8    A    
C46   H20   S    
O8    V2    S    
C29   H13   S    
O3    V1    S    
O14   V4    S    
V4    O20   S    
C10   H2    S    
C40   C42   A    
C17   H5    S    
C2    O12   A    
C33   C43   A    
C15   H3    S    
C16   H4    S    
C22   H8    S    
O11   V3    S    
C1    C36   S    
C46   H22   S    
C43   C45   S    
O15   C5    A    
O17   V3    S    
C11   C13   A    
C18   H6    S    
C10   C20   A    
C25   C27   A    
C45   H19   S    
C28   C30   A    
C34   C36   A    
O8    C4    A    
C7    C13   S    
C39   H17   S    
C1    O11   A    
C21   C23   A    
O15   V3    S    
C9    C11   A    
C24   C26   A    
C47   H25   S    
C21   H7    S    
O4    V2    S    
C47   H23   S    
C34   C48   S    
N1    H27   S    
C33   C47   S    
C17   C19   A    
O10   V2    S    
O1    V3    S    
N2    H30   S    
C37   H15   S    
C5    C41   S    
C40   H18   S    
N1    H28   S    
C46   C48   S    
O18   V4    S    
C23   H9    S    
O16   C6    A    
O1    C3    A    
C35   C37   A    
C11   N1    S    
C33   C35   A    
V2    O20   S    
C18   C20   A    
O16   V4    S    
C41   C43   A    
C10   C12   A    
C38   C40   A    
C38   H16   S    
C14   C16   A    
C34   C44   A    
C48   H24   S    
O5    V1    S    
O17   C7    A    
O6    V2    S    
O10   C6    A    
O18   C8    A    
O2    V4    S    
C45   C47   S    
C20   C32   S    
V3    O19   S    
C12   C14   A    
C30   C32   A    
C29   C31   A    
C45   H21   S    
O9    C5    A    
C2    C35   S    
C9    H1    S    
C24   H10   S    
O14   V2    S    
C6    C42   S    
N2    H29   S    
O2    C4    A    
C22   C32   A    
C39   C41   A    
C27   C29   A    
C12   N2    S    
C9    C19   A    
C15   C17   A    
C19   C31   S    
C21   C31   A    
C37   C39   A    
C48   H26   S    
C22   C24   A    
