data_mof_unit_53404.cif
_audit_creation_date              2012-12-11T17:33:53-0500
_audit_creation_method            fapswitch 2.2
_symmetry_space_group_name_H-M    P1
_symmetry_Int_Tables_number       1
_space_group_crystal_system       triclinic
_cell_length_a                    19.943611
_cell_length_b                    19.981016
_cell_length_c                    20.744572
_cell_angle_alpha                 106.544
_cell_angle_beta                  108.171669
_cell_angle_gamma                 110.895356
_cell_volume                      6567.13292213

loop_
_atom_site_label
_atom_site_type_symbol
_atom_type_description
_atom_site_fract_x
_atom_site_fract_y
_atom_site_fract_z
_atom_type_partial_charge
C1    C     C_R   0.305634 0.269668 0.345537 -0.121720
C2    C     C_R   0.273366 0.431189 0.502798 -0.201299
C3    C     C_3   0.341560 0.501121 0.843519 -0.321802
C4    C     C_3   0.353607 0.585516 0.877755 -1.008263
C5    C     C_3   0.617606 0.379746 0.761382 0.170652
C6    C     C_3   0.655031 0.336217 0.797097 -0.272236
C7    C     C_3   0.699324 0.308565 0.756988 -1.015251
C8    C     C_3   0.902732 0.736172 0.748189 -0.336882
C9    C     C_3   0.914360 0.678541 0.779604 -0.902698
C10   C     C_3   0.730254 0.845627 0.828001 -0.344280
C11   C     C_3   0.694921 0.795839 0.864699 -0.908103
C12   C     C_3   0.186036 0.126613 0.991367 -0.286636
C13   C     C_R   0.554607 0.495582 0.713244 -0.130500
C14   C     C_3   0.122474 0.142456 0.945495 -0.861092
C15   C     C_3   0.883083 0.989361 0.956842 -0.351718
C16   C     C_3   0.876234 0.046523 0.922555 -0.919013
C17   C     C_3   0.153195 0.274777 0.138549 0.142503
C18   C     C_3   0.068986 0.232004 0.071238 -0.294235
C19   C     C_3   0.011146 0.252730 0.095280 -1.007624
C20   C     C_R   0.701404 0.534300 0.465602 -0.172584
C21   C     C_R   0.431652 0.665414 0.477912 -0.146703
C22   C     C_R   0.484531 0.450602 0.715918 0.101874
C23   C     C_R   0.497489 0.738970 0.529588 0.115311
C24   C     C_R   0.228583 0.455945 0.460936 0.081140
C25   C     C_R   0.745826 0.729064 0.723222 -0.022114
C26   C     C_3   0.585317 0.091297 0.609703 0.002828
C27   C     C_3   0.455715 0.005929 0.482549 -0.021771
C28   C     C_R   0.722961 0.480332 0.480758 0.122495
C29   C     C_3   0.462240 0.933011 0.488568 -0.490098
C30   C     C_1   0.494684 0.810502 0.555367 -0.071575
C31   C     C_3   0.496020 0.074069 0.564752 0.057950
C32   C     C_R   0.445856 0.491633 0.282759 -0.131556
C33   C     C_3   0.582717 0.015547 0.619521 -0.036394
C34   C     C_3   0.493258 0.944867 0.572133 0.145525
C35   C     C_3   0.439483 0.966116 0.606565 -0.077326
C36   C     C_3   0.445495 0.046533 0.605743 0.356602
C37   C     C_1   0.492728 0.871420 0.568799 -0.026693
C38   C     C_1   0.497235 0.145595 0.559823 -0.049096
C39   C     C_R   0.516034 0.521197 0.275668 0.053433
C40   C     C_1   0.497610 0.201335 0.549586 -0.088296
C41   C     C_3   0.882990 0.425558 0.353677 0.093173
C42   C     C_3   0.874832 0.344124 0.432578 0.499388
C43   C     C_3   0.950673 0.340809 0.429524 -0.493383
C44   C     C_R   0.565650 0.337627 0.561133 -0.163167
C45   C     C_1   0.146847 0.432058 0.441767 -0.013376
C46   C     C_3   0.876906 0.421755 0.426662 0.155426
C47   C     C_3   0.956569 0.415219 0.351774 -0.616239
C48   C     C_3   0.006363 0.416730 0.427101 0.146185
C49   C     C_3   0.030226 0.496109 0.493340 0.474250
C50   C     C_R   0.498150 0.265141 0.533045 0.116108
C51   C     C_3   0.954483 0.495074 0.497257 -0.701042
C52   C     C_1   0.080295 0.418765 0.430472 -0.032428
C53   C     C_1   0.813370 0.434622 0.436180 -0.051627
C54   C     C_1   0.769284 0.453292 0.453944 -0.072026
C55   C     C_R   0.477637 0.418408 0.770904 -0.223708
C56   C     C_R   0.580282 0.559136 0.347404 -0.153051
C57   C     C_R   0.540535 0.408406 0.814870 0.515159
C58   C     C_R   0.532381 0.379925 0.867516 -0.313285
C59   C     C_R   0.461658 0.359255 0.875922 0.124095
C60   C     C_R   0.396621 0.360283 0.826828 -0.338340
C61   C     C_R   0.420193 0.425075 0.647003 -0.121458
C62   C     C_R   0.405421 0.394446 0.778241 0.524171
C63   C     C_R   0.469130 0.460020 0.070763 -0.210555
C64   C     C_R   0.467452 0.494120 0.138569 0.215306
C65   C     C_R   0.523438 0.431045 0.067891 0.197491
C66   C     C_R   0.521759 0.498792 0.204877 0.055467
C67   C     C_R   0.578534 0.473145 0.202082 -0.202639
C68   C     C_R   0.430803 0.270197 0.496386 -0.140632
C69   C     C_R   0.579932 0.440423 0.134120 -0.194117
C70   C     C_R   0.235325 0.190079 0.199411 -0.086959
C71   C     C_R   0.209029 0.191135 0.127327 0.515158
C72   C     C_R   0.566524 0.733182 0.541032 -0.177724
C73   C     C_R   0.182328 0.122262 0.062218 0.063268
C74   C     C_R   0.156961 0.048339 0.065059 0.083929
C75   C     C_R   0.178231 0.045952 0.134640 -0.209013
C76   C     C_R   0.220603 0.116518 0.201376 -0.231186
C77   C     C_R   0.963576 0.861306 0.866407 -0.277574
C78   C     C_R   0.894160 0.798527 0.801945 0.193103
C79   C     C_R   0.960038 0.921825 0.917551 0.107434
C80   C     C_R   0.694995 0.460252 0.529057 -0.133447
C81   C     C_R   0.819161 0.795306 0.789335 0.021222
C82   C     C_R   0.813476 0.855026 0.840190 0.141355
C83   C     C_R   0.273225 0.496621 0.431874 0.199751
C84   C     C_R   0.885377 0.920515 0.903788 0.134501
C85   C     C_R   0.312723 0.342359 0.281304 -0.150629
C86   C     C_R   0.281363 0.264142 0.272312 0.087400
C87   C     C_3   0.240085 0.511004 0.364202 -0.393961
C88   C     C_3   0.170357 0.434186 0.294888 -0.918254
C89   C     C_3   0.756060 0.744881 0.564554 0.159838
C90   C     C_3   0.813206 0.808602 0.551922 -0.243508
C91   C     C_3   0.816991 0.771360 0.478791 -1.053864
C92   C     C_3   0.638741 0.117874 0.570829 -0.388873
C93   C     C_3   0.729474 0.156976 0.621643 -0.910191
C94   C     C_R   0.704289 0.653743 0.716662 -0.226232
C95   C     C_3   0.367043 0.982912 0.431921 -0.327343
C96   C     C_3   0.340275 0.937398 0.347546 -0.923276
C97   C     C_3   0.426115 0.109950 0.707060 0.180148
C98   C     C_3   0.396865 0.166391 0.687804 -0.297821
C99   C     C_3   0.330000 0.164230 0.709441 -0.999912
C100  C     C_3   0.619622 0.032633 0.704682 -0.360095
C101  C     C_3   0.711948 0.077500 0.745602 -0.916561
C102  C     C_3   0.349912 0.897955 0.568385 -0.385233
C103  C     C_3   0.337666 0.842229 0.606327 -0.900062
C104  C     C_3   0.805770 0.366781 0.276454 -0.294020
C105  C     C_R   0.713893 0.725876 0.652302 0.468674
C106  C     C_3   0.739555 0.390666 0.262042 -0.969518
C107  C     C_3   0.731053 0.254773 0.376453 0.201813
C108  C     C_3   0.731754 0.263012 0.452896 -0.368600
C109  C     C_3   0.646576 0.235503 0.445327 -0.991383
C110  C     C_3   0.085165 0.469185 0.597141 0.230783
C111  C     C_3   0.137922 0.515708 0.682965 -0.265107
C112  C     C_3   0.129163 0.459807 0.720589 -1.048537
C113  C     C_3   0.411320 0.529149 0.138022 -0.408588
C114  C     C_3   0.322357 0.464054 0.091673 -0.882702
C115  C     C_3   0.363158 0.487307 0.777849 0.202105
H1    H     H_    0.291420 0.221392 0.361403 0.089983
H2    H     H_    0.505218 0.925197 0.467445 0.154496
H3    H     H_    0.423173 0.564992 0.196034 0.191095
H4    H     H_    0.422871 0.571503 0.112666 0.193968
H5    H     H_    0.326859 0.500506 0.735565 0.134837
H6    H     H_    0.427865 0.530483 0.798470 0.092043
H7    H     H_    0.277536 0.456770 0.822768 0.216896
H8    H     H_    0.380687 0.493117 0.888770 0.191984
H9    H     H_    0.418039 0.630574 0.901197 0.268673
H10   H     H_    0.336481 0.593308 0.924339 0.271463
H11   H     H_    0.315218 0.595827 0.834171 0.270590
H12   H     H_    0.656523 0.411943 0.739983 0.135197
H13   H     H_    0.403896 0.876587 0.450281 0.190593
H14   H     H_    0.557563 0.335810 0.710787 0.077783
H15   H     H_    0.698997 0.376731 0.857864 0.216995
H16   H     H_    0.606531 0.283650 0.793747 0.196652
H17   H     H_    0.659604 0.274982 0.694839 0.272210
H18   H     H_    0.717907 0.269752 0.778293 0.266948
H19   H     H_    0.754404 0.361034 0.768578 0.266447
H20   H     H_    0.970407 0.711305 0.834468 0.259141
H21   H     H_    0.861765 0.647242 0.788121 0.258508
H22   H     H_    0.919537 0.633124 0.738852 0.249875
H23   H     H_    0.849578 0.700866 0.691226 0.189720
H24   H     H_    0.384188 0.037246 0.572666 0.023370
H25   H     H_    0.955550 0.766462 0.739435 0.182536
H26   H     H_    0.687161 0.734945 0.839621 0.267339
H27   H     H_    0.735255 0.825097 0.926666 0.253305
H28   H     H_    0.634820 0.790167 0.855370 0.252637
H29   H     H_    0.731711 0.903566 0.850803 0.201235
H30   H     H_    0.687483 0.817179 0.766754 0.189558
H31   H     H_    0.062313 0.104518 0.938960 0.252212
H32   H     H_    0.140397 0.206607 0.972533 0.275425
H33   H     H_    0.118326 0.128038 0.888112 0.238019
H34   H     H_    0.247179 0.174089 0.007727 0.189860
H35   H     H_    0.465379 0.977347 0.666788 0.159603
H36   H     H_    0.178724 0.069567 0.953530 0.175603
H37   H     H_    0.933598 0.080572 0.922150 0.258505
H38   H     H_    0.827318 0.014342 0.863349 0.256935
H39   H     H_    0.863137 0.089159 0.956819 0.255775
H40   H     H_    0.832217 0.966360 0.970130 0.193141
H41   H     H_    0.937753 0.024414 0.012853 0.193131
H42   H     H_    0.176414 0.340175 0.158855 0.132534
H43   H     H_    0.147484 0.261041 0.185588 0.100130
H44   H     H_    0.072415 0.250828 0.026415 0.206288
H45   H     H_    0.045115 0.166393 0.048430 0.209406
H46   H     H_    0.612988 0.141811 0.666399 0.199371
H47   H     H_    0.002138 0.230143 0.136730 0.269552
H48   H     H_    0.951735 0.224927 0.045016 0.270017
H49   H     H_    0.035451 0.318558 0.121266 0.267746
H50   H     H_    0.936349 0.358042 0.303396 0.200027
H51   H     H_    0.385243 0.465561 0.239156 0.113642
H52   H     H_    0.881559 0.349220 0.489211 0.006283
H53   H     H_    0.931581 0.287268 0.377824 0.208385
H54   H     H_    0.982770 0.330789 0.476851 0.115191
H55   H     H_    0.627688 0.781463 0.576648 0.157449
H56   H     H_    0.956170 0.552207 0.499609 0.182985
H57   H     H_    0.954145 0.494488 0.550592 0.193283
H58   H     H_    0.053601 0.543863 0.475869 0.084613
H59   H     H_    0.897426 0.487067 0.360005 0.128290
H60   H     H_    0.995102 0.464032 0.342578 0.165098
H61   H     H_    0.626341 0.356918 0.601711 0.092073
H62   H     H_    0.429730 0.458485 0.020003 0.132443
H63   H     H_    0.342419 0.345140 0.834017 0.160159
H64   H     H_    0.620584 0.476246 0.252321 0.142133
H65   H     H_    0.583802 0.380071 0.905941 0.157689
H66   H     H_    0.720148 0.632530 0.758533 0.132069
H67   H     H_    0.624234 0.421469 0.132833 0.131220
H68   H     H_    0.642999 0.595239 0.362880 0.095392
H69   H     H_    0.021023 0.863425 0.875806 0.156358
H70   H     H_    0.159117 0.989041 0.136916 0.144949
H71   H     H_    0.238389 0.112244 0.254207 0.145469
H72   H     H_    0.368591 0.228033 0.477862 0.089982
H73   H     H_    0.703751 0.420895 0.553111 0.109530
H74   H     H_    0.306655 0.361559 0.237926 0.147643
H75   H     H_    0.358539 0.378748 0.624147 0.144090
H76   H     H_    0.185591 0.385196 0.287320 0.256460
H77   H     H_    0.251974 0.388052 0.523460 0.119723
H78   H     H_    0.113911 0.415866 0.300601 0.265091
H79   H     H_    0.158963 0.444446 0.243596 0.244687
H80   H     H_    0.219447 0.555393 0.378919 0.185908
H81   H     H_    0.288551 0.535308 0.348334 0.191651
H82   H     H_    0.694986 0.713046 0.515332 0.116578
H83   H     H_    0.779140 0.702193 0.568432 0.097453
H84   H     H_    0.791946 0.852547 0.548770 0.202163
H85   H     H_    0.874892 0.840847 0.600524 0.202123
H86   H     H_    0.838127 0.727149 0.480662 0.266823
H87   H     H_    0.859955 0.818931 0.471836 0.277049
H88   H     H_    0.616516 0.519570 0.753619 0.151116
H89   H     H_    0.756382 0.741108 0.429212 0.267010
H90   H     H_    0.749113 0.207824 0.675417 0.265252
H91   H     H_    0.745626 0.112611 0.633413 0.267880
H92   H     H_    0.762783 0.180505 0.592088 0.253034
H93   H     H_    0.622118 0.066120 0.519079 0.192791
H94   H     H_    0.628716 0.162149 0.553143 0.209181
H95   H     H_    0.379392 0.975007 0.329610 0.257953
H96   H     H_    0.343097 0.880935 0.335170 0.260560
H97   H     H_    0.276913 0.922300 0.313892 0.251417
H98   H     H_    0.324328 0.945522 0.447078 0.183636
H99   H     H_    0.369348 0.651372 0.457494 0.098595
H100  H     H_    0.360845 0.037356 0.439905 0.191007
H101  H     H_    0.456609 0.133655 0.769700 0.122982
H102  H     H_    0.374146 0.049354 0.684896 0.091322
H103  H     H_    0.448465 0.228433 0.718782 0.195569
H104  H     H_    0.373242 0.149121 0.626164 0.192975
H105  H     H_    0.277149 0.102847 0.677780 0.261680
H106  H     H_    0.310062 0.205530 0.694833 0.279766
H107  H     H_    0.352368 0.183077 0.771258 0.272534
H108  H     H_    0.736294 0.045939 0.714458 0.260145
H109  H     H_    0.735564 0.139687 0.752428 0.268674
H110  H     H_    0.619345 0.996341 0.595670 0.161299
H111  H     H_    0.733420 0.080499 0.803136 0.253026
H112  H     H_    0.598373 0.067982 0.736366 0.218361
H113  H     H_    0.599894 0.975443 0.709250 0.195895
H114  H     H_    0.373080 0.810750 0.602158 0.268588
H115  H     H_    0.355716 0.876659 0.666976 0.250613
H116  H     H_    0.272718 0.796436 0.577789 0.253723
H117  H     H_    0.309500 0.923703 0.572263 0.180411
H118  H     H_    0.327268 0.861223 0.507359 0.203712
H119  H     H_    0.706431 0.376701 0.294582 0.266976
H120  H     H_    0.765314 0.455321 0.276432 0.258985
H121  H     H_    0.718731 0.564525 0.433337 0.105431
H122  H     H_    0.694730 0.355850 0.201070 0.253252
H123  H     H_    0.823193 0.366293 0.230398 0.184969
H124  H     H_    0.780446 0.304604 0.269468 0.229797
H125  H     H_    0.686769 0.191612 0.334116 0.136890
H126  H     H_    0.706449 0.289978 0.354957 0.110290
H127  H     H_    0.756338 0.226752 0.472887 0.210399
H128  H     H_    0.769500 0.326372 0.496382 0.190175
H129  H     H_    0.618474 0.266562 0.419573 0.272615
H130  H     H_    0.649814 0.250781 0.502329 0.264562
H131  H     H_    0.608115 0.169778 0.409825 0.264242
H132  H     H_    0.490744 0.027497 0.453369 0.154112
H133  H     H_    0.105840 0.427212 0.574686 0.107390
H134  H     H_    0.021817 0.435220 0.586149 0.077358
H135  H     H_    0.202362 0.548889 0.696119 0.199990
H136  H     H_    0.119799 0.559756 0.706502 0.203809
H137  H     H_    0.064999 0.425360 0.707533 0.269190
H138  H     H_    0.166017 0.495485 0.782994 0.282467
H139  H     H_    0.150429 0.417529 0.700368 0.277449
H140  H     H_    0.305847 0.436980 0.030497 0.255225
H141  H     H_    0.310065 0.415995 0.110229 0.273079
H142  H     H_    0.283423 0.490749 0.098930 0.248047
N1    N     N_R   0.350580 0.347460 0.395120 -0.038832
N2    N     N_2   0.529150 0.404680 0.000284 -0.087025
N3    N     N_2   0.092424 0.978854 0.000100 -0.081657
N4    N     N_R   0.656670 0.543450 0.500220 -0.054358
N5    N     N_2   0.030841 0.986704 0.982498 -0.077304
N6    N     N_R   0.466810 0.505630 0.355080 -0.038170
N7    N     N_R   0.540440 0.385280 0.540260 -0.034792
N8    N     N_R   0.550410 0.547340 0.395070 -0.037311
N9    N     N_R   0.456840 0.343580 0.500270 -0.037444
N10   N     N_R   0.653920 0.498790 0.540240 -0.039935
N11   N     N_R   0.353330 0.392130 0.355100 -0.042770
N12   N     N_R   0.543160 0.656420 0.499730 -0.049537
N13   N     N_R   0.449590 0.452660 0.604930 -0.047502
N14   N     N_R   0.346080 0.501210 0.459760 -0.067390
N15   N     N_R   0.646670 0.607870 0.644900 -0.060722
N16   N     N_R   0.649420 0.652540 0.604880 -0.104203
N17   N     N_R   0.343330 0.456550 0.499780 -0.050671
N18   N     N_R   0.533190 0.494370 0.644920 -0.045745
N19   N     N_R   0.459560 0.614720 0.459740 -0.045224
N20   N     N_2   0.461054 0.361057 0.944139 -0.079081
Ni1   Ni    Ni4+2 0.400980 0.400960 0.500020 0.208112
Ni2   Ni    Ni4+2 0.599020 0.599040 0.499980 0.200006
Ni3   Ni    Ni4+2 0.407290 0.503390 0.408250 0.206435
Ni4   Ni    Ni4+2 0.592710 0.496610 0.591750 0.200224
O1    O     O_3   0.753954 0.782415 0.632155 -0.686435
O2    O     O_3   0.483395 0.107676 0.681121 -0.680287
O3    O     O_3   0.805558 0.270291 0.374466 -0.674266
O4    O     O_3   0.095572 0.523702 0.565385 -0.656710
O5    O     O_3   0.343241 0.406357 0.740483 -0.675898
O6    O     O_3   0.615339 0.438420 0.816627 -0.671017
O7    O     O_3   0.208977 0.257240 0.118128 -0.677585

loop_
_geom_bond_atom_site_label_1
_geom_bond_atom_site_label_2
_ccdc_geom_bond_type
C103  H114  S    
N14   N17   A    
C25   C81   S    
C87   C88   S    
C63   C65   A    
C115  H6    S    
C32   H51   S    
C27   C29   S    
C80   N10   A    
C95   H100  S    
C73   C74   A    
C27   C95   S    
C111  C112  S    
C12   H36   S    
C6    H15   S    
C35   C102  S    
C93   H90   S    
C58   H65   S    
C99   H106  S    
C97   C98   S    
C43   H54   S    
C25   C105  A    
C43   H53   S    
N9    Ni1   S    
C111  H135  S    
C104  H123  S    
C114  H140  S    
C107  O3    S    
C49   O4    S    
C89   O1    S    
N16   Ni2   S    
C4    H10   S    
C96   H97   S    
C24   C45   S    
C113  H3    S    
C8    H23   S    
C51   H57   S    
C65   N2    S    
C24   C83   A    
C2    H77   S    
C87   H81   S    
N4    N10   A    
C33   H110  S    
C97   O2    S    
C79   C84   A    
C47   H50   S    
C100  H112  S    
C40   C50   S    
C90   H85   S    
C36   H24   S    
N10   Ni4   S    
C115  O5    S    
C26   C92   S    
N6    Ni3   S    
C34   C37   S    
C55   C62   A    
C14   H33   S    
C25   C94   A    
C1    C86   A    
C77   H69   S    
C108  C109  S    
C4    H9    S    
C60   C62   A    
C18   C19   S    
C42   C46   S    
C32   C39   A    
C100  H113  S    
C110  C111  S    
C100  C101  S    
C18   H44   S    
C50   C68   A    
C113  H4    S    
C104  H124  S    
C9    H22   S    
N19   Ni3   S    
C68   H72   S    
N15   N16   A    
C20   H121  S    
C97   H101  S    
N1    Ni1   S    
C107  C108  S    
C112  H137  S    
C70   C71   A    
C35   H35   S    
N12   Ni2   S    
C17   H42   S    
C43   C48   S    
C56   N8    A    
C68   N9    A    
C91   H89   S    
C3    H7    S    
C77   C78   A    
C69   H67   S    
C74   N3    S    
C101  H108  S    
C103  H115  S    
C5    H14   S    
C66   C67   A    
C99   H107  S    
N1    N11   A    
C26   C31   S    
C96   H96   S    
C98   H104  S    
C8    C78   S    
N7    Ni4   S    
C85   N11   A    
C92   H94   S    
C75   H70   S    
C113  C114  S    
C34   C35   S    
C28   C80   A    
C93   H91   S    
C12   H34   S    
C104  C106  S    
C89   H82   S    
C11   H27   S    
C41   H59   S    
C3    H8    S    
C81   C82   A    
C6    C7    S    
C57   C58   A    
C77   C79   A    
C110  H134  S    
C103  H116  S    
C96   H95   S    
C74   C75   A    
C27   C31   S    
C102  H117  S    
C23   C30   S    
C88   H79   S    
C89   H83   S    
C7    H19   S    
N3    N5    D    
C106  H120  S    
C71   C73   A    
C17   O7    S    
C28   C54   S    
C49   H58   S    
C8    C9    S    
C19   H48   S    
C90   H84   S    
C20   C28   A    
C45   C52   T    
C49   C51   S    
C58   C59   A    
C85   C86   A    
C16   H39   S    
C29   H2    S    
C46   C51   S    
C10   C82   S    
C13   H88   S    
C30   C37   T    
C101  H111  S    
C67   C69   A    
C19   H47   S    
C64   C66   A    
C32   N6    A    
C71   O7    S    
C75   C76   A    
C57   O6    S    
C94   H66   S    
C55   C57   A    
C109  H129  S    
C92   H93   S    
C27   H132  S    
C20   N4    A    
C2    N17   A    
C14   H32   S    
C26   C33   S    
C112  H139  S    
C47   C48   S    
N4    Ni2   S    
C48   C52   S    
C41   C46   S    
C94   N15   A    
C5    H12   S    
C46   C53   S    
C17   C18   S    
C41   C47   S    
C16   H37   S    
C39   C56   A    
C10   H29   S    
C83   N14   A    
C17   H43   S    
C11   H26   S    
C7    H17   S    
C15   C84   S    
C62   O5    S    
C9    H20   S    
C101  H109  S    
C48   C49   S    
C1    H1    S    
C12   C14   S    
C109  H131  S    
C115  H5    S    
C85   H74   S    
C82   C84   A    
C21   C23   A    
C2    C24   A    
C72   N12   A    
C95   H98   S    
C39   C66   S    
C97   H102  S    
N2    N20   D    
C42   C43   S    
C88   H76   S    
C70   C76   A    
C90   C91   S    
C3    C4    S    
C70   C86   S    
C21   N19   A    
C15   H41   S    
C61   N13   A    
C76   H71   S    
C42   H52   S    
C88   H78   S    
C1    N1    A    
C44   C50   A    
N15   Ni4   S    
N6    N8    A    
C14   H31   S    
N14   Ni3   S    
C64   C113  S    
C106  H119  S    
N12   N19   A    
N17   Ni1   S    
C15   H40   S    
C23   C72   A    
C105  O1    S    
N13   N18   A    
N8    Ni2   S    
C44   H61   S    
C36   O2    S    
C91   H86   S    
C6    H16   S    
C21   H99   S    
C83   C87   S    
C44   N7    A    
C7    H18   S    
C42   O3    S    
C31   C38   S    
C53   C54   T    
C22   C55   S    
C56   H68   S    
C110  H133  S    
C114  H141  S    
C107  H125  S    
N11   Ni3   S    
C26   H46   S    
C63   H62   S    
C41   C104  S    
C4    H11   S    
C8    H25   S    
C33   C100  S    
C105  N16   A    
N13   Ni1   S    
C98   H103  S    
C95   C96   S    
C87   H80   S    
C3    C115  S    
C22   C61   A    
C38   C40   T    
C78   C81   A    
C112  H138  S    
C5    C6    S    
C110  O4    S    
C11   H28   S    
C65   C69   A    
C29   C34   S    
C108  H128  S    
C51   H56   S    
C92   C93   S    
C33   C34   S    
C13   C22   A    
C19   H49   S    
C59   N20   S    
C61   H75   S    
C102  C103  S    
N18   Ni4   S    
C114  H142  S    
C91   H87   S    
C18   H45   S    
C10   C11   S    
C13   N18   A    
C10   H30   S    
C109  H130  S    
C63   C64   A    
C9    H21   S    
C59   C60   A    
C99   H105  S    
C106  H122  S    
C102  H118  S    
N7    N9    A    
C98   C99   S    
C29   H13   S    
C108  H127  S    
C16   H38   S    
C79   N5    S    
C31   C36   S    
C107  H126  S    
C67   H64   S    
C35   C36   S    
C5    O6    S    
C89   C90   S    
C12   C73   S    
C111  H136  S    
C60   H63   S    
C47   H60   S    
C15   C16   S    
C72   H55   S    
C80   H73   S    
C93   H92   S    
