data_mof_unit_39177.cif
_audit_creation_date              2013-03-05T15:51:50-0500
_audit_creation_method            fapswitch 2.2
_symmetry_space_group_name_H-M    P1
_symmetry_Int_Tables_number       1
_space_group_crystal_system       triclinic
_cell_length_a                    11.059916
_cell_length_b                    10.923396
_cell_length_c                    18.734742
_cell_angle_alpha                 89.992562
_cell_angle_beta                  89.108756
_cell_angle_gamma                 60.421121
_cell_volume                      1968.09599842

loop_
_atom_site_label
_atom_site_type_symbol
_atom_site_description
_atom_site_fract_x
_atom_site_fract_y
_atom_site_fract_z
_atom_type_partial_charge
O1    O     O_R   0.507380 0.255700 0.581440 -0.536425
O2    O     O_R   0.280320 0.527350 0.578930 -0.456585
C1    C     C_R   0.297591 0.619865 0.615397 0.566368
O3    O     O_R   0.260510 0.739590 0.584590 -0.462209
O4    O     O_R   0.532300 0.695080 0.573820 -0.552162
C2    C     C_R   0.653635 0.623550 0.600113 0.545997
O5    O     O_R   0.744840 0.503500 0.576370 -0.442561
O6    O     O_R   0.699120 0.276560 0.571960 -0.491217
C3    C     C_R   0.628843 0.226423 0.601715 0.551030
O7    O     O_R   0.498940 0.256500 0.419860 -0.517674
O8    O     O_R   0.272500 0.528080 0.429150 -0.505743
C4    C     C_R   0.218043 0.652141 0.402761 0.605180
O9    O     O_R   0.252060 0.740380 0.423010 -0.433457
O10   O     O_R   0.524480 0.695810 0.424040 -0.407558
C5    C     C_R   0.646734 0.624896 0.393886 0.572260
O11   O     O_R   0.736390 0.504290 0.414790 -0.527817
O12   O     O_R   0.691300 0.277290 0.422170 -0.499942
C6    C     C_R   0.616998 0.227277 0.396103 0.557959
Cr1   Cr    Cr6+3 0.392960 0.397920 0.502240 1.073037
Cr2   Cr    Cr6+3 0.398340 0.708480 0.501250 1.117840
Cr3   Cr    Cr6+3 0.708670 0.393570 0.496460 1.080983
O13   O     O_3   0.499990 0.499990 0.499980 -0.312948
C7    C     C_3   0.587222 0.816539 0.780248 -0.244427
H1    H     H_    0.622368 0.894998 0.785069 0.151795
H2    H     H_    0.487332 0.856501 0.810643 0.155669
C8    C     C_3   0.563216 0.799663 0.701006 -0.275376
H3    H     H_    0.456804 0.817995 0.694411 0.149212
H4    H     H_    0.571818 0.880416 0.668591 0.125707
H5    H     H_    0.887747 0.692479 0.783648 0.129046
H6    H     H_    0.814989 0.731310 0.667762 0.175092
C9    C     C_3   0.840283 0.626897 0.769021 -0.219585
C10   C     C_3   0.656163 0.563681 0.800789 -0.253801
C11   C     C_3   0.701487 0.674234 0.811459 0.006005
H7    H     H_    0.730232 0.462508 0.826238 0.180833
H8    H     H_    0.551940 0.600268 0.825931 0.132450
C12   C     C_3   0.671454 0.650022 0.675113 0.035680
C13   C     C_3   0.816769 0.634581 0.687950 0.086777
C14   C     C_3   0.650998 0.540745 0.720362 -0.217155
H9    H     H_    0.550996 0.545894 0.707917 0.094381
H10   H     H_    0.733870 0.433133 0.706358 0.188000
H11   H     H_    0.912357 0.516263 0.783537 0.190126
C15   C     C_R   0.683521 0.154480 0.822493 0.007065
C16   C     C_R   0.783422 0.169374 0.782690 -0.019694
C17   C     C_R   0.774991 0.179198 0.708323 -0.032618
C18   C     C_R   0.575281 0.147443 0.711731 -0.165511
C19   C     C_R   0.572712 0.156014 0.784916 -0.164218
C20   C     C_3   0.937741 0.078813 0.781165 0.098541
C21   C     C_3   0.929033 0.087735 0.699705 0.095281
C22   C     C_R   0.671280 0.166627 0.672142 0.064110
H12   H     H_    0.497632 0.131260 0.685762 0.136213
H13   H     H_    0.491096 0.144750 0.811155 0.152502
H14   H     H_    0.972598 0.974056 0.805027 0.152142
H15   H     H_    0.978903 0.143571 0.673936 0.194536
C23   C     C_R   0.218213 0.656723 0.843421 0.017301
C24   C     C_R   0.268237 0.525807 0.809709 -0.000946
C25   C     C_R   0.297873 0.510844 0.736185 -0.021859
C26   C     C_R   0.262147 0.745261 0.732268 -0.120364
C27   C     C_R   0.237935 0.757783 0.806093 -0.158479
C28   C     C_3   0.210263 0.429410 0.809392 -0.237026
C29   C     C_3   0.231570 0.421660 0.729169 -0.210623
C30   C     C_R   0.280422 0.625617 0.694590 0.033568
H16   H     H_    0.253503 0.835553 0.704236 0.163702
H17   H     H_    0.215279 0.856119 0.831285 0.175950
H18   H     H_    0.101349 0.480633 0.827802 0.170351
H19   H     H_    0.278300 0.329433 0.837011 0.160891
H20   H     H_    0.299833 0.314860 0.708225 0.162326
H21   H     H_    0.134554 0.480818 0.700841 0.231444
C31   C     C_R   0.653670 0.676157 0.169478 0.017048
C32   C     C_R   0.706319 0.544272 0.200969 0.071782
C33   C     C_R   0.711435 0.531825 0.274011 0.081240
C34   C     C_R   0.609364 0.782340 0.288783 -0.090127
C35   C     C_R   0.595172 0.795887 0.214429 -0.149026
C36   C     C_3   0.842074 0.411015 0.191140 -0.262424
C37   C     C_3   0.847773 0.398711 0.271427 -0.268198
C38   C     C_R   0.668311 0.648486 0.319330 0.051257
H22   H     H_    0.571592 0.875277 0.322111 0.162356
H23   H     H_    0.548266 0.899161 0.191501 0.117755
H24   H     H_    0.926441 0.427890 0.169652 0.147393
H25   H     H_    0.830085 0.326839 0.164411 0.184201
H26   H     H_    0.839218 0.308061 0.291377 0.166563
H27   H     H_    0.933195 0.410675 0.294904 0.130230
C39   C     C_R   0.683559 0.078309 0.185586 0.035522
C40   C     C_R   0.558190 0.118792 0.220426 -0.011646
C41   C     C_R   0.542602 0.152473 0.291347 -0.006728
C42   C     C_R   0.782330 0.095577 0.297658 -0.165864
C43   C     C_R   0.797372 0.060723 0.225365 -0.164742
C44   C     C_3   0.413668 0.231123 0.203559 0.091062
C45   C     C_3   0.395455 0.268028 0.282396 -0.224544
C46   C     C_R   0.651103 0.152086 0.329446 0.036857
H28   H     H_    0.868610 0.089639 0.326768 0.119332
H29   H     H_    0.894128 0.030361 0.198974 0.204667
H30   H     H_    0.346788 0.188823 0.184496 0.098148
H31   H     H_    0.382604 0.373175 0.295155 0.192025
H32   H     H_    0.319875 0.243780 0.309708 0.123572
C47   C     C_R   0.113330 0.690395 0.189441 0.046761
C48   C     C_R   0.111139 0.801623 0.225779 -0.009126
C49   C     C_R   0.111592 0.808260 0.298362 -0.033290
C50   C     C_R   0.114370 0.585538 0.303769 -0.175431
C51   C     C_R   0.100717 0.587952 0.229234 -0.134119
C52   C     C_3   0.187120 0.879716 0.210492 0.154289
C53   C     C_3   0.175832 0.903328 0.290075 0.130442
C54   C     C_R   0.137686 0.687245 0.337663 0.029560
H33   H     H_    0.121319 0.497078 0.333227 0.126994
H34   H     H_    0.088562 0.506575 0.202984 0.136627
H35   H     H_    0.294115 0.804587 0.189442 0.152111
H36   H     H_    0.105100 0.014247 0.307192 0.122179
O14   O     O_R   0.089400 0.825690 0.930570 -0.522035
O15   O     O_R   0.818460 0.054440 0.929850 -0.466956
C55   C     C_R   0.702887 0.099995 0.895411 0.568574
O16   O     O_R   0.606060 0.077150 0.915510 -0.523694
O17   O     O_R   0.646550 0.806680 0.917570 -0.509715
C56   C     C_R   0.725252 0.688332 0.887827 0.551172
O18   O     O_R   0.837170 0.593410 0.915250 -0.500121
O19   O     O_R   0.065200 0.635530 0.931570 -0.497170
C57   C     C_R   0.123942 0.704087 0.907076 0.546820
O20   O     O_R   0.068260 0.828890 0.091840 -0.513930
O21   O     O_R   0.798870 0.057410 0.079340 -0.490864
C58   C     C_R   0.699225 0.045571 0.110626 0.564956
O22   O     O_R   0.584930 0.080350 0.076780 -0.474853
O23   O     O_R   0.626960 0.809650 0.067060 -0.533417
C59   C     C_R   0.695667 0.690323 0.097551 0.537821
O24   O     O_R   0.816040 0.596610 0.076510 -0.521756
O25   O     O_R   0.045610 0.638500 0.081060 -0.487654
C60   C     C_R   0.087229 0.711854 0.114261 0.579366
Cr4   Cr    Cr6+3 0.937650 0.938540 0.007610 1.058697
Cr5   Cr    Cr6+3 0.625330 0.937370 0.994520 1.018533
Cr6   Cr    Cr6+3 0.937940 0.625230 0.001190 1.048360
O26   O     O_3   0.833640 0.833710 0.001100 -0.298537
N1    N     N_R   0.930087 0.514054 0.649945 0.058863
O27   O     O_R   0.987181 0.535553 0.593541 -0.312006
O28   O     O_R   0.969996 0.385325 0.669224 -0.357866
N2    N     N_R   0.006445 0.151919 0.811068 0.054452
O29   O     O_R   0.124772 0.129703 0.784060 -0.374457
O30   O     O_R   0.965582 0.214954 0.872810 -0.344076
N3    N     N_R   0.964658 0.954994 0.663542 0.057356
O31   O     O_R   0.979596 0.947804 0.594420 -0.299811
O32   O     O_R   0.951751 0.857060 0.696459 -0.402631
N4    N     N_R   0.409650 0.342750 0.158481 0.094278
O33   O     O_R   0.480301 0.405120 0.174422 -0.337319
O34   O     O_R   0.337712 0.377313 0.100375 -0.336503
O35   O     O_3   0.112034 0.006883 0.172462 -0.587611
C61   C     C_3   0.201325 0.016849 0.120679 -0.003004
H37   H     H_    0.235594 0.930785 0.080257 0.161854
H38   H     H_    0.294851 0.010057 0.146049 0.117736
C62   C     C_3   0.125776 0.156386 0.081997 -0.327064
H39   H     H_    0.112191 0.242625 0.118148 0.133827
H40   H     H_    0.188663 0.155004 0.034886 0.127532
H41   H     H_    0.022921 0.175225 0.063710 0.183339
N5    N     N_R   0.312466 0.845867 0.318244 0.063966
O36   O     O_R   0.400686 0.713562 0.306171 -0.370937
O37   O     O_R   0.340315 0.922150 0.361008 -0.367597

loop_
_geom_bond_atom_site_label_1
_geom_bond_atom_site_label_2
_geom_bond_distance
_ccdc_geom_bond_type
C47   C60   1.437988 S    
C17   C22   1.404887 A    
C5    C38   1.457606 S    
C24   C25   1.401662 A    
O11   Cr3   2.061267 S    
C24   C28   1.478714 S    
C36   C37   1.509638 S    
C21   N3    1.464453 S    
C40   C44   1.496559 S    
C47   C48   1.382350 A    
C44   C45   1.515030 S    
O19   C57   1.290130 A    
C39   C43   1.402586 A    
O25   C60   1.270437 A    
O4    Cr2   1.978256 S    
C42   C43   1.391976 A    
O8    Cr1   1.964101 S    
C52   H35   1.120789 S    
C40   C41   1.364135 A    
O4    C2    1.280354 A    
Cr3   O13   2.007243 S    
C12   C13   1.553610 S    
C15   C55   1.466070 S    
C43   H29   1.064327 S    
N5    O37   1.300886 A    
C14   H9    1.107882 S    
O23   Cr5   1.941417 S    
C5    O11   1.262734 A    
C27   H17   1.081711 S    
O15   C55   1.302076 A    
C15   C19   1.415774 A    
C7    C8    1.539189 S    
O24   Cr6   2.064804 S    
C58   O22   1.301965 A    
C23   C24   1.399384 A    
O35   C61   1.415836 S    
O17   C56   1.270262 A    
C29   H21   1.087961 S    
C2    C12   1.470277 S    
N2    O29   1.301344 A    
C7    C11   1.561634 S    
C33   C37   1.491149 S    
Cr4   O26   1.988535 S    
C36   H24   1.106709 S    
C9    C11   1.560272 S    
Cr6   O26   1.980758 S    
C32   C36   1.496953 S    
C10   C14   1.534056 S    
O15   Cr4   1.968375 S    
O20   C60   1.262003 A    
C49   C54   1.415113 A    
C51   H34   1.081771 S    
C29   H20   1.098325 S    
C28   C29   1.513570 S    
C37   H26   1.104742 S    
C44   H30   1.110790 S    
C48   C49   1.361987 A    
C61   C62   1.519150 S    
C56   O18   1.274277 A    
C62   H40   1.110639 S    
C62   H39   1.107240 S    
C1    C30   1.490213 S    
C36   H25   1.111920 S    
C21   H15   1.110426 S    
C45   H32   1.111727 S    
O1    Cr1   2.081695 S    
C10   H8    1.112951 S    
O10   Cr2   1.950513 S    
N3    O31   1.300380 A    
Cr1   O13   1.986846 S    
C3    C22   1.450590 S    
O14   Cr4   2.074170 S    
C42   C46   1.389561 A    
C31   C32   1.394583 A    
C26   H16   1.079848 S    
C50   C54   1.411417 A    
C19   H13   1.080468 S    
O12   Cr3   1.958835 S    
C9    C13   1.540227 S    
H6    C13   1.113301 S    
C10   H7    1.112651 S    
C16   C17   1.398378 A    
C4    C54   1.456531 S    
C35   H23   1.074854 S    
O25   Cr6   1.975858 S    
C20   C21   1.530733 S    
C18   C22   1.384353 A    
O7    Cr1   2.073401 S    
C31   C35   1.409350 A    
C23   C57   1.485231 S    
O17   Cr5   1.957198 S    
O12   C6    1.291521 A    
O6    C3    1.273390 A    
O1    C3    1.281757 A    
C11   C56   1.480386 S    
O14   C57   1.264138 A    
C59   O24   1.270447 A    
C2    O5    1.270954 A    
N4    O34   1.300361 A    
O16   Cr5   2.062960 S    
C8    C12   1.546153 S    
Cr2   O13   1.980556 S    
C50   C51   1.405705 A    
O20   Cr4   2.091353 S    
C8    H3    1.101054 S    
C61   H38   1.113957 S    
C15   C16   1.398265 A    
C39   C58   1.435786 S    
C37   H27   1.112631 S    
C1    O3    1.299735 A    
C62   H41   1.111197 S    
O23   C59   1.279923 A    
N1    O27   1.302349 A    
C23   C27   1.409988 A    
C53   H36   1.113267 S    
N3    O32   1.301138 A    
C45   H31   1.111032 S    
Cr5   O26   2.009626 S    
C9    H11   1.107002 S    
O9    Cr2   2.098695 S    
O2    Cr1   1.954780 S    
O10   C5    1.299899 A    
C6    C46   1.433918 S    
C41   C45   1.500119 S    
O6    Cr3   1.942605 S    
C31   C59   1.451537 S    
C42   H28   1.080417 S    
C26   C30   1.407910 A    
C20   H14   1.107966 S    
O18   Cr6   2.096103 S    
C8    H4    1.112148 S    
C20   N2    1.463338 S    
C52   O35   1.416387 S    
C10   C11   1.533097 S    
C12   C14   1.566858 S    
O2    C1    1.311229 A    
C34   C35   1.403853 A    
H5    C9    1.113396 S    
C17   C21   1.495954 S    
O5    Cr3   2.082450 S    
N5    O36   1.301131 A    
C28   H19   1.107838 S    
C14   H10   1.104371 S    
O19   Cr6   1.947842 S    
C26   C27   1.398457 A    
C34   H22   1.080902 S    
O21   Cr4   1.953595 S    
C18   H12   1.080919 S    
O7    C6    1.255133 A    
C48   C52   1.488639 S    
C53   N5    1.429825 S    
C52   C53   1.505860 S    
C28   H18   1.097624 S    
C13   N1    1.467825 S    
C47   C51   1.406463 A    
C7    H2    1.113436 S    
C32   C33   1.374425 A    
N4    O33   1.302607 A    
C7    H1    1.106229 S    
O3    Cr2   2.071651 S    
O22   Cr5   2.074670 S    
C18   C19   1.373191 A    
C25   C29   1.487398 S    
C4    O9    1.255804 A    
N2    O30   1.301183 A    
C39   C40   1.382307 A    
C41   C46   1.403987 A    
C55   O16   1.265754 A    
C33   C38   1.399975 A    
C61   H37   1.113742 S    
C25   C30   1.407779 A    
C44   N4    1.466079 S    
O21   C58   1.302076 A    
C16   C20   1.491333 S    
C49   C53   1.527174 S    
C50   H33   1.082621 S    
O8    C4    1.283337 A    
N1    O28   1.301785 A    
C34   C38   1.400259 A    
