data_mof_unit_45668.cif
_audit_creation_date              2012-12-10T18:56:24-0500
_audit_creation_method            fapswitch 2.2
_symmetry_space_group_name_H-M    P1
_symmetry_Int_Tables_number       1
_space_group_crystal_system       triclinic
_cell_length_a                    10.717279
_cell_length_b                    9.829082
_cell_length_c                    19.276902
_cell_angle_alpha                 90.019893
_cell_angle_beta                  90.076589
_cell_angle_gamma                 89.980478
_cell_volume                      2030.64635136

loop_
_atom_site_label
_atom_site_type_symbol
_atom_type_description
_atom_site_fract_x
_atom_site_fract_y
_atom_site_fract_z
_atom_type_partial_charge
C1    C     C_R   0.872585 0.499976 0.500025 -0.012493
C2    C     C_R   0.127415 0.500037 0.499908 -0.012194
C3    C     C_R   0.592151 0.468504 0.962813 -0.158123
C4    C     C_R   0.379107 0.544388 0.037406 -0.212323
C5    C     C_R   0.594836 0.466772 0.034569 -0.205740
C6    C     C_R   0.376030 0.544856 0.965534 -0.231923
C7    C     C_R   0.488271 0.504407 0.071570 0.125671
C8    C     C_R   0.482707 0.507035 0.928630 0.130018
C9    C     C_R   0.259836 0.500017 0.499946 0.867533
C10   C     C_R   0.740164 0.499985 0.500032 0.868529
C11   C     C_R   0.500010 0.500011 0.365755 0.888306
C12   C     C_R   0.499473 0.500119 0.634348 0.890720
C13   C     C_R   0.063918 0.378743 0.486446 -0.199207
C14   C     C_R   0.936083 0.621278 0.513467 -0.198328
C15   C     C_R   0.936097 0.378706 0.486523 -0.197353
C16   C     C_R   0.063902 0.621314 0.513392 -0.197949
C17   C     C_R   0.465799 0.382243 0.745857 -0.228665
C18   C     C_R   0.543867 0.613550 0.254753 -0.195129
C19   C     C_R   0.450642 0.388583 0.254864 -0.238249
C20   C     C_R   0.516169 0.622899 0.745332 -0.229506
C21   C     C_R   0.457417 0.383474 0.817918 0.169217
C22   C     C_R   0.542470 0.616671 0.182253 0.149363
C23   C     C_R   0.445325 0.389062 0.182826 0.182808
C24   C     C_R   0.509318 0.627297 0.817295 0.173426
C25   C     C_R   0.480270 0.506666 0.853607 0.004592
C26   C     C_R   0.491666 0.503447 0.146703 -0.011483
C27   C     C_R   0.575402 0.071988 0.544332 -0.078842
C28   C     C_R   0.424598 0.928012 0.455669 -0.077413
C29   C     C_R   0.424595 0.071997 0.455668 -0.076031
C30   C     C_R   0.575403 0.928003 0.544333 -0.079415
C31   C     C_R   0.494852 0.501255 0.709653 -0.115500
C32   C     C_R   0.498568 0.500413 0.290576 -0.122992
H1    H     H_    0.635652 0.126635 0.579746 0.126614
H2    H     H_    0.364343 0.873364 0.420259 0.127369
H3    H     H_    0.364340 0.126653 0.420256 0.119077
H4    H     H_    0.635650 0.873348 0.579749 0.120333
H5    H     H_    0.112613 0.284530 0.475479 0.152635
H6    H     H_    0.887391 0.715494 0.524432 0.153013
H7    H     H_    0.887414 0.284466 0.475622 0.157179
H8    H     H_    0.112583 0.715554 0.524295 0.156698
H9    H     H_    0.447982 0.288315 0.718065 0.166331
H10   H     H_    0.581092 0.697864 0.284206 0.175809
H11   H     H_    0.415723 0.301275 0.283201 0.155625
H12   H     H_    0.539142 0.715062 0.717222 0.162880
H13   H     H_    0.674666 0.439907 0.933860 0.129316
H14   H     H_    0.297010 0.574050 0.066450 0.135556
H15   H     H_    0.679359 0.436656 0.061374 0.132471
H16   H     H_    0.291550 0.574729 0.938634 0.137355
N1    N     N_R   0.500000 0.857200 0.500000 -0.078839
N2    N     N_R   0.500000 0.142800 0.500000 -0.078690
O1    O     O_R   0.316770 0.614620 0.500000 -0.626366
O2    O     O_R   0.683230 0.385380 0.500000 -0.625924
O3    O     O_R   0.683230 0.614620 0.500000 -0.627557
O4    O     O_R   0.316770 0.385380 0.500000 -0.628173
O5    O     O_R   0.500030 0.614710 0.398180 -0.623639
O6    O     O_R   0.499970 0.385290 0.601820 -0.622531
O7    O     O_R   0.499970 0.614710 0.601820 -0.624405
O8    O     O_R   0.500030 0.385290 0.398180 -0.619800
Zn1   Zn    Zn3+2 0.500000 0.653120 0.500000 0.942698
Zn2   Zn    Zn3+2 0.500000 0.346880 0.500000 0.944066
C33   C     C_3   0.423381 0.252401 0.854801 -0.416771
C34   C     C_3   0.535086 0.156547 0.859087 -0.875008
H17   H     H_    0.564568 0.124354 0.806356 0.257712
H18   H     H_    0.614548 0.207063 0.885606 0.260721
H19   H     H_    0.508921 0.064882 0.889339 0.250627
H20   H     H_    0.388254 0.271468 0.908050 0.218410
H21   H     H_    0.346175 0.201055 0.826493 0.197192
C35   C     C_3   0.592991 0.738000 0.141512 -0.384944
C36   C     C_3   0.651624 0.852085 0.184532 -0.921037
H22   H     H_    0.581090 0.898483 0.219441 0.261124
H23   H     H_    0.731541 0.812700 0.215303 0.263301
H24   H     H_    0.687257 0.932367 0.149228 0.258608
H25   H     H_    0.665760 0.701322 0.105038 0.212620
H26   H     H_    0.515838 0.782404 0.110269 0.209736
C37   C     C_3   0.391983 0.265376 0.146334 -0.415198
C38   C     C_3   0.494361 0.162513 0.130083 -0.861045
H27   H     H_    0.561904 0.205380 0.092418 0.264014
H28   H     H_    0.544644 0.134453 0.178387 0.261367
H29   H     H_    0.452436 0.069368 0.107259 0.251068
H30   H     H_    0.321031 0.215525 0.179830 0.194702
H31   H     H_    0.342718 0.293882 0.097813 0.212953
C39   C     C_3   0.535714 0.761399 0.853268 -0.427795
C40   C     C_3   0.675830 0.785950 0.859470 -0.868708
H32   H     H_    0.720206 0.703292 0.890066 0.261347
H33   H     H_    0.719286 0.790274 0.807234 0.256243
H34   H     H_    0.692900 0.884211 0.886264 0.250495
H35   H     H_    0.492737 0.845767 0.823176 0.202080
H36   H     H_    0.493564 0.765842 0.905733 0.215756

loop_
_geom_bond_atom_site_label_1
_geom_bond_atom_site_label_2
_ccdc_geom_bond_type
O5    Zn1   S    
C9    O1    A    
C38   H29   S    
C10   O2    A    
O3    Zn1   S    
O4    Zn2   S    
C27   H1    S    
C5    H15   S    
C7    C26   S    
C6    H16   S    
C28   C29   A    
C38   H28   S    
C18   H10   S    
C4    H14   S    
O7    Zn1   S    
O8    Zn2   S    
C39   H35   S    
C23   C26   A    
C36   H23   S    
C10   O3    A    
C24   C39   S    
C34   H18   S    
O2    Zn2   S    
C33   H20   S    
C20   C24   A    
C35   C36   S    
C1    C15   A    
C11   O8    A    
C2    C16   A    
C37   H30   S    
C21   C33   S    
C27   N2    A    
C28   H2    S    
C27   C30   A    
C8    C25   S    
C36   H22   S    
C4    C7    A    
C19   C32   A    
C20   H12   S    
C19   H11   S    
C29   N2    A    
C38   H27   S    
C4    C6    A    
C3    C8    A    
C5    C7    A    
C37   H31   S    
C6    C8    A    
C35   H25   S    
C3    H13   S    
C17   C21   A    
O6    Zn2   S    
C36   H24   S    
C19   C23   A    
C37   C38   S    
C34   H17   S    
C14   H6    S    
C28   N1    A    
C33   H21   S    
C40   H32   S    
C22   C35   S    
C24   C25   A    
C2    C13   A    
C15   H7    S    
C12   O6    A    
C16   H8    S    
C12   O7    A    
C40   H33   S    
C30   N1    A    
C11   C32   S    
C13   C15   A    
C12   C31   S    
C17   C31   A    
C14   C16   A    
O1    Zn1   S    
C11   O5    A    
C21   C25   A    
C34   H19   S    
C18   C22   A    
C13   H5    S    
C1    C10   S    
C23   C37   S    
C3    C5    A    
C9    O4    A    
C29   H3    S    
N1    Zn1   S    
C30   H4    S    
N2    Zn2   S    
C39   H36   S    
C33   C34   S    
C17   H9    S    
C40   H34   S    
C18   C32   A    
C39   C40   S    
C22   C26   A    
C1    C14   A    
C2    C9    S    
C35   H26   S    
C20   C31   A    
