data_mof_unit_6399.cif
_audit_creation_date              2012-12-10T19:50:02-0500
_audit_creation_method            fapswitch 2.2
_symmetry_space_group_name_H-M    P1
_symmetry_Int_Tables_number       1
_space_group_crystal_system       triclinic
_cell_length_a                    14.232123
_cell_length_b                    14.977751
_cell_length_c                    15.209013
_cell_angle_alpha                 91.025531
_cell_angle_beta                  68.258883
_cell_angle_gamma                 90.749241
_cell_volume                      3010.8617982

loop_
_atom_site_label
_atom_site_type_symbol
_atom_type_description
_atom_site_fract_x
_atom_site_fract_y
_atom_site_fract_z
_atom_type_partial_charge
C1    C     C_R   0.499994 0.672273 0.501093 0.824980
C2    C     C_R   0.499547 0.327841 0.499740 0.835780
C3    C     C_R   0.378215 0.419774 0.107343 -0.172573
C4    C     C_R   0.614232 0.394627 0.898498 -0.172925
C5    C     C_R   0.305414 0.431149 0.068493 -0.172908
C6    C     C_R   0.685794 0.398881 0.940725 -0.177183
C7    C     C_R   0.421422 0.906212 0.491976 -0.177435
C8    C     C_R   0.585471 0.093088 0.478692 -0.178220
C9    C     C_R   0.424520 0.814295 0.485399 -0.212659
C10   C     C_R   0.587554 0.184793 0.471183 -0.201296
C11   C     C_R   0.497806 0.768264 0.507309 -0.023742
C12   C     C_R   0.496806 0.232132 0.504427 -0.042591
C13   C     C_R   0.566211 0.814255 0.538412 -0.202407
C14   C     C_R   0.403983 0.188046 0.546386 -0.168299
C15   C     C_R   0.562053 0.906282 0.546413 -0.179532
C16   C     C_R   0.401998 0.096329 0.555015 -0.175491
C17   C     C_R   0.490600 0.952337 0.521856 0.118694
C18   C     C_R   0.492707 0.048753 0.520453 0.108185
C19   C     C_R   0.868902 0.542382 0.570861 -0.249109
C20   C     C_R   0.120336 0.431931 0.456193 -0.239458
C21   C     C_R   0.770123 0.543748 0.570421 0.143892
C22   C     C_R   0.219673 0.432288 0.455437 0.141388
C23   C     C_R   0.437047 0.496562 0.676487 0.941791
C24   C     C_R   0.563203 0.502598 0.322865 0.925372
C25   C     C_R   0.822892 0.458546 0.427903 -0.001819
C26   C     C_R   0.189273 0.569015 0.541657 -0.003070
C27   C     C_R   0.923312 0.459300 0.424564 -0.269987
C28   C     C_R   0.090640 0.571820 0.540769 -0.282803
C29   C     C_R   0.947913 0.501347 0.497278 0.098357
C30   C     C_R   0.054088 0.502146 0.497910 0.104807
C31   C     C_R   0.398296 0.479037 0.778108 -0.372519
C32   C     C_R   0.602372 0.498753 0.218525 -0.383851
C33   C     C_R   0.268221 0.486637 0.935411 0.401373
C34   C     C_R   0.735029 0.455256 0.069921 0.394464
C35   C     C_R   0.303972 0.511414 0.839981 0.315150
C36   C     C_R   0.706597 0.491637 0.162121 0.362196
C37   C     C_R   0.457633 0.426457 0.813061 0.405686
C38   C     C_R   0.531360 0.492370 0.175205 0.356345
C39   C     C_R   0.435791 0.425252 0.910982 -0.092349
C40   C     C_R   0.556407 0.447897 0.087586 -0.094547
C41   C     C_R   0.335236 0.446391 0.971676 -0.103340
C42   C     C_R   0.659642 0.432116 0.033153 -0.084794
C43   C     C_R   0.510673 0.411824 0.951332 0.119151
C44   C     C_R   0.481630 0.425612 0.049919 0.117066
H1    H     H_    0.227024 0.435142 0.115481 0.180124
H2    H     H_    0.763374 0.383351 0.897463 0.175335
H3    H     H_    0.883922 0.574796 0.628523 0.166761
H4    H     H_    0.095463 0.376801 0.423023 0.174036
H5    H     H_    0.805592 0.425694 0.371727 0.163516
H6    H     H_    0.215754 0.623045 0.574653 0.135109
H7    H     H_    0.981132 0.427950 0.364510 0.143096
H8    H     H_    0.044212 0.629071 0.572629 0.139724
H9    H     H_    0.352976 0.411538 0.183129 0.192055
H10   H     H_    0.644609 0.379030 0.824319 0.219458
H11   H     H_    0.366916 0.941302 0.471327 0.143729
H12   H     H_    0.655882 0.056687 0.450065 0.138483
H13   H     H_    0.370601 0.779540 0.461962 0.157932
H14   H     H_    0.659697 0.218566 0.438571 0.159556
H15   H     H_    0.622130 0.779290 0.557131 0.143125
H16   H     H_    0.333542 0.224522 0.573891 0.165705
H17   H     H_    0.615056 0.941593 0.570684 0.132112
H18   H     H_    0.330032 0.062503 0.588345 0.136564
N1    N     N_R   0.747530 0.500020 0.500000 -0.134975
N2    N     N_R   0.252470 0.499980 0.500000 -0.128341
O1    O     O_R   0.420530 0.630930 0.499990 -0.631050
O2    O     O_R   0.579470 0.369070 0.500010 -0.612419
O3    O     O_R   0.579480 0.630940 0.499990 -0.661284
O4    O     O_R   0.420520 0.369060 0.500010 -0.646832
O5    O     O_R   0.375120 0.499990 0.632240 -0.580867
O6    O     O_R   0.624880 0.500010 0.367760 -0.599921
O7    O     O_R   0.534080 0.500000 0.632240 -0.591167
O8    O     O_R   0.465920 0.500000 0.367760 -0.586265
Zn1   Zn    Zn3+2 0.393860 0.499990 0.500000 0.943072
Zn2   Zn    Zn3+2 0.606140 0.500010 0.500000 0.940344
C45   C     C_2   0.693920 0.597065 0.645214 0.409530
H19   H     H_    0.633824 0.630036 0.631795 0.097051
O9    O     O_2   0.698815 0.606611 0.723341 -0.607860
C46   C     C_2   0.287739 0.360002 0.401903 0.393290
H20   H     H_    0.367899 0.371147 0.367428 0.132470
O10   O     O_2   0.254014 0.286382 0.393201 -0.601154
O11   O     O_3   0.438323 0.533519 0.217732 -0.636088
C47   C     C_3   0.442736 0.620917 0.182272 0.105293
H21   H     H_    0.369038 0.633892 0.175479 0.156553
H22   H     H_    0.502058 0.630102 0.110211 0.123167
C48   C     C_3   0.457714 0.689260 0.252114 -0.334742
H23   H     H_    0.396949 0.680319 0.322775 0.239951
H24   H     H_    0.531782 0.678400 0.258763 0.198867
C49   C     C_3   0.454968 0.784630 0.219716 -0.975842
H25   H     H_    0.516128 0.795207 0.149632 0.270473
H26   H     H_    0.466475 0.832306 0.271639 0.274764
H27   H     H_    0.380621 0.798250 0.214649 0.265459
O12   O     O_3   0.537186 0.377907 0.750615 -0.637545
C50   C     C_3   0.501006 0.295851 0.727358 0.107161
H28   H     H_    0.557957 0.272492 0.659015 0.187051
H29   H     H_    0.428216 0.302796 0.716255 0.112722
C51   C     C_3   0.491320 0.224615 0.801457 -0.392025
H30   H     H_    0.563910 0.219719 0.812684 0.231988
H31   H     H_    0.430871 0.243434 0.869788 0.227008
C52   C     C_3   0.465209 0.133515 0.769666 -0.920854
H32   H     H_    0.392333 0.136629 0.758788 0.267647
H33   H     H_    0.457898 0.083434 0.824805 0.265327
H34   H     H_    0.525806 0.111695 0.702633 0.268528
O13   O     O_3   0.782281 0.516942 0.194977 -0.608828
C53   C     C_3   0.774899 0.609081 0.221498 0.131284
H35   H     H_    0.823089 0.620734 0.263747 0.164087
H36   H     H_    0.697581 0.629204 0.268286 0.129995
C54   C     C_3   0.811830 0.671031 0.135892 -0.434563
H37   H     H_    0.893804 0.661179 0.096268 0.224760
H38   H     H_    0.770375 0.656162 0.088106 0.208245
C55   C     C_3   0.794975 0.768840 0.167151 -0.931208
H39   H     H_    0.712974 0.781987 0.204641 0.268498
H40   H     H_    0.823979 0.812147 0.104098 0.268133
H41   H     H_    0.835869 0.786025 0.214879 0.265674
O14   O     O_3   0.245188 0.565449 0.808321 -0.607874
C56   C     C_3   0.285995 0.653186 0.797309 0.096921
H42   H     H_    0.357537 0.656428 0.734226 0.134616
H43   H     H_    0.301757 0.676001 0.860788 0.102878
C57   C     C_3   0.210681 0.717658 0.783144 -0.339572
H44   H     H_    0.191171 0.694612 0.722220 0.222454
H45   H     H_    0.140306 0.718758 0.847483 0.207145
C58   C     C_3   0.254367 0.812137 0.764340 -0.952930
H46   H     H_    0.272178 0.837570 0.825489 0.262911
H47   H     H_    0.198269 0.857152 0.753653 0.264751
H48   H     H_    0.324302 0.812916 0.699665 0.277812
O15   O     O_3   0.168989 0.504007 0.993560 -0.619913
C59   C     C_3   0.162384 0.588944 0.037638 0.081139
H49   H     H_    0.143904 0.639214 0.993819 0.164061
H50   H     H_    0.233546 0.610134 0.047365 0.111725
C60   C     C_3   0.077135 0.586879 0.135134 -0.325141
H51   H     H_    0.006142 0.563416 0.127624 0.255430
H52   H     H_    0.095974 0.539148 0.181064 0.215937
C61   C     C_3   0.060446 0.678824 0.183042 -0.985618
H53   H     H_    0.130282 0.702230 0.192985 0.267485
H54   H     H_    0.998362 0.674913 0.253535 0.268247
H55   H     H_    0.039360 0.727755 0.139616 0.267684
O16   O     O_3   0.835534 0.433707 0.020400 -0.601918
C62   C     C_3   0.882949 0.499913 0.952793 0.064934
H56   H     H_    0.912242 0.553726 0.986603 0.159298
H57   H     H_    0.831215 0.530006 0.921551 0.130745
C63   C     C_3   0.972967 0.458468 0.873096 -0.297465
H58   H     H_    0.030414 0.437445 0.901883 0.268631
H59   H     H_    0.947677 0.398378 0.843778 0.212309
C64   C     C_3   0.021313 0.524398 0.793351 -0.889054
H60   H     H_    0.967215 0.541368 0.759179 0.249225
H61   H     H_    0.089525 0.494061 0.739213 0.289887
H62   H     H_    0.043985 0.586393 0.821494 0.272510

loop_
_geom_bond_atom_site_label_1
_geom_bond_atom_site_label_2
_ccdc_geom_bond_type
C64   H62   S    
C50   H28   S    
C27   C29   A    
C28   H8    S    
C23   O5    A    
C1    C11   S    
C63   C64   S    
C7    H11   S    
C45   H19   S    
C2    C12   S    
C8    H12   S    
C53   H36   S    
O11   C47   S    
C24   O6    A    
C39   C41   A    
C20   C30   A    
C48   H23   S    
C62   H57   S    
C59   H49   S    
C36   O13   S    
C32   C36   A    
C10   H14   S    
C63   H59   S    
C2    O4    A    
C26   H6    S    
C19   H3    S    
C64   H60   S    
O2    Zn2   S    
C51   C52   S    
C11   C13   A    
O1    Zn1   S    
C35   O14   S    
C15   C17   A    
C25   N1    A    
C26   N2    A    
C57   H44   S    
C58   H48   S    
C55   H40   S    
C1    O3    A    
C55   H39   S    
C61   H53   S    
C7    C17   A    
C51   H31   S    
O6    Zn2   S    
C1    O1    A    
N2    Zn1   S    
O5    Zn1   S    
C32   C38   A    
C9    H13   S    
C60   C61   S    
C4    H10   S    
C40   C42   A    
C50   H29   S    
C54   H38   S    
C16   H18   S    
C53   H35   S    
C27   H7    S    
O14   C56   S    
C25   H5    S    
C48   H24   S    
C62   C63   S    
C3    C44   A    
C34   C42   A    
C58   H47   S    
C23   O7    A    
C63   H58   S    
C22   C46   S    
C4    C6    A    
C46   H20   S    
O16   C62   S    
C39   C43   A    
C59   C60   S    
C56   H43   S    
O4    Zn1   S    
C5    H1    S    
C8    C18   A    
C31   C37   A    
C57   C58   S    
C23   C31   S    
C43   C44   A    
C24   C32   S    
C29   C30   S    
C9    C11   A    
C52   H32   S    
C49   H27   S    
C34   O16   S    
C54   H37   S    
C56   C57   S    
C51   H30   S    
C33   O15   S    
C17   C18   S    
C15   H17   S    
C46   O10   D    
O3    Zn2   S    
C45   O9    D    
C55   H41   S    
C58   H46   S    
C20   H4    S    
C10   C12   A    
C8    C10   A    
C4    C43   A    
C49   H26   S    
C50   C51   S    
C47   H22   S    
C13   C15   A    
C38   O11   S    
O15   C59   S    
C54   C55   S    
C14   C16   A    
C19   C29   A    
C3    C5    A    
C24   O8    A    
C60   H51   S    
C48   C49   S    
C64   H61   S    
C5    C41   A    
C59   H50   S    
C6    H2    S    
C37   O12   S    
C19   C21   A    
C16   C18   A    
C20   C22   A    
O8    Zn1   S    
C2    O2    A    
O7    Zn2   S    
C13   H15   S    
N1    Zn2   S    
C25   C27   A    
C47   C48   S    
C14   H16   S    
C62   H56   S    
C21   C45   S    
C26   C28   A    
C33   C41   A    
C28   C30   A    
C12   C14   A    
C37   C39   A    
C38   C40   A    
C3    H9    S    
C61   H55   S    
C31   C35   A    
O12   C50   S    
C33   C35   A    
C34   C36   A    
C57   H45   S    
C21   N1    A    
C22   N2    A    
C7    C9    A    
C40   C44   A    
C52   H34   S    
C49   H25   S    
C61   H54   S    
C47   H21   S    
C6    C42   A    
O13   C53   S    
C52   H33   S    
C53   C54   S    
C56   H42   S    
C60   H52   S    
