data_mof_unit_50199.cif
_audit_creation_date              2012-10-26T20:14:31-0400
_audit_creation_method            fapswitch 2.2
_symmetry_space_group_name_H-M    P1
_symmetry_Int_Tables_number       1
_space_group_crystal_system       triclinic
_cell_length_a                    7.805614
_cell_length_b                    9.090113
_cell_length_c                    17.209219
_cell_angle_alpha                 90.000041
_cell_angle_beta                  85.069619
_cell_angle_gamma                 90.0
_cell_volume                      1216.54333934

loop_
_atom_site_label
_atom_site_type_symbol
_atom_type_description
_atom_site_fract_x
_atom_site_fract_y
_atom_site_fract_z
_atom_type_partial_charge
C1    C     C_R   0.500000 0.779886 0.500000 0.546236
C2    C     C_R   0.443122 0.423942 0.220020 -0.148601
C3    C     C_R   0.542433 0.439398 0.860699 -0.108138
C4    C     C_R   0.457591 0.439388 0.139300 -0.108131
C5    C     C_R   0.435418 0.548893 0.896401 0.076042
C6    C     C_R   0.564589 0.548895 0.103599 0.076044
C7    C     C_R   0.336654 0.637173 0.850938 -0.122537
C8    C     C_R   0.663332 0.637191 0.149065 -0.122548
C9    C     C_R   0.346408 0.618231 0.770488 -0.140718
C10   C     C_R   0.653575 0.618249 0.229515 -0.140713
C11   C     C_2   0.426992 0.571754 0.981233 0.236242
C12   C     C_R   0.500000 0.220111 0.500000 0.549569
C13   C     C_2   0.573016 0.571757 0.018768 0.236239
C14   C     C_3   0.764720 0.727806 0.951478 0.004900
C15   C     C_3   0.857611 0.723950 0.869635 -0.250024
C16   C     C_3   0.921836 0.876251 0.843715 -0.488646
C17   C     C_3   0.235286 0.727792 0.048530 0.004900
C18   C     C_3   0.142364 0.723920 0.130366 -0.250018
C19   C     C_3   0.078151 0.876220 0.156294 -0.488645
C20   C     C_1   0.500000 0.934597 0.500000 -0.053813
C21   C     C_1   0.500000 0.065393 0.500000 -0.052876
C22   C     C_R   0.476287 0.501230 0.650370 0.538182
C23   C     C_R   0.523713 0.501231 0.349630 0.538181
C24   C     C_R   0.458861 0.513420 0.734811 0.019192
C25   C     C_R   0.541140 0.513423 0.265189 0.019196
C26   C     C_R   0.556898 0.423952 0.779979 -0.148601
Cu1   Cu    Cu3+1 0.330920 0.500000 0.500000 1.016445
Cu2   Cu    Cu3+1 0.669080 0.500000 0.500000 1.016445
H1    H     H_    0.383372 0.367552 0.104832 0.142691
H2    H     H_    0.646310 0.796269 0.949282 0.097083
H3    H     H_    0.967929 0.646846 0.868758 0.194850
H4    H     H_    0.768485 0.683037 0.827585 0.176293
H5    H     H_    0.812024 0.953673 0.842321 0.152102
H6    H     H_    0.989016 0.869183 0.784284 0.152156
H7    H     H_    0.013425 0.919237 0.884165 0.136443
H8    H     H_    0.151978 0.782761 0.008197 0.136645
H9    H     H_    0.353697 0.796247 0.050741 0.097090
H10   H     H_    0.032036 0.646829 0.131227 0.194858
H11   H     H_    0.231466 0.682982 0.172421 0.176299
H12   H     H_    0.616665 0.367570 0.895164 0.142700
H13   H     H_    0.187972 0.953629 0.157705 0.152103
H14   H     H_    0.010946 0.869140 0.215719 0.152154
H15   H     H_    0.986587 0.919231 0.115839 0.136441
H16   H     H_    0.256011 0.723329 0.877333 0.108489
H17   H     H_    0.743961 0.723358 0.122671 0.108478
H18   H     H_    0.643014 0.341764 0.752865 0.120283
H19   H     H_    0.357018 0.341743 0.247132 0.120277
H20   H     H_    0.729097 0.688717 0.264180 0.119551
H21   H     H_    0.270871 0.688689 0.735824 0.119557
H22   H     H_    0.848048 0.782760 0.991807 0.136656
N1    N     N_1   0.923170 0.500000 0.500010 -0.081639
N2    N     N_1   0.076830 0.500000 0.499990 -0.081639
O1    O     O_R   0.357240 0.711600 0.500000 -0.497804
O2    O     O_3   0.266228 0.581624 0.022199 -0.582415
O3    O     O_R   0.642760 0.288400 0.500000 -0.495614
O4    O     O_R   0.642760 0.711600 0.500000 -0.497804
O5    O     O_R   0.357240 0.288400 0.500000 -0.495613
O6    O     O_R   0.340660 0.500000 0.613590 -0.503094
O7    O     O_R   0.659340 0.500000 0.386410 -0.503093
O8    O     O_R   0.626230 0.500000 0.613600 -0.502936
O9    O     O_R   0.373770 0.500000 0.386400 -0.502935
O10   O     O_3   0.733780 0.581634 0.977802 -0.582418

loop_
_geom_bond_atom_site_label_1
_geom_bond_atom_site_label_2
_ccdc_geom_bond_type
C22   O6    A    
C2    C4    A    
C18   H11   S    
Cu1   O1    S    
C9    C24   A    
C15   H3    S    
C17   H8    S    
C2    H19   S    
C4    H1    S    
C19   H14   S    
C10   H20   S    
Cu2   O8    S    
C17   C18   S    
C18   H10   S    
C15   H4    S    
C17   H9    S    
C7    H16   S    
C20   C21   T    
C6    C13   S    
C22   O8    A    
C11   C13   D    
C14   H22   S    
C11   O2    S    
C14   H2    S    
C12   O5    A    
C17   O2    S    
C10   C25   A    
C4    C6    A    
C1    O4    A    
C19   H15   S    
C3    H12   S    
C5    C11   S    
C2    C25   A    
C5    C7    A    
C23   C25   S    
C16   H7    S    
Cu2   O4    S    
C16   H5    S    
Cu2   N1    S    
C22   C24   S    
C12   O3    A    
C26   H18   S    
C15   C16   S    
C14   O10   S    
C19   H13   S    
C23   O9    A    
C9    H21   S    
Cu1   N2    S    
C8    C10   A    
C18   C19   S    
Cu1   O5    S    
Cu2   O7    S    
Cu1   Cu2   S    
C7    C9    A    
C1    O1    A    
C8    H17   S    
C1    C20   S    
C6    C8    A    
Cu1   O9    S    
C23   O7    A    
C16   H6    S    
C14   C15   S    
C12   C21   S    
Cu2   O3    S    
C3    C26   A    
C13   O10   S    
N1    N2    T    
C24   C26   A    
C3    C5    A    
Cu1   O6    S    
