data_mof_unit_50110.cif
_audit_creation_date              2012-12-10T17:50:38-0500
_audit_creation_method            fapswitch 2.2
_symmetry_space_group_name_H-M    P1
_symmetry_Int_Tables_number       1
_space_group_crystal_system       triclinic
_cell_length_a                    15.648519
_cell_length_b                    10.705906
_cell_length_c                    9.949293
_cell_angle_alpha                 92.686683
_cell_angle_beta                  90.391758
_cell_angle_gamma                 94.047286
_cell_volume                      1660.7501891

loop_
_atom_site_label
_atom_site_type_symbol
_atom_type_description
_atom_site_fract_x
_atom_site_fract_y
_atom_site_fract_z
_atom_type_partial_charge
C1    C     C_R   0.507954 0.261996 0.497564 0.886949
C2    C     C_3   0.085287 0.536881 0.501699 0.147211
C3    C     C_3   0.975716 0.640661 0.552922 -0.216657
C4    C     C_3   0.918678 0.524500 0.503585 0.147981
C5    C     C_3   0.031025 0.624374 0.425238 -0.175698
C6    C     C_3   0.972040 0.508681 0.376047 -0.169440
C7    C     C_1   0.176325 0.534854 0.499586 -0.090683
C8    C     C_1   0.827233 0.516155 0.502939 -0.091422
C9    C     C_R   0.604207 0.148072 0.707131 -0.167051
C10   C     C_R   0.619066 0.100177 0.831901 -0.135714
C11   C     C_R   0.583741 0.981815 0.859522 -0.111509
C12   C     C_R   0.338842 0.508369 0.499836 0.938517
C13   C     C_R   0.540546 0.906967 0.758424 -0.152685
C14   C     C_R   0.530911 0.950335 0.626816 0.111543
C15   C     C_R   0.553382 0.077236 0.608335 0.114160
C16   C     C_R   0.520850 0.131259 0.493878 -0.130512
C17   C     C_R   0.485279 0.058114 0.386024 -0.236797
C18   C     C_R   0.476355 0.930930 0.393898 -0.218010
C19   C     C_R   0.498718 0.875461 0.512531 -0.123865
C20   C     C_R   0.402079 0.318458 0.136925 -0.210097
C21   C     C_R   0.377962 0.204464 0.074117 -0.404043
C22   C     C_R   0.386003 0.187833 0.935192 0.381328
C23   C     C_R   0.498672 0.740663 0.504014 0.852815
C24   C     C_R   0.403423 0.296873 0.858574 0.449791
C25   C     C_R   0.450190 0.405487 0.924321 -0.006589
C26   C     C_R   0.450184 0.409913 0.069108 0.100321
C27   C     C_R   0.551027 0.582188 0.077419 -0.109375
C28   C     C_R   0.555106 0.578457 0.934940 0.152431
C29   C     C_R   0.662046 0.501247 0.500514 0.884846
C30   C     C_3   0.973529 0.437431 0.579439 0.126001
C31   C     C_3   0.028014 0.421088 0.452073 -0.212334
C32   C     C_1   0.251114 0.524946 0.499171 -0.188185
C33   C     C_1   0.751466 0.508438 0.501906 -0.205094
C34   C     C_3   0.031589 0.552744 0.628754 0.125455
H1    H     H_    0.051690 0.332000 0.410468 0.137750
H2    H     H_    0.589900 0.947823 0.959625 0.122187
H3    H     H_    0.510812 0.819958 0.789909 0.160682
H4    H     H_    0.449979 0.875986 0.307088 0.167994
H5    H     H_    0.593174 0.648179 0.136725 0.154210
H6    H     H_    0.389061 0.327777 0.241578 0.232894
H7    H     H_    0.354630 0.129150 0.135801 0.152733
H8    H     H_    0.945343 0.490265 0.272769 0.143494
H9    H     H_    0.056912 0.700714 0.362042 0.141545
H10   H     H_    0.951843 0.729819 0.593887 0.135353
H11   H     H_    0.461962 0.099361 0.297014 0.175152
H12   H     H_    0.631616 0.241408 0.689183 0.141160
H13   H     H_    0.655130 0.156761 0.908710 0.131298
N1    N     N_R   0.499210 0.498800 0.142780 -0.117520
N2    N     N_R   0.499180 0.498720 0.857170 -0.121079
O1    O     O_R   0.500000 0.316780 0.614690 -0.569935
O2    O     O_R   0.499990 0.316750 0.385360 -0.641517
O3    O     O_R   0.376780 0.500000 0.614650 -0.532503
O4    O     O_R   0.376770 0.499980 0.385310 -0.646404
O5    O     O_R   0.500010 0.683250 0.614640 -0.664398
O6    O     O_R   0.500000 0.683220 0.385310 -0.616498
O7    O     O_R   0.623230 0.500020 0.614690 -0.652323
O8    O     O_R   0.623220 0.500000 0.385350 -0.605769
Zn1   Zn    Zn3+2 0.500010 0.500020 0.653130 0.955125
Zn2   Zn    Zn3+2 0.499990 0.499980 0.346870 0.931605
O9    O     O_3   0.383572 0.068427 0.871560 -0.626654
C35   C     C_3   0.323242 0.981379 0.927772 0.073583
H14   H     H_    0.263340 0.025309 0.958107 0.127890
H15   H     H_    0.352306 0.939622 0.015963 0.158511
C36   C     C_3   0.298608 0.876126 0.823495 -0.853805
H16   H     H_    0.355954 0.827448 0.791938 0.265391
H17   H     H_    0.251632 0.807042 0.867092 0.211489
H18   H     H_    0.269182 0.914561 0.733812 0.239604
O10   O     O_3   0.364409 0.307252 0.732783 -0.569184
C37   C     C_3   0.312318 0.200157 0.683921 0.164025
H19   H     H_    0.264127 0.169931 0.759722 0.141801
H20   H     H_    0.353414 0.123691 0.652392 0.205330
C38   C     C_3   0.261465 0.227270 0.559671 -0.927191
H21   H     H_    0.305068 0.259217 0.478843 0.252526
H22   H     H_    0.224651 0.140100 0.521686 0.208507
H23   H     H_    0.214949 0.297513 0.586111 0.255377
C39   C     C_3   0.630021 0.651855 0.874519 -0.401665
C40   C     C_3   0.712149 0.580169 0.874312 -0.309309
C41   C     C_3   0.757493 0.585656 0.011292 -0.899211
H24   H     H_    0.768852 0.684208 0.050935 0.260054
H25   H     H_    0.719347 0.530387 0.084305 0.273205
H26   H     H_    0.820364 0.544446 0.000409 0.240750
H27   H     H_    0.697509 0.480325 0.841047 0.234025
H28   H     H_    0.757478 0.622625 0.800851 0.208252
H29   H     H_    0.615256 0.674214 0.770705 0.227409
H30   H     H_    0.642333 0.743622 0.930365 0.163866
C42   C     C_3   0.935409 0.327777 0.658370 -0.434451
C43   C     C_3   0.005189 0.252514 0.717613 -0.345125
C44   C     C_3   0.966062 0.139223 0.788679 -0.889119
H31   H     H_    0.924462 0.169991 0.872167 0.261171
H32   H     H_    0.927536 0.075509 0.716528 0.260714
H33   H     H_    0.017949 0.086823 0.831036 0.246015
H34   H     H_    0.047526 0.219259 0.636195 0.220366
H35   H     H_    0.044828 0.312434 0.791466 0.224304
H36   H     H_    0.894216 0.363961 0.739627 0.192311
H37   H     H_    0.894075 0.265416 0.588590 0.206766
C45   C     C_3   0.071558 0.585834 0.767969 -0.427254
C46   C     C_3   0.003303 0.600543 0.876174 -0.349296
C47   C     C_3   0.044067 0.642261 0.012177 -0.894617
H38   H     H_    0.087021 0.571280 0.045838 0.266298
H39   H     H_    0.081476 0.733830 0.005320 0.259087
H40   H     H_    0.993121 0.652942 0.088155 0.247211
H41   H     H_    0.958763 0.671204 0.846823 0.224393
H42   H     H_    0.965810 0.509872 0.887138 0.221312
H43   H     H_    0.114363 0.512198 0.794627 0.199975
H44   H     H_    0.111500 0.675464 0.762339 0.206536

loop_
_geom_bond_atom_site_label_1
_geom_bond_atom_site_label_2
_ccdc_geom_bond_type
C27   N1    A    
C43   C44   S    
O6    Zn2   S    
C35   C36   S    
C2    C7    S    
C4    C8    S    
C39   H29   S    
C45   H44   S    
C46   C47   S    
O4    Zn2   S    
C40   C41   S    
C23   O5    A    
C11   H2    S    
C34   C45   S    
C22   O9    S    
C5    C6    S    
C20   H6    S    
C41   H25   S    
O8    Zn2   S    
C40   H28   S    
C15   C16   A    
C29   C33   S    
C35   H15   S    
C18   C19   A    
C37   H20   S    
C42   H36   S    
C27   H5    S    
C16   C17   A    
C30   C42   S    
C1    O1    A    
C13   H3    S    
C12   O4    A    
C26   N1    A    
C2    C34   S    
C6    C31   S    
C5    H9    S    
C9    H12   S    
C21   C22   A    
C12   C32   S    
C37   H19   S    
C38   H23   S    
C9    C10   A    
C12   O3    A    
C3    H10   S    
C30   C34   S    
O1    Zn1   S    
C36   H18   S    
C39   C40   S    
C38   H22   S    
C42   H37   S    
C42   C43   S    
O10   C37   S    
C3    C34   S    
C25   C26   A    
N2    Zn1   S    
O9    C35   S    
C36   H17   S    
C37   C38   S    
C19   C23   S    
C28   N2    A    
C44   H33   S    
C45   C46   S    
C20   C21   A    
C17   C18   A    
C1    C16   S    
C24   C25   A    
C1    O2    A    
C46   H42   S    
O3    Zn1   S    
C21   H7    S    
C4    C6    S    
C44   H32   S    
C47   H39   S    
C45   H43   S    
C31   H1    S    
C2    C5    S    
O2    Zn2   S    
C3    C4    S    
C28   C39   S    
C10   H13   S    
C43   H34   S    
N1    Zn2   S    
O5    Zn1   S    
C7    C32   T    
C41   H24   S    
C14   C19   A    
C46   H41   S    
C17   H11   S    
C38   H21   S    
C3    C5    S    
C23   O6    A    
C29   O7    A    
C47   H40   S    
C36   H16   S    
C18   H4    S    
C11   C13   A    
C41   H26   S    
C30   C31   S    
C20   C26   A    
C40   H27   S    
C29   O8    A    
C43   H35   S    
O7    Zn1   S    
C22   C24   A    
C8    C33   T    
C9    C15   A    
C35   H14   S    
C25   N2    A    
C10   C11   A    
C24   O10   S    
C44   H31   S    
C47   H38   S    
C6    H8    S    
C27   C28   A    
C14   C15   A    
C2    C31   S    
C13   C14   A    
C39   H30   S    
C4    C30   S    
