data_mof_unit_35766.cif
_audit_creation_date              2012-12-10T18:27:24-0500
_audit_creation_method            fapswitch 2.2
_symmetry_space_group_name_H-M    P1
_symmetry_Int_Tables_number       1
_space_group_crystal_system       triclinic
_cell_length_a                    15.013591
_cell_length_b                    13.981404
_cell_length_c                    27.740711
_cell_angle_alpha                 90.000161
_cell_angle_beta                  90.090202
_cell_angle_gamma                 89.999955
_cell_volume                      5823.07542473

loop_
_atom_site_label
_atom_site_type_symbol
_atom_type_description
_atom_site_fract_x
_atom_site_fract_y
_atom_site_fract_z
_atom_type_partial_charge
C1    C     C_R   0.326417 0.499999 0.500039 0.903062
C2    C     C_R   0.673583 0.499999 0.499961 0.903062
C3    C     C_R   0.496732 0.504545 0.101817 -0.072817
C4    C     C_R   0.503276 0.504543 0.898183 -0.072815
C5    C     C_R   0.414954 0.513226 0.127238 -0.075482
C6    C     C_R   0.585056 0.513209 0.872761 -0.075482
C7    C     C_R   0.334612 0.529849 0.100929 0.110841
C8    C     C_R   0.665401 0.529814 0.899070 0.110837
C9    C     C_R   0.577563 0.493615 0.127373 -0.024052
C10   C     C_R   0.422443 0.493628 0.872627 -0.024049
C11   C     C_R   0.500206 0.499967 0.353315 -0.117653
C12   C     C_R   0.499795 0.499967 0.646685 -0.117653
C13   C     C_R   0.419051 0.502582 0.974040 0.061721
C14   C     C_R   0.580957 0.502567 0.025959 0.061721
C15   C     C_R   0.582235 0.511568 0.975080 0.003338
C16   C     C_R   0.417774 0.511584 0.024920 0.003338
C17   C     C_R   0.501608 0.506406 0.949185 0.076610
C18   C     C_R   0.498401 0.506407 0.050815 0.076610
C19   C     C_R   0.340322 0.488011 0.947194 -0.226723
C20   C     C_R   0.659684 0.487982 0.052806 -0.226722
C21   C     C_R   0.342114 0.484149 0.897423 -0.141651
C22   C     C_R   0.657891 0.484121 0.102577 -0.141650
C23   C     C_R   0.500296 0.499993 0.405947 0.918438
C24   C     C_R   0.499704 0.499993 0.594053 0.918436
C25   C     C_R   0.338165 0.527822 0.050363 -0.217228
C26   C     C_R   0.661847 0.527789 0.949636 -0.217227
C27   C     C_R   0.815221 0.587126 0.499908 -0.254659
C28   C     C_R   0.184780 0.412863 0.500094 -0.254055
C29   C     C_R   0.769449 0.499996 0.499916 -0.077693
C30   C     C_R   0.230551 0.499996 0.500084 -0.077693
C31   C     C_R   0.815220 0.412863 0.499906 -0.254055
C32   C     C_R   0.184778 0.587127 0.500092 -0.254659
C33   C     C_R   0.907342 0.412209 0.499943 0.117765
C34   C     C_R   0.092657 0.587779 0.500055 0.117831
C35   C     C_R   0.953668 0.499994 0.499971 0.062832
C36   C     C_R   0.046332 0.499994 0.500028 0.062832
C37   C     C_R   0.907343 0.587779 0.499944 0.117831
C38   C     C_R   0.092658 0.412209 0.500057 0.117765
C39   C     C_R   0.953731 0.325364 0.499970 -0.213765
C40   C     C_R   0.046268 0.674624 0.500028 -0.214360
C41   C     C_R   0.046269 0.325364 0.500030 -0.213765
C42   C     C_R   0.953732 0.674624 0.499970 -0.214361
C43   C     C_R   0.536050 0.798096 0.461878 -0.068417
C44   C     C_R   0.464068 0.201922 0.538160 -0.067357
C45   C     C_R   0.463950 0.798096 0.538122 -0.068417
C46   C     C_R   0.535932 0.201921 0.461840 -0.067357
C47   C     C_R   0.418201 0.506553 0.178205 0.507319
C48   C     C_R   0.581807 0.506541 0.821795 0.507326
C49   C     C_R   0.463384 0.898793 0.539137 0.017934
C50   C     C_R   0.536570 0.101242 0.460849 0.017955
C51   C     C_R   0.536616 0.898793 0.460863 0.017934
C52   C     C_R   0.463430 0.101243 0.539151 0.017955
C53   C     C_R   0.500000 0.949392 0.500000 0.085775
C54   C     C_R   0.500000 0.050644 0.500000 0.084029
C55   C     C_R   0.427231 0.949813 0.578132 -0.211901
C56   C     C_R   0.572772 0.050243 0.421871 -0.206399
C57   C     C_R   0.572769 0.949812 0.421868 -0.211902
C58   C     C_R   0.427228 0.050244 0.578128 -0.206399
C59   C     C_R   0.576603 0.491984 0.177514 0.545464
C60   C     C_R   0.423402 0.491997 0.822486 0.545454
C61   C     C_R   0.498242 0.587779 0.277906 0.075388
C62   C     C_R   0.501764 0.587780 0.722095 0.075389
C63   C     C_R   0.498270 0.586691 0.328142 -0.250320
C64   C     C_R   0.501734 0.586692 0.671858 -0.250321
C65   C     C_R   0.502563 0.413260 0.328099 -0.351328
C66   C     C_R   0.497438 0.413261 0.671901 -0.351327
C67   C     C_R   0.499686 0.412340 0.277627 0.533381
C68   C     C_R   0.500317 0.412341 0.722372 0.533377
C69   C     C_R   0.499299 0.499907 0.252868 0.230577
C70   C     C_R   0.500706 0.499908 0.747132 0.230583
H1    H     H_    0.507025 0.346545 0.347668 0.166774
H2    H     H_    0.492973 0.346545 0.652332 0.166774
H3    H     H_    0.779353 0.345517 0.499889 0.164652
H4    H     H_    0.220643 0.654474 0.500108 0.164730
H5    H     H_    0.918495 0.257707 0.499950 0.147754
H6    H     H_    0.081504 0.742281 0.500048 0.147779
H7    H     H_    0.081506 0.257707 0.500051 0.147754
H8    H     H_    0.918495 0.742281 0.499950 0.147779
H9    H     H_    0.564363 0.757874 0.432296 0.133673
H10   H     H_    0.435876 0.242136 0.567780 0.133935
H11   H     H_    0.435636 0.757875 0.567704 0.133674
H12   H     H_    0.564124 0.242135 0.432220 0.133935
H13   H     H_    0.398983 0.912090 0.608605 0.140367
H14   H     H_    0.601076 0.087980 0.391423 0.144644
H15   H     H_    0.601016 0.912089 0.391395 0.140367
H16   H     H_    0.398924 0.087981 0.608577 0.144645
H17   H     H_    0.502265 0.654008 0.652480 0.166185
H18   H     H_    0.497740 0.654007 0.347520 0.166185
H19   H     H_    0.279824 0.473271 0.878413 0.187829
H20   H     H_    0.720180 0.473233 0.121587 0.187829
H21   H     H_    0.276338 0.475963 0.963748 0.140003
H22   H     H_    0.723666 0.475923 0.036252 0.140003
H23   H     H_    0.278507 0.542952 0.030541 0.138580
H24   H     H_    0.721507 0.542909 0.969458 0.138580
H25   H     H_    0.779356 0.654474 0.499891 0.164730
H26   H     H_    0.220647 0.345517 0.500112 0.164652
N1    N     N_R   0.498004 0.498932 0.201473 -0.328908
N2    N     N_R   0.502002 0.498933 0.798526 -0.328907
N3    N     N_R   0.500000 0.750030 0.500000 -0.103649
N4    N     N_R   0.500000 0.249970 0.500000 -0.104110
O1    O     O_R   0.367850 0.580280 0.500010 -0.624164
O2    O     O_R   0.632150 0.419720 0.499990 -0.624171
O3    O     O_R   0.632150 0.580280 0.499990 -0.624165
O4    O     O_R   0.367850 0.419720 0.500010 -0.624171
O5    O     O_R   0.500010 0.580260 0.428760 -0.632480
O6    O     O_R   0.499990 0.419740 0.571240 -0.629605
O7    O     O_R   0.499990 0.580260 0.571240 -0.632480
O8    O     O_R   0.500010 0.419740 0.428760 -0.629604
O9    O     O_2   0.343293 0.506327 0.204882 -0.615442
O10   O     O_2   0.656714 0.506309 0.795117 -0.615446
O11   O     O_2   0.346436 0.483826 0.797557 -0.560544
O12   O     O_2   0.653568 0.483801 0.202444 -0.560539
Zn1   Zn    Zn3+2 0.500000 0.607200 0.500000 0.946512
Zn2   Zn    Zn3+2 0.500000 0.392800 0.500000 0.947552
O13   O     O_3   0.506040 0.328225 0.251055 -0.634755
C71   C     C_3   0.446402 0.256567 0.267322 0.096342
H27   H     H_    0.407402 0.231685 0.235644 0.169951
H28   H     H_    0.396354 0.281812 0.294175 0.127535
C72   C     C_3   0.499210 0.171493 0.287240 -0.349092
H29   H     H_    0.542187 0.141811 0.258278 0.237310
H30   H     H_    0.543032 0.195341 0.317192 0.212111
C73   C     C_3   0.437597 0.092819 0.305696 -0.966479
H31   H     H_    0.396202 0.120020 0.335890 0.271563
H32   H     H_    0.477990 0.031709 0.319000 0.268435
H33   H     H_    0.393507 0.067003 0.276248 0.267478
O14   O     O_3   0.493962 0.328226 0.748945 -0.634759
C74   C     C_3   0.553599 0.256568 0.732677 0.096347
H34   H     H_    0.592600 0.231685 0.764355 0.169952
H35   H     H_    0.603646 0.281812 0.705823 0.127537
C75   C     C_3   0.500790 0.171494 0.712760 -0.349096
H36   H     H_    0.457815 0.141812 0.741722 0.237310
H37   H     H_    0.456967 0.195342 0.682808 0.212113
C76   C     C_3   0.562402 0.092819 0.694303 -0.966481
H38   H     H_    0.603795 0.120020 0.664108 0.271564
H39   H     H_    0.522008 0.031709 0.680999 0.268435
H40   H     H_    0.606494 0.067004 0.723750 0.267478
C77   C     C_3   0.246371 0.551583 0.126448 -0.329543
C78   C     C_3   0.166977 0.581423 0.094626 -0.435494
C79   C     C_3   0.085754 0.606148 0.125254 -0.840610
H41   H     H_    0.065250 0.543413 0.147164 0.267419
H42   H     H_    0.100954 0.667120 0.149591 0.262952
H43   H     H_    0.029464 0.626723 0.101398 0.249827
H44   H     H_    0.184965 0.645397 0.072908 0.232117
H45   H     H_    0.148334 0.521679 0.070158 0.227562
H46   H     H_    0.225658 0.486713 0.146689 0.244525
H47   H     H_    0.258288 0.611425 0.152076 0.232071
C80   C     C_3   0.753648 0.551524 0.873552 -0.329539
C81   C     C_3   0.833050 0.581335 0.905374 -0.435499
C82   C     C_3   0.914281 0.606032 0.874747 -0.840603
H48   H     H_    0.934766 0.543290 0.852836 0.267419
H49   H     H_    0.899099 0.667009 0.850410 0.262954
H50   H     H_    0.970578 0.626586 0.898603 0.249825
H51   H     H_    0.815083 0.645314 0.927093 0.232115
H52   H     H_    0.851675 0.521583 0.929842 0.227564
H53   H     H_    0.774342 0.486650 0.853309 0.244525
H54   H     H_    0.741746 0.611373 0.847926 0.232075
C83   C     C_3   0.500757 0.683272 0.747878 -0.399703
C84   C     C_3   0.590827 0.734241 0.743321 -0.328581
C85   C     C_3   0.589632 0.830755 0.769002 -0.891540
H55   H     H_    0.537827 0.877907 0.753047 0.265891
H56   H     H_    0.575905 0.820860 0.808025 0.265236
H57   H     H_    0.655456 0.866050 0.764983 0.253497
H58   H     H_    0.644048 0.689115 0.759425 0.255897
H59   H     H_    0.606984 0.746224 0.704702 0.221923
H60   H     H_    0.447382 0.728608 0.731993 0.201045
H61   H     H_    0.484465 0.674842 0.786661 0.200862
C86   C     C_3   0.499254 0.683271 0.252123 -0.399705
C87   C     C_3   0.409187 0.734246 0.256679 -0.328576
C88   C     C_3   0.410386 0.830758 0.230997 -0.891545
H62   H     H_    0.462194 0.877908 0.246953 0.265892
H63   H     H_    0.424112 0.820862 0.191974 0.265236
H64   H     H_    0.344563 0.866058 0.235017 0.253496
H65   H     H_    0.355963 0.689122 0.240576 0.255900
H66   H     H_    0.393030 0.746231 0.295298 0.221922
H67   H     H_    0.552631 0.728604 0.268008 0.201043
H68   H     H_    0.515546 0.674841 0.213339 0.200860

loop_
_geom_bond_atom_site_label_1
_geom_bond_atom_site_label_2
_ccdc_geom_bond_type
C26   H24   S    
C66   C68   A    
C25   H23   S    
C83   C84   S    
C1    O1    A    
C63   H18   S    
C27   C29   A    
O1    Zn1   S    
C88   H62   S    
C14   C18   A    
C48   O10   S    
C35   C36   A    
C39   C41   A    
C21   H19   S    
C53   C54   A    
C71   H27   S    
C87   H66   S    
C5    C47   A    
C33   C39   A    
C6    C48   A    
O6    Zn2   S    
C2    C29   S    
C34   C40   A    
O5    Zn1   S    
O3    Zn1   S    
C43   N3    A    
C4    C10   A    
C60   N2    A    
C78   H44   S    
C82   H49   S    
C41   H7    S    
C12   C64   A    
C79   H43   S    
C9    C22   A    
C31   H3    S    
C2    O2    A    
C43   H9    S    
O13   C71   S    
C23   O5    A    
C8    C26   A    
C56   C57   A    
C62   C70   A    
C3    C18   A    
O8    Zn2   S    
C37   C42   A    
C61   C63   A    
C67   O13   S    
O7    Zn1   S    
C62   C64   A    
C46   H12   S    
C27   H25   S    
C66   H2    S    
C80   C81   S    
C57   H15   S    
C65   C67   A    
C76   H40   S    
C31   C33   A    
C51   C57   A    
C45   C49   A    
C80   H53   S    
C64   H17   S    
C84   H59   S    
C44   C52   A    
C40   C42   A    
C88   H63   S    
C81   H52   S    
C58   H16   S    
C52   C54   A    
C46   C50   A    
C56   H14   S    
C72   H30   S    
C10   C21   A    
C87   H65   S    
C62   C83   S    
C13   C19   A    
C14   C20   A    
C77   H47   S    
C44   H10   S    
N4    Zn2   S    
C81   C82   S    
C38   C41   A    
C4    C6    A    
C45   N3    A    
C82   H50   S    
C83   H60   S    
C86   C87   S    
C5    C7    A    
C15   C26   A    
C6    C8    A    
C7    C77   S    
C65   H1    S    
C12   C66   A    
C50   C56   A    
C40   H6    S    
C61   C86   S    
C32   C34   A    
C75   H37   S    
C74   H35   S    
O2    Zn2   S    
C20   H22   S    
C85   H55   S    
C28   C38   A    
C72   H29   S    
C49   C55   A    
C85   H56   S    
C59   O12   S    
C22   H20   S    
C85   H57   S    
C24   O7    A    
C50   C54   A    
C79   H42   S    
C80   H54   S    
C1    O4    A    
C52   C58   A    
C84   H58   S    
O4    Zn2   S    
C4    C17   A    
C16   C18   A    
C87   C88   S    
C3    C9    A    
C20   C22   A    
C42   H8    S    
C39   H5    S    
C84   C85   S    
C59   N1    A    
C88   H64   S    
C13   C16   A    
C8    C80   S    
C24   O6    A    
C81   H51   S    
C55   H13   S    
C74   H34   S    
C68   O14   S    
C51   C53   A    
C86   H67   S    
C72   C73   S    
C77   H46   S    
C16   C25   A    
C15   C17   A    
C46   N4    A    
C10   C60   A    
C32   H4    S    
C35   C37   A    
C45   H11   S    
C11   C23   S    
C3    C5    A    
C47   N1    A    
C83   H61   S    
N3    Zn1   S    
C79   H41   S    
C48   N2    A    
C77   C78   S    
C12   C24   S    
C11   C63   A    
C7    C25   A    
C71   C72   S    
C13   C17   A    
C28   H26   S    
C61   C69   A    
C73   H33   S    
C36   C38   A    
C75   H36   S    
C74   C75   S    
C29   C31   A    
C60   O11   S    
C47   O9    S    
C82   H48   S    
C30   C32   A    
C44   N4    A    
C43   C51   A    
C76   H38   S    
C2    O3    A    
C27   C37   A    
O14   C74   S    
C49   C53   A    
C23   O8    A    
C28   C30   A    
C1    C30   S    
C33   C35   A    
C71   H28   S    
C34   C36   A    
C19   H21   S    
C78   C79   S    
C67   C69   A    
C75   C76   S    
C11   C65   A    
C68   C70   A    
C55   C58   A    
C76   H39   S    
C14   C15   A    
C78   H45   S    
C9    C59   A    
C73   H31   S    
C73   H32   S    
C70   N2    S    
C86   H68   S    
C19   C21   A    
C69   N1    S    
