data_mof_unit_56804.cif
_audit_creation_date              2012-12-11T14:01:40-0500
_audit_creation_method            fapswitch 2.2
_symmetry_space_group_name_H-M    P1
_symmetry_Int_Tables_number       1
_space_group_crystal_system       triclinic
_cell_length_a                    19.237995
_cell_length_b                    11.127242
_cell_length_c                    18.945892
_cell_angle_alpha                 90.0
_cell_angle_beta                  89.731358
_cell_angle_gamma                 89.999823
_cell_volume                      4055.62344011

loop_
_atom_site_label
_atom_site_type_symbol
_atom_type_description
_atom_site_fract_x
_atom_site_fract_y
_atom_site_fract_z
_atom_type_partial_charge
C1    C     C_R   0.271796 0.042120 0.852598 0.568007
C2    C     C_R   0.005518 0.667570 0.963474 0.237744
C3    C     C_3   0.445451 0.320905 0.897977 -0.241597
C4    C     C_3   0.298947 0.801806 0.067022 -0.279219
C5    C     C_3   0.701067 0.801817 0.932997 -0.279466
C6    C     C_3   0.798933 0.301817 0.067003 -0.279469
C7    C     C_3   0.201053 0.301805 0.932980 -0.279220
C8    C     C_R   0.494482 0.167570 0.036526 0.237745
C9    C     C_R   0.505511 0.167565 0.963496 0.237539
C10   C     C_2   0.252009 0.594745 0.923788 0.212244
C11   C     C_2   0.747989 0.594754 0.076208 0.212550
C12   C     C_2   0.752011 0.094754 0.923791 0.212550
C13   C     C_2   0.247991 0.094745 0.076212 0.212244
C14   C     C_2   0.258684 0.598149 0.084699 0.201513
C15   C     C_2   0.741315 0.598155 0.915299 0.200992
C16   C     C_2   0.758685 0.098156 0.084701 0.200991
C17   C     C_R   0.728204 0.042122 0.147403 0.568275
C18   C     C_2   0.241316 0.098149 0.915301 0.201517
C19   C     C_2   0.297520 0.532718 0.038340 0.279154
C20   C     C_2   0.702474 0.532730 0.961656 0.278908
C21   C     C_2   0.797526 0.032730 0.038344 0.278909
C22   C     C_2   0.202480 0.032718 0.961660 0.279156
C23   C     C_2   0.306929 0.571464 0.965117 -0.081922
C24   C     C_2   0.693068 0.571472 0.034881 -0.081698
C25   C     C_2   0.806932 0.071472 0.965119 -0.081697
C26   C     C_2   0.193071 0.071463 0.034883 -0.081924
C27   C     C_2   0.496335 0.823560 0.577202 -0.073762
C28   C     C_R   0.771796 0.542122 0.852597 0.568284
C29   C     C_2   0.505063 0.823824 0.423391 -0.091795
C30   C     C_2   0.994933 0.323827 0.576608 -0.091834
C31   C     C_2   0.003661 0.323560 0.422796 -0.073770
C32   C     C_2   0.514573 0.726961 0.465514 0.322430
C33   C     C_2   0.486620 0.726986 0.534835 0.325536
C34   C     C_2   0.013388 0.226993 0.465165 0.325503
C35   C     C_2   0.985436 0.226958 0.534486 0.322460
C36   C     C_2   0.249533 0.593284 0.578738 0.182068
C37   C     C_2   0.750497 0.592837 0.420839 0.186394
C38   C     C_2   0.749498 0.092836 0.579162 0.186387
C39   C     C_R   0.228203 0.542120 0.147402 0.568013
C40   C     C_2   0.250474 0.093277 0.421260 0.181988
C41   C     C_2   0.262866 0.611962 0.407189 0.213604
C42   C     C_2   0.737164 0.609755 0.592121 0.206784
C43   C     C_2   0.762834 0.109737 0.407887 0.206811
C44   C     C_2   0.237126 0.111961 0.592819 0.213572
C45   C     C_R   0.469798 0.822216 0.854117 0.562690
C46   C     C_R   0.530192 0.822218 0.145892 0.564550
C47   C     C_R   0.969808 0.322218 0.854108 0.564552
C48   C     C_R   0.030203 0.322216 0.145883 0.562690
C49   C     C_2   0.226874 0.665164 0.459346 0.143602
C50   C     C_R   0.486678 0.058973 0.074208 0.216822
C51   C     C_2   0.772874 0.663867 0.540198 0.137234
C52   C     C_2   0.727126 0.163871 0.459802 0.137290
C53   C     C_2   0.273125 0.165140 0.540665 0.143646
C54   C     C_2   0.260780 0.675648 0.528084 0.294610
C55   C     C_2   0.740122 0.675663 0.471380 0.326820
C56   C     C_2   0.759875 0.175662 0.528622 0.326796
C57   C     C_2   0.239234 0.175643 0.471919 0.294533
C58   C     C_R   0.262291 0.641974 0.852961 0.548635
C59   C     C_R   0.737708 0.641978 0.147037 0.547112
C60   C     C_R   0.762292 0.141978 0.852962 0.547114
C61   C     C_R   0.513311 0.058964 0.925817 0.216359
C62   C     C_R   0.237709 0.141975 0.147039 0.548631
C63   C     C_R   0.270819 0.048832 0.650656 0.615711
C64   C     C_R   0.729198 0.048685 0.349370 0.600508
C65   C     C_R   0.770802 0.548687 0.650631 0.600496
C66   C     C_R   0.229176 0.548825 0.349352 0.615716
C67   C     C_R   0.467742 0.822138 0.647124 0.588335
C68   C     C_R   0.532640 0.822145 0.353087 0.581896
C69   C     C_R   0.967358 0.322145 0.646912 0.581898
C70   C     C_R   0.032256 0.322139 0.352875 0.588317
C71   C     C_R   0.259579 0.634103 0.649186 0.569588
C72   C     C_R   0.986688 0.558963 0.074183 0.216360
C73   C     C_R   0.740536 0.633729 0.350520 0.572829
C74   C     C_R   0.759463 0.133727 0.649481 0.572802
C75   C     C_R   0.240422 0.134102 0.350813 0.569671
C76   C     C_R   0.499307 0.833216 0.074410 -0.040768
C77   C     C_R   0.500661 0.833212 0.925611 -0.040333
C78   C     C_R   0.999339 0.333212 0.074388 -0.040333
C79   C     C_R   0.000693 0.333216 0.925590 -0.040769
C80   C     C_R   0.496468 0.946290 0.037945 -0.035791
C81   C     C_R   0.503506 0.946287 0.962078 -0.035718
C82   C     C_R   0.996494 0.446287 0.037922 -0.035717
C83   C     C_R   0.013321 0.558973 0.925792 0.216820
C84   C     C_R   0.003532 0.446290 0.962055 -0.035791
C85   C     C_R   0.505741 0.725944 0.964139 0.209043
C86   C     C_R   0.494216 0.725947 0.035884 0.208859
C87   C     C_R   0.005785 0.225947 0.964115 0.208859
C88   C     C_R   0.994259 0.225944 0.035861 0.209043
C89   C     C_3   0.119510 0.754031 0.509997 -0.242253
C90   C     C_3   0.897056 0.639634 0.517648 -0.233557
C91   C     C_3   0.602948 0.139826 0.482392 -0.233619
C92   C     C_3   0.380582 0.253690 0.489991 -0.242153
C93   C     C_3   0.168442 0.437761 0.617764 -0.292587
C94   C     C_R   0.994489 0.667565 0.036505 0.237538
C95   C     C_3   0.823756 0.427255 0.379764 -0.315044
C96   C     C_3   0.676169 0.927343 0.620219 -0.315059
C97   C     C_3   0.331498 0.937672 0.382194 -0.292673
C98   C     C_3   0.412307 0.994116 0.179321 -0.237513
C99   C     C_3   0.587703 0.994062 0.820735 -0.236776
C100  C     C_3   0.912296 0.494061 0.179265 -0.236775
C101  C     C_3   0.087692 0.494117 0.820679 -0.237512
C102  C     C_3   0.054549 0.820903 0.102023 -0.241599
C103  C     C_3   0.945453 0.820922 0.897969 -0.241999
C104  C     C_3   0.554548 0.320921 0.102031 -0.242003
Cl1   Cl    Cl    0.531194 0.588717 0.924451 -0.553755
Cl2   Cl    Cl    0.646936 0.581925 0.583778 -0.529087
Cl3   Cl    Cl    0.853056 0.081855 0.416249 -0.529004
Cl4   Cl    Cl    0.146109 0.091043 0.586844 -0.573651
Cl5   Cl    Cl    0.329840 0.388499 0.055889 -0.545583
Cl6   Cl    Cl    0.670145 0.388520 0.944105 -0.545859
Cl7   Cl    Cl    0.829854 0.888519 0.055894 -0.545863
Cl8   Cl    Cl    0.170161 0.888499 0.944111 -0.545579
Cl9   Cl    Cl    0.166681 0.588160 0.957048 -0.657069
Cl10  Cl    Cl    0.833317 0.588177 0.042944 -0.656964
Cl11  Cl    Cl    0.666683 0.088177 0.957056 -0.656964
Cl12  Cl    Cl    0.468767 0.588723 0.075580 -0.553440
Cl13  Cl    Cl    0.333319 0.088160 0.042951 -0.657067
Cl14  Cl    Cl    0.557119 0.588825 0.442813 -0.401777
Cl15  Cl    Cl    0.442335 0.590030 0.556622 -0.421776
Cl16  Cl    Cl    0.057692 0.090054 0.443380 -0.421912
Cl17  Cl    Cl    0.942909 0.088807 0.557189 -0.401721
Cl18  Cl    Cl    0.031234 0.088723 0.924420 -0.553436
Cl19  Cl    Cl    0.968807 0.088717 0.075549 -0.553761
Cl20  Cl    Cl    0.311972 0.804361 0.545766 -0.591184
Cl21  Cl    Cl    0.689124 0.804597 0.453734 -0.604638
Cl22  Cl    Cl    0.810892 0.304572 0.546265 -0.604777
Cl23  Cl    Cl    0.188066 0.304377 0.454236 -0.591090
Cl24  Cl    Cl    0.353882 0.591024 0.413166 -0.573550
Cr1   Cr    Cr6+3 0.230530 0.836340 0.748870 1.113452
Cr2   Cr    Cr6+3 0.614360 0.677860 0.250770 1.096779
Cr3   Cr    Cr6+3 0.885640 0.177860 0.749230 1.096790
Cr4   Cr    Cr6+3 0.114360 0.177860 0.250770 1.096770
Cr5   Cr    Cr6+3 0.769470 0.836340 0.251130 1.127108
Cr6   Cr    Cr6+3 0.730530 0.336340 0.748870 1.127092
Cr7   Cr    Cr6+3 0.269470 0.336340 0.251130 1.113457
Cr8   Cr    Cr6+3 0.387420 0.989430 0.750820 1.027333
Cr9   Cr    Cr6+3 0.612580 0.989430 0.249180 1.012306
Cr10  Cr    Cr6+3 0.887420 0.489430 0.750820 1.012294
Cr11  Cr    Cr6+3 0.112580 0.489430 0.249180 1.027303
Cr12  Cr    Cr6+3 0.385640 0.677860 0.749230 1.096775
H1    H     H_    0.359543 0.574062 0.944108 0.163054
H2    H     H_    0.065693 0.777783 0.494321 0.183122
H3    H     H_    0.146491 0.837211 0.527129 0.222218
H4    H     H_    0.116144 0.689455 0.554422 0.162964
H5    H     H_    0.852921 0.745714 0.597797 0.274836
H6    H     H_    0.896203 0.546186 0.538251 0.192124
H7    H     H_    0.947966 0.680834 0.530640 0.145073
H8    H     H_    0.891899 0.638847 0.459383 0.175492
H9    H     H_    0.647092 0.245722 0.402179 0.274848
H10   H     H_    0.603753 0.046357 0.461847 0.192035
H11   H     H_    0.552061 0.181073 0.469388 0.145093
H12   H     H_    0.640455 0.574065 0.055893 0.163054
H13   H     H_    0.608122 0.139122 0.540653 0.175501
H14   H     H_    0.353350 0.246464 0.595790 0.268318
H15   H     H_    0.434362 0.277590 0.505739 0.183037
H16   H     H_    0.353615 0.336747 0.472567 0.222243
H17   H     H_    0.384066 0.188747 0.445734 0.162759
H18   H     H_    0.255635 0.417661 0.554782 0.288234
H19   H     H_    0.143749 0.353965 0.598777 0.221361
H20   H     H_    0.126969 0.505545 0.626774 0.139325
H21   H     H_    0.195143 0.417646 0.668314 0.110988
H22   H     H_    0.740690 0.419721 0.449613 0.316384
H23   H     H_    0.859545 0.074066 0.944108 0.163052
H24   H     H_    0.848525 0.344046 0.399535 0.218333
H25   H     H_    0.865672 0.491398 0.365178 0.135661
H26   H     H_    0.792710 0.404355 0.332291 0.120890
H27   H     H_    0.759288 0.919692 0.550454 0.316327
H28   H     H_    0.651405 0.844128 0.600456 0.218331
H29   H     H_    0.634255 0.991518 0.634751 0.135682
H30   H     H_    0.707170 0.904471 0.667722 0.120864
H31   H     H_    0.244371 0.917677 0.445271 0.288209
H32   H     H_    0.356196 0.853875 0.401176 0.221373
H33   H     H_    0.372979 0.005414 0.373125 0.139226
H34   H     H_    0.140457 0.074061 0.055893 0.163056
H35   H     H_    0.304744 0.917542 0.331677 0.111063
H36   H     H_    0.483510 0.138253 0.177861 0.237193
H37   H     H_    0.432767 0.950787 0.227705 0.133298
H38   H     H_    0.394413 0.923876 0.143061 0.152710
H39   H     H_    0.367926 0.050310 0.195805 0.173493
H40   H     H_    0.516518 0.138233 0.822163 0.237969
H41   H     H_    0.567250 0.950709 0.772356 0.131745
H42   H     H_    0.605579 0.923834 0.857010 0.152301
H43   H     H_    0.632096 0.050232 0.804253 0.173686
H44   H     H_    0.983479 0.638233 0.177837 0.237970
H45   H     H_    0.479693 0.904948 0.442401 0.040146
H46   H     H_    0.932749 0.450710 0.227644 0.131738
H47   H     H_    0.894422 0.423831 0.142990 0.152297
H48   H     H_    0.867902 0.550229 0.195744 0.173686
H49   H     H_    0.016489 0.638253 0.822139 0.237194
H50   H     H_    0.067232 0.450785 0.772296 0.133309
H51   H     H_    0.105588 0.423878 0.856939 0.152712
H52   H     H_    0.132073 0.550311 0.804193 0.173491
H53   H     H_    0.948946 0.786096 0.107476 0.318625
H54   H     H_    0.046000 0.903378 0.133700 0.191053
H55   H     H_    0.091769 0.841909 0.059300 0.241614
H56   H     H_    0.522757 0.904042 0.558710 0.033444
H57   H     H_    0.077082 0.751646 0.137279 0.116098
H58   H     H_    0.051055 0.786109 0.892502 0.318494
H59   H     H_    0.953999 0.903403 0.866298 0.190798
H60   H     H_    0.908237 0.841921 0.940697 0.241744
H61   H     H_    0.922914 0.751674 0.862711 0.116225
H62   H     H_    0.448945 0.286109 0.107499 0.318492
H63   H     H_    0.546002 0.403403 0.133702 0.190799
H64   H     H_    0.591764 0.341916 0.059303 0.241744
H65   H     H_    0.577086 0.251672 0.137290 0.116224
H66   H     H_    0.551054 0.286096 0.892523 0.318626
H67   H     H_    0.977227 0.404033 0.441284 0.033471
H68   H     H_    0.454000 0.403378 0.866300 0.191051
H69   H     H_    0.408232 0.341915 0.940701 0.241615
H70   H     H_    0.422916 0.251647 0.862723 0.116099
H71   H     H_    0.198567 0.753236 0.095809 0.269716
H72   H     H_    0.290296 0.872111 0.107376 0.137107
H73   H     H_    0.302465 0.842691 0.013799 0.225518
H74   H     H_    0.349185 0.756885 0.078439 0.161261
H75   H     H_    0.801438 0.753236 0.904185 0.269753
H76   H     H_    0.697570 0.842708 0.986218 0.225648
H77   H     H_    0.650821 0.756901 0.921602 0.161052
H78   H     H_    0.020290 0.404960 0.557594 0.040127
H79   H     H_    0.709709 0.872117 0.892638 0.136847
H80   H     H_    0.698562 0.253237 0.095815 0.269750
H81   H     H_    0.790291 0.372116 0.107363 0.136844
H82   H     H_    0.802428 0.342709 0.013782 0.225649
H83   H     H_    0.849178 0.256901 0.078396 0.161052
H84   H     H_    0.301432 0.253236 0.904191 0.269717
H85   H     H_    0.197536 0.342689 0.986202 0.225517
H86   H     H_    0.150815 0.256885 0.921563 0.161263
H87   H     H_    0.209703 0.372112 0.892627 0.137111
H88   H     H_    0.146550 0.746172 0.404218 0.268446
N1    N     N_2   0.155592 0.700378 0.450593 -0.519246
N2    N     N_2   0.534310 0.068339 0.852745 -0.464882
N3    N     N_2   0.965689 0.568338 0.147255 -0.464879
N4    N     N_2   0.034300 0.568364 0.852713 -0.465001
N5    N     N_2   0.989658 0.780060 0.072191 -0.412718
N6    N     N_2   0.010346 0.780069 0.927791 -0.412705
N7    N     N_2   0.489654 0.280069 0.072209 -0.412704
N8    N     N_2   0.510342 0.280060 0.927809 -0.412716
N9    N     N_2   0.241103 0.719547 0.069239 -0.482009
N10   N     N_2   0.758904 0.719549 0.930760 -0.481995
N11   N     N_2   0.741095 0.219549 0.069240 -0.481998
N12   N     N_2   0.841678 0.709623 0.549085 -0.507435
N13   N     N_2   0.258896 0.219546 0.930761 -0.482011
N14   N     N_2   0.658337 0.209678 0.450901 -0.507527
N15   N     N_2   0.344386 0.200433 0.549466 -0.519041
N16   N     N_2   0.217792 0.480561 0.565390 -0.502867
N17   N     N_2   0.779480 0.477975 0.434356 -0.525713
N18   N     N_2   0.720498 0.977986 0.565650 -0.525657
N19   N     N_2   0.282209 0.980546 0.434605 -0.503013
N20   N     N_2   0.465699 0.068364 0.147287 -0.465000
O1    O     O_R   0.215090 0.709860 0.828130 -0.449997
O2    O     O_R   0.543740 0.718170 0.330000 -0.423888
O3    O     O_R   0.956260 0.218170 0.670000 -0.423866
O4    O     O_R   0.043740 0.218170 0.330000 -0.429331
O5    O     O_R   0.320940 0.626760 0.674370 -0.454023
O6    O     O_R   0.679060 0.626760 0.325630 -0.456667
O7    O     O_R   0.820940 0.126760 0.674370 -0.456658
O8    O     O_R   0.179060 0.126760 0.325630 -0.454015
O9    O     O_3   0.334530 0.834540 0.749640 -0.274244
O10   O     O_3   0.665470 0.834540 0.250360 -0.274429
O11   O     O_3   0.834530 0.334540 0.749640 -0.274426
O12   O     O_R   0.784910 0.709860 0.171870 -0.451264
O13   O     O_3   0.165470 0.334540 0.250360 -0.274240
O14   O     O_R   0.236990 0.958390 0.823710 -0.455829
O15   O     O_R   0.763010 0.958390 0.176290 -0.456667
O16   O     O_R   0.736990 0.458390 0.823710 -0.456660
O17   O     O_R   0.263010 0.458390 0.176290 -0.455828
O18   O     O_R   0.332380 0.074750 0.830850 -0.541986
O19   O     O_R   0.667620 0.074750 0.169150 -0.539927
O20   O     O_R   0.832380 0.574750 0.830850 -0.539921
O21   O     O_R   0.167620 0.574750 0.169150 -0.541978
O22   O     O_R   0.445800 0.917770 0.825070 -0.491490
O23   O     O_R   0.715090 0.209860 0.828130 -0.451262
O24   O     O_R   0.554200 0.917770 0.174930 -0.489320
O25   O     O_R   0.945800 0.417770 0.825070 -0.489318
O26   O     O_R   0.054200 0.417770 0.174930 -0.491486
O27   O     O_R   0.456410 0.716580 0.829970 -0.463628
O28   O     O_R   0.543590 0.716580 0.170030 -0.462726
O29   O     O_R   0.956410 0.216580 0.829970 -0.462723
O30   O     O_R   0.043590 0.216580 0.170030 -0.463631
O31   O     O_R   0.321080 0.625290 0.822650 -0.554386
O32   O     O_R   0.678920 0.625290 0.177350 -0.555145
O33   O     O_R   0.821080 0.125290 0.822650 -0.555143
O34   O     O_R   0.284910 0.209860 0.171870 -0.450002
O35   O     O_R   0.178920 0.125290 0.177350 -0.554389
O36   O     O_R   0.214930 0.711450 0.668160 -0.528670
O37   O     O_R   0.785070 0.711450 0.331840 -0.509509
O38   O     O_R   0.714930 0.211450 0.668160 -0.509548
O39   O     O_R   0.285070 0.211450 0.331840 -0.528639
O40   O     O_R   0.236850 0.959870 0.675420 -0.437422
O41   O     O_R   0.763150 0.959870 0.324580 -0.422624
O42   O     O_R   0.736850 0.459870 0.675420 -0.422629
O43   O     O_R   0.263150 0.459870 0.324580 -0.437391
O44   O     O_R   0.332230 0.076350 0.670880 -0.523979
O45   O     O_R   0.445660 0.919250 0.676780 -0.500520
O46   O     O_R   0.667770 0.076350 0.329120 -0.547188
O47   O     O_R   0.832230 0.576350 0.670880 -0.547210
O48   O     O_R   0.167770 0.576350 0.329120 -0.524147
O49   O     O_R   0.554340 0.919250 0.323220 -0.515392
O50   O     O_R   0.945660 0.419250 0.676780 -0.515423
O51   O     O_R   0.054340 0.419250 0.323220 -0.500521
O52   O     O_R   0.456260 0.718170 0.670000 -0.429326

loop_
_geom_bond_atom_site_label_1
_geom_bond_atom_site_label_2
_ccdc_geom_bond_type
C65   O42   A    
C3    H69   S    
C87   C88   A    
C16   C21   D    
C97   H35   S    
C72   N3    S    
C70   O4    A    
C67   O52   A    
Cr1   O36   S    
Cr10  O50   S    
Cr9   O49   S    
C41   Cl24  S    
C89   H4    S    
C47   C79   S    
C101  H52   S    
C102  H55   S    
C30   C69   S    
C46   C76   S    
H36   N20   S    
C5    H79   S    
Cr9   O10   S    
C27   C33   D    
Cr11  O51   S    
Cr11  O21   S    
C15   N10   S    
H40   N2    S    
C1    C18   S    
C97   H32   S    
C21   C25   S    
C30   C35   D    
C9    C61   A    
C3    H68   S    
C104  H64   S    
Cr12  O27   S    
C86   Cl12  S    
Cr9   O46   S    
C100  H48   S    
C25   H23   S    
C43   C52   D    
C91   H13   S    
C29   C32   D    
Cr1   O9    S    
C85   C86   A    
Cr11  O48   S    
C80   C81   A    
C92   N15   S    
Cr3   O7    S    
H84   N13   S    
C66   O43   A    
C83   N4    S    
C26   H34   S    
C68   O2    A    
C49   C54   S    
C38   N18   S    
H5    N12   S    
C102  H54   S    
C11   C24   D    
C37   N17   S    
Cr8   O18   S    
C34   C35   S    
C48   C78   S    
C93   H19   S    
C11   Cl10  S    
C78   C82   A    
C71   O5    A    
C99   H42   S    
C54   Cl20  S    
C40   N19   S    
C24   H12   S    
C91   H10   S    
C21   Cl7   S    
C14   C39   S    
Cr10  O11   S    
C44   C53   D    
C2    N6    S    
C31   C70   S    
C5    H77   S    
C13   C62   S    
C55   Cl21  S    
C16   N11   S    
Cr6   O16   S    
C8    C9    A    
C42   C65   S    
C90   H8    S    
C4    N9    S    
C96   H28   S    
Cr11  O26   S    
C51   N12   S    
C4    H73   S    
C66   O48   A    
C98   H38   S    
C58   O1    A    
C99   H43   S    
C74   O7    A    
C36   C71   S    
C42   C51   D    
C30   H78   S    
C12   Cl11  S    
C72   C94   A    
Cr8   O9    S    
C3    H70   S    
C44   Cl4   S    
H62   N7    S    
C77   C85   A    
C60   O23   A    
C96   H30   S    
C79   C87   A    
C9    N8    S    
C49   N1    S    
Cr12  O31   S    
C67   O45   A    
C2    C83   A    
C15   C20   D    
Cr7   O34   S    
C88   Cl19  S    
C11   C59   S    
C95   H25   S    
H53   N5    S    
H88   N1    S    
Cr2   O10   S    
Cr9   O24   S    
Cr3   O3    S    
C43   C64   S    
C104  N7    S    
C44   C63   S    
C34   Cl16  S    
C45   O22   A    
Cr1   O1    S    
C4    H74   S    
Cr12  O9    S    
C1    O18   A    
Cr10  O25   S    
C52   C56   S    
C36   N16   S    
C104  H63   S    
Cr6   O42   S    
H9    N14   S    
H49   N4    S    
C97   H33   S    
C62   O35   A    
H44   N3    S    
Cr12  O52   S    
C101  H50   S    
C5    N10   S    
C102  H57   S    
C12   C60   S    
C53   C57   S    
C19   C23   S    
C16   C17   S    
C43   Cl3   S    
C85   Cl1   S    
C51   C55   S    
Cr6   O23   S    
C45   O27   A    
C5    H76   S    
C46   O28   A    
C39   O17   A    
C73   O6    A    
C50   N20   S    
H31   N19   S    
C92   H17   S    
Cr5   O41   S    
C61   C81   A    
C17   O15   A    
C93   H20   S    
C100  H46   S    
C103  H61   S    
C98   N20   S    
C90   H7    S    
C52   N14   S    
C3    N8    S    
C87   Cl18  S    
C29   C68   S    
C2    C94   A    
C65   O47   A    
C68   O49   A    
C83   C84   A    
C96   N18   S    
C91   N14   S    
C77   C81   A    
C70   O51   A    
C7    N13   S    
H71   N9    S    
C61   N2    S    
C31   C34   D    
C38   C56   D    
H80   N11   S    
H75   N10   S    
H18   N16   S    
C104  H65   S    
C98   H37   S    
C42   Cl2   S    
C97   N19   S    
Cr6   O11   S    
C10   Cl9   S    
C63   O40   A    
Cr3   O11   S    
C100  H47   S    
Cr2   O6    S    
C18   N13   S    
Cr5   O10   S    
Cr7   O13   S    
C93   H21   S    
C75   O8    A    
C103  N6    S    
C82   C84   A    
C69   O50   A    
Cr11  O13   S    
Cr8   O44   S    
C63   O44   A    
C20   Cl6   S    
C59   O12   A    
Cr7   O39   S    
C71   O36   A    
Cr2   O2    S    
Cr2   O28   S    
C56   Cl22  S    
C92   H16   S    
C95   H26   S    
C8    C50   A    
Cr3   O33   S    
C99   N2    S    
Cr4   O30   S    
Cr4   O4    S    
C62   O34   A    
C6    H83   S    
C38   C74   S    
C89   H3    S    
C78   C88   A    
Cr5   O15   S    
C37   C73   S    
H14   N15   S    
C46   O24   A    
C40   C57   D    
C10   C58   S    
C18   C22   D    
C14   C19   D    
Cr1   O40   S    
C23   H1    S    
C53   N15   S    
H66   N8    S    
C32   Cl14  S    
Cr10  O47   S    
C101  H51   S    
C93   N16   S    
C50   C80   A    
C57   Cl23  S    
C14   N9    S    
C13   Cl13  S    
C76   C80   A    
C47   O25   A    
C94   N5    S    
C33   Cl15  S    
C41   C66   S    
C27   H56   S    
C7    H86   S    
C48   O30   A    
C10   C23   D    
C7    H87   S    
C41   C49   D    
C7    H85   S    
C6    N11   S    
Cr5   O37   S    
C28   O20   A    
C40   C75   S    
C90   N12   S    
C12   C25   D    
C96   H29   S    
C31   H67   S    
C89   N1    S    
C32   C33   S    
C6    H81   S    
C100  N3    S    
C35   Cl17  S    
Cr4   O8    S    
C17   O19   A    
C28   O16   A    
C95   H24   S    
C95   N17   S    
C91   H11   S    
Cr9   O19   S    
C15   C28   S    
C79   C84   A    
C19   Cl5   S    
Cr10  O20   S    
H22   N17   S    
C4    H72   S    
C103  H59   S    
Cr6   O38   S    
C29   H45   S    
C101  N4    S    
Cr8   O22   S    
C103  H60   S    
H27   N18   S    
Cr2   O32   S    
C13   C26   D    
Cr1   O14   S    
Cr3   O29   S    
C36   C54   D    
Cr8   O45   S    
C69   O3    A    
C1    O14   A    
C37   C55   D    
C8    N7    S    
C39   O21   A    
Cr4   O35   S    
H58   N6    S    
C58   O31   A    
C47   O29   A    
C102  N5    S    
C90   H6    S    
C92   H15   S    
C22   C26   S    
C76   C86   A    
C75   O39   A    
C27   C67   S    
Cr7   O17   S    
C73   O37   A    
C74   O38   A    
C60   O33   A    
C64   O41   A    
C99   H41   S    
C64   O46   A    
Cr12  O5    S    
Cr5   O12   S    
C45   C77   S    
C98   H39   S    
C59   O32   A    
Cr7   O43   S    
C20   C24   S    
C72   C82   A    
C89   H2    S    
C22   Cl8   S    
Cr4   O13   S    
C6    H82   S    
C48   O26   A    
