data_mof_unit_46259.cif
_audit_creation_date              2012-12-10T16:57:08-0500
_audit_creation_method            fapswitch 2.2
_symmetry_space_group_name_H-M    P1
_symmetry_Int_Tables_number       1
_space_group_crystal_system       triclinic
_cell_length_a                    7.873552
_cell_length_b                    8.569606
_cell_length_c                    16.511038
_cell_angle_alpha                 92.833276
_cell_angle_beta                  80.508396
_cell_angle_gamma                 93.1008
_cell_volume                      1096.26428421

loop_
_atom_site_label
_atom_site_type_symbol
_atom_type_description
_atom_site_fract_x
_atom_site_fract_y
_atom_site_fract_z
_atom_type_partial_charge
C1    C     C_R   0.545289 0.794191 0.498041 0.958989
C2    C     C_R   0.430400 0.665058 0.242809 -0.213641
C3    C     C_R   0.610367 0.567551 0.861248 -0.147318
C4    C     C_R   0.460258 0.733519 0.167217 -0.161312
C5    C     C_R   0.477383 0.659501 0.902272 0.204933
C6    C     C_R   0.604134 0.694057 0.109264 0.205060
C7    C     C_R   0.336253 0.686168 0.864301 -0.186312
C8    C     C_R   0.724822 0.595281 0.130101 -0.175352
C9    C     C_R   0.332005 0.628839 0.784521 -0.197829
C10   C     C_R   0.696460 0.528646 0.206565 -0.198621
C11   C     C_2   0.471489 0.709835 0.988471 -0.230408
C12   C     C_R   0.454719 0.205806 0.501884 0.964426
C13   C     C_2   0.614280 0.728785 0.022823 -0.244979
C14   C     C_3   0.034367 0.391786 0.400729 -0.501598
C15   C     C_3   0.966034 0.609246 0.598997 -0.497651
C16   C     C_2   0.569275 0.957454 0.496749 -0.383437
C17   C     C_2   0.430753 0.042503 0.502982 -0.392013
C18   C     C_R   0.477488 0.506501 0.654658 0.848507
C19   C     C_R   0.524293 0.506138 0.345791 0.841799
C20   C     C_R   0.468772 0.543151 0.742214 -0.028912
C21   C     C_R   0.546658 0.560095 0.262406 -0.025556
C22   C     C_R   0.605931 0.510006 0.781640 -0.223295
H1    H     H_    0.709891 0.440289 0.750930 0.144786
H2    H     H_    0.715784 0.536408 0.890890 0.126337
H3    H     H_    0.700632 0.007179 0.490698 0.181566
H4    H     H_    0.299400 0.992768 0.509010 0.181468
H5    H     H_    0.936781 0.317571 0.373534 0.174277
H6    H     H_    0.080026 0.486173 0.357612 0.185799
H7    H     H_    0.137105 0.313831 0.408319 0.210787
H8    H     H_    0.063452 0.684908 0.625493 0.170222
H9    H     H_    0.862165 0.685886 0.591447 0.212777
H10   H     H_    0.922526 0.515275 0.642403 0.182891
H11   H     H_    0.318137 0.697057 0.286524 0.155340
H12   H     H_    0.790262 0.451668 0.221767 0.144792
H13   H     H_    0.224500 0.656113 0.755206 0.148509
H14   H     H_    0.740561 0.731727 0.984550 0.143879
H15   H     H_    0.344734 0.706480 0.026295 0.147815
H16   H     H_    0.230133 0.752421 0.896207 0.124833
H17   H     H_    0.836297 0.563565 0.085760 0.122320
H18   H     H_    0.368063 0.813224 0.153125 0.128580
N1    N     N_2   0.953500 0.457650 0.478520 -0.001081
N2    N     N_2   0.046500 0.542350 0.521480 -0.002095
O1    O     O_R   0.388470 0.738640 0.505270 -0.609046
O2    O     O_R   0.611530 0.261360 0.494730 -0.604388
O3    O     O_R   0.679650 0.711510 0.491500 -0.631580
O4    O     O_R   0.320350 0.288490 0.508500 -0.628976
O5    O     O_R   0.337210 0.515200 0.623500 -0.618722
O6    O     O_R   0.662790 0.484800 0.376500 -0.615092
O7    O     O_R   0.628380 0.488060 0.609730 -0.630014
O8    O     O_R   0.371620 0.511940 0.390270 -0.635642
Zn1   Zn    Zn3+2 0.305580 0.518120 0.509190 0.934695
Zn2   Zn    Zn3+2 0.694420 0.481880 0.490810 0.939484

loop_
_geom_bond_atom_site_label_1
_geom_bond_atom_site_label_2
_ccdc_geom_bond_type
C12   C17   S    
C2    C4    A    
C15   H9    S    
C8    H17   S    
C14   H5    S    
C5    C7    A    
N1    N2    D    
N1    Zn2   S    
N2    Zn1   S    
O7    Zn2   S    
C1    O3    A    
C18   O5    A    
O2    Zn2   S    
C2    C21   A    
O8    Zn1   S    
C15   H10   S    
C10   H12   S    
C1    C16   S    
C6    C13   S    
C11   C13   D    
C19   O8    A    
O1    Zn1   S    
C3    H2    S    
C15   H8    S    
C14   N1    S    
C17   H4    S    
C2    H11   S    
C4    C6    A    
C19   C21   S    
C7    H16   S    
C20   C22   A    
C5    C11   S    
C18   C20   S    
C10   C21   A    
C9    H13   S    
C14   H7    S    
C7    C9    A    
O6    Zn2   S    
C18   O7    A    
C13   H14   S    
C8    C10   A    
C16   H3    S    
C11   H15   S    
C19   O6    A    
C12   O2    A    
C3    C22   A    
C6    C8    A    
C9    C20   A    
O3    Zn2   S    
C14   H6    S    
C22   H1    S    
O4    Zn1   S    
C1    O1    A    
O5    Zn1   S    
C4    H18   S    
C15   N2    S    
C16   C17   D    
C3    C5    A    
C12   O4    A    
