data_mof_unit_38007.cif
_audit_creation_date              2012-10-26T19:00:12-0400
_audit_creation_method            fapswitch 2.2
_symmetry_space_group_name_H-M    P1
_symmetry_Int_Tables_number       1
_space_group_crystal_system       triclinic
_cell_length_a                    10.887952
_cell_length_b                    10.967239
_cell_length_c                    9.494819
_cell_angle_alpha                 89.780455
_cell_angle_beta                  91.258112
_cell_angle_gamma                 90.203315
_cell_volume                      1133.49521509

loop_
_atom_site_label
_atom_site_type_symbol
_atom_type_description
_atom_site_fract_x
_atom_site_fract_y
_atom_site_fract_z
_atom_type_partial_charge
C1    C     C_R   0.498566 0.262056 0.499220 0.599125
C2    C     C_R   0.864627 0.278572 0.953839 0.248616
C3    C     C_R   0.821735 0.163099 0.908264 0.098189
C4    C     C_R   0.261816 0.499889 0.498103 0.604923
C5    C     C_R   0.805382 0.142106 0.763056 -0.144478
C6    C     C_R   0.832067 0.232802 0.664701 -0.084582
C7    C     C_R   0.879699 0.345119 0.709515 0.038924
C8    C     C_R   0.530076 0.060961 0.615431 -0.047878
C9    C     C_R   0.504426 0.128834 0.493663 0.028957
C10   C     C_R   0.497154 0.064533 0.363268 0.227118
C11   C     C_R   0.500366 0.936138 0.362401 0.062726
C12   C     C_R   0.142918 0.714006 0.992563 0.246455
C13   C     C_R   0.511082 0.870402 0.492114 -0.038225
C14   C     C_R   0.538316 0.936421 0.613805 -0.072954
C15   C     C_3   0.501284 0.923380 0.763346 -0.173901
C16   C     C_R   0.501814 0.737635 0.498685 0.561535
C17   C     C_3   0.487464 0.061698 0.764473 0.147068
C18   C     C_R   0.561554 0.588562 0.074805 0.179064
C19   C     C_R   0.427965 0.421588 0.073092 0.032784
C20   C     C_R   0.429984 0.419798 0.924072 0.017918
C21   C     C_R   0.558770 0.590849 0.927029 0.152191
C22   C     C_3   0.691619 0.622512 0.921963 -0.267046
C23   C     C_R   0.930085 0.558133 0.399220 -0.110537
C24   C     C_3   0.696003 0.614103 0.081417 -0.267476
C25   C     C_R   0.737468 0.496400 0.501735 0.543518
C26   C     C_R   0.108179 0.789143 0.103477 -0.027517
C27   C     C_R   0.090509 0.739501 0.237516 -0.109727
C28   C     C_R   0.106969 0.614002 0.261595 0.042962
C29   C     C_R   0.142199 0.539427 0.149621 -0.087513
C30   C     C_R   0.161059 0.589477 0.016186 -0.111721
C31   C     C_2   0.801130 0.060632 0.007453 0.633259
C32   C     C_2   0.486510 0.875049 0.223842 0.658385
C33   C     C_R   0.870666 0.494238 0.504827 -0.008871
C34   C     C_R   0.938717 0.427083 0.606108 -0.001011
C35   C     C_R   0.067222 0.427585 0.600243 0.220231
C36   C     C_R   0.127403 0.494948 0.494826 0.034441
C37   C     C_R   0.056988 0.556894 0.389830 -0.033225
C38   C     C_R   0.894913 0.367465 0.854291 -0.059544
Cl1   Cl    Cl    0.161840 0.775236 0.823466 -0.564162
Cl2   Cl    Cl    0.472489 0.137886 0.197495 -0.516156
Cl3   Cl    Cl    0.330527 0.103017 0.779878 -0.444435
Cl4   Cl    Cl    0.150716 0.329705 0.715541 -0.541705
Cl5   Cl    Cl    0.894922 0.312152 0.132669 -0.592350
Cu1   Cu    Cu3+1 0.499990 0.499980 0.640670 1.014176
Cu2   Cu    Cu3+1 0.500010 0.500020 0.359330 1.043435
H1    H     H_    0.774661 0.053930 0.725189 0.154422
H2    H     H_    0.706838 0.716229 0.881315 0.163667
H3    H     H_    0.750014 0.534791 0.120421 0.193910
H4    H     H_    0.718360 0.701487 0.134406 0.151143
H5    H     H_    0.058696 0.797724 0.320988 0.149764
H6    H     H_    0.149738 0.441736 0.164205 0.174240
H7    H     H_    0.186249 0.530870 0.930224 0.174927
H8    H     H_    0.876524 0.607907 0.320574 0.129836
H9    H     H_    0.936971 0.452055 0.889458 0.142400
H10   H     H_    0.806654 0.879129 0.039866 0.340890
H11   H     H_    0.379247 0.778412 0.090198 0.336923
H12   H     H_    0.823082 0.212632 0.553324 0.158113
H13   H     H_    0.414250 0.871381 0.774486 0.232294
H14   H     H_    0.578359 0.891310 0.832230 0.153028
H15   H     H_    0.551668 0.108776 0.838913 0.153625
H16   H     H_    0.369296 0.358718 0.128071 0.180237
H17   H     H_    0.093179 0.885545 0.085522 0.197755
H18   H     H_    0.375899 0.353098 0.867095 0.219391
H19   H     H_    0.746002 0.551735 0.870154 0.159015
N1    N     N_R   0.500790 0.500930 0.147930 -0.234384
N2    N     N_R   0.500790 0.500890 0.852020 -0.250413
O1    O     O_R   0.500000 0.319640 0.618810 -0.494024
O2    O     O_R   0.816130 0.940870 0.961261 -0.710867
O3    O     O_2   0.568748 0.882810 0.138733 -0.516522
O4    O     O_R   0.377605 0.814008 0.188494 -0.661607
O5    O     O_R   0.500010 0.319680 0.381230 -0.448551
O6    O     O_R   0.319640 0.499990 0.618790 -0.447355
O7    O     O_R   0.319650 0.500030 0.381210 -0.516121
O8    O     O_R   0.499990 0.680320 0.618770 -0.501521
O9    O     O_R   0.500000 0.680360 0.381190 -0.488747
O10   O     O_R   0.680350 0.499970 0.618790 -0.526226
O11   O     O_R   0.680360 0.500010 0.381210 -0.495049
O12   O     O_2   0.771993 0.079722 0.128982 -0.405180

loop_
_geom_bond_atom_site_label_1
_geom_bond_atom_site_label_2
_ccdc_geom_bond_type
C4    C36   S    
C21   N2    A    
Cu2   O5    S    
C18   C21   A    
Cu1   N2    S    
C19   C20   A    
H10   O2    S    
C18   N1    A    
C26   C27   A    
C1    O5    A    
C16   O8    A    
Cu2   O7    S    
C28   C29   A    
C5    C6    A    
C16   O9    A    
C10   Cl2   S    
C34   C35   A    
Cu1   O10   S    
C35   Cl4   S    
C35   C36   A    
C8    C9    A    
C23   C33   A    
Cu1   O6    S    
C18   C24   S    
C9    C10   A    
C27   H5    S    
C22   H2    S    
C13   C14   A    
C6    H12   S    
C23   H8    S    
C31   O2    S    
C24   H3    S    
C1    C9    S    
C32   O4    S    
C23   C37   A    
C12   Cl1   S    
C12   C26   A    
Cu1   O8    S    
C29   C30   A    
C2    C38   A    
C38   H9    S    
C2    Cl5   S    
C33   C34   A    
C3    C31   S    
C4    O7    A    
C32   O3    D    
C11   C32   S    
H11   O4    S    
Cu2   N1    S    
C15   H13   S    
C25   O11   A    
C4    O6    A    
Cu1   Cu2   S    
C31   O12   D    
C29   H6    S    
C7    C34   S    
C20   N2    A    
C24   H4    S    
C15   C17   S    
C30   H7    S    
C36   C37   A    
C8    C14   A    
C12   C30   A    
C15   H14   S    
C3    C5    A    
C6    C7    A    
C5    H1    S    
C8    C17   S    
Cu2   O9    S    
C25   O10   A    
C20   H18   S    
C2    C3    A    
C26   H17   S    
C11   C13   A    
C28   C37   S    
C19   H16   S    
C1    O1    A    
C7    C38   A    
C19   N1    A    
C22   C24   S    
C17   Cl3   S    
C10   C11   A    
C17   H15   S    
C22   H19   S    
C13   C16   S    
C27   C28   A    
C14   C15   S    
Cu1   O1    S    
Cu2   O11   S    
C21   C22   S    
C25   C33   S    
