data_mof_unit_42830.cif
_audit_creation_date              2012-12-10T16:58:23-0500
_audit_creation_method            fapswitch 2.2
_symmetry_space_group_name_H-M    P1
_symmetry_Int_Tables_number       1
_space_group_crystal_system       triclinic
_cell_length_a                    7.760929
_cell_length_b                    8.577992
_cell_length_c                    23.405105
_cell_angle_alpha                 91.043316
_cell_angle_beta                  85.754681
_cell_angle_gamma                 93.852285
_cell_volume                      1550.2292028

loop_
_atom_site_label
_atom_site_type_symbol
_atom_type_description
_atom_site_fract_x
_atom_site_fract_y
_atom_site_fract_z
_atom_type_partial_charge
C1    C     C_R   0.545954 0.794809 0.498508 0.972294
C2    C     C_R   0.646714 0.496835 0.291981 -0.210384
C3    C     C_R   0.361137 0.535867 0.766458 -0.107338
C4    C     C_R   0.641523 0.499098 0.232894 -0.114998
C5    C     C_R   0.510340 0.497145 0.791418 0.304201
C6    C     C_R   0.482777 0.506023 0.208838 0.335842
C7    C     C_2   0.570064 0.958391 0.497657 -0.374456
C8    C     C_2   0.429938 0.041609 0.502361 -0.374015
C9    C     C_R   0.502063 0.500145 0.610608 0.870599
C10   C     C_R   0.497862 0.500123 0.389379 0.872572
C11   C     C_R   0.411464 0.376812 0.121071 0.478307
C12   C     C_R   0.454047 0.205191 0.501499 0.972417
C13   C     C_R   0.604945 0.610030 0.879450 0.472562
C14   C     C_R   0.543157 0.636711 0.119322 0.498444
C15   C     C_R   0.408888 0.383633 0.881634 0.479611
C16   C     C_R   0.553291 0.636026 0.059644 -0.029575
C17   C     C_R   0.408389 0.379018 0.941064 0.004252
C18   C     C_R   0.480865 0.505596 0.030449 -0.044843
C19   C     C_R   0.489569 0.504886 0.970296 -0.028080
C20   C     C_R   0.399837 0.376279 0.061328 -0.059816
C21   C     C_R   0.579666 0.629390 0.939266 -0.060755
C22   C     C_R   0.629189 0.764971 0.029128 -0.237611
C23   C     C_R   0.658040 0.460494 0.757285 -0.115504
C24   C     C_R   0.326193 0.252760 0.971319 -0.252707
C25   C     C_R   0.640920 0.765802 0.969124 0.000244
C26   C     C_R   0.317020 0.250572 0.031041 0.001234
C27   C     C_R   0.697886 0.916872 0.940360 0.158255
C28   C     C_R   0.606084 0.972285 0.895961 -0.056783
C29   C     C_R   0.664402 0.109903 0.867663 -0.105864
C30   C     C_R   0.801760 0.203611 0.887539 -0.101648
C31   C     C_R   0.885295 0.156426 0.934336 -0.099585
C32   C     C_R   0.837892 0.011820 0.959504 -0.179100
C33   C     C_R   0.211733 0.118719 0.059181 0.174450
C34   C     C_R   0.328949 0.510715 0.243599 -0.101218
C35   C     C_R   0.065085 0.145964 0.096061 -0.110556
C36   C     C_R   0.967102 0.020610 0.122331 -0.102830
C37   C     C_R   0.012728 0.867476 0.111106 -0.104314
C38   C     C_R   0.154023 0.839230 0.072763 -0.139953
C39   C     C_R   0.252466 0.964238 0.046628 -0.134295
C40   C     C_R   0.656253 0.462291 0.698002 -0.216951
C41   C     C_R   0.333674 0.508697 0.302714 -0.213345
C42   C     C_R   0.506067 0.499893 0.672746 -0.040869
C43   C     C_R   0.492708 0.501696 0.327260 -0.037319
C44   C     C_R   0.358542 0.536775 0.707356 -0.211284
H1    H     H_    0.673132 0.868767 0.052332 0.193589
H2    H     H_    0.760351 0.494991 0.205698 0.120856
H3    H     H_    0.702273 0.009799 0.493172 0.180649
H4    H     H_    0.297729 0.990202 0.506848 0.180699
H5    H     H_    0.013838 0.382760 0.456859 0.190754
H6    H     H_    0.986165 0.617253 0.543136 0.191896
H7    H     H_    0.492293 0.906730 0.881991 0.134901
H8    H     H_    0.600874 0.145356 0.830909 0.172644
H9    H     H_    0.842365 0.313525 0.867155 0.141002
H10   H     H_    0.986916 0.232211 0.950900 0.146046
H11   H     H_    0.909673 0.974811 0.994126 0.144095
H12   H     H_    0.267311 0.154672 0.948310 0.182187
H13   H     H_    0.028115 0.264055 0.104848 0.119087
H14   H     H_    0.855763 0.042183 0.151318 0.178742
H15   H     H_    0.937933 0.770404 0.131632 0.165743
H16   H     H_    0.186785 0.720471 0.063177 0.137072
H17   H     H_    0.360001 0.941335 0.016404 0.134610
H18   H     H_    0.773578 0.430553 0.776663 0.140435
H19   H     H_    0.206269 0.516079 0.224692 0.125158
H20   H     H_    0.771403 0.433219 0.672080 0.164182
H21   H     H_    0.213183 0.512385 0.329045 0.159391
H22   H     H_    0.241459 0.566860 0.688875 0.165881
H23   H     H_    0.770874 0.491567 0.309915 0.160352
H24   H     H_    0.247231 0.564978 0.793038 0.150208
N1    N     N_R   0.477810 0.506997 0.148263 -0.356267
N2    N     N_R   0.510231 0.495516 0.852182 -0.354777
N3    N     N_2   0.950330 0.457950 0.484560 -0.176509
N4    N     N_2   0.049670 0.542050 0.515440 -0.176004
O1    O     O_R   0.389250 0.738570 0.503790 -0.611259
O2    O     O_2   0.724298 0.701805 0.848736 -0.560202
O3    O     O_2   0.598455 0.765416 0.148518 -0.576280
O4    O     O_2   0.311929 0.275607 0.853236 -0.586201
O5    O     O_R   0.610750 0.261430 0.496210 -0.611336
O6    O     O_R   0.678390 0.711620 0.493890 -0.628069
O7    O     O_R   0.321610 0.288380 0.506110 -0.627928
O8    O     O_R   0.355400 0.513520 0.588790 -0.620715
O9    O     O_R   0.644600 0.486480 0.411210 -0.621071
O10   O     O_R   0.644550 0.486570 0.578900 -0.629329
O11   O     O_R   0.355450 0.513430 0.421100 -0.629479
O12   O     O_2   0.363252 0.247867 0.151926 -0.538860
Zn1   Zn    Zn3+2 0.306930 0.518000 0.506610 0.947690
Zn2   Zn    Zn3+2 0.693070 0.482000 0.493390 0.947130

loop_
_geom_bond_atom_site_label_1
_geom_bond_atom_site_label_2
_ccdc_geom_bond_type
C6    N1    S    
C44   H22   S    
C35   C36   A    
N4    Zn1   S    
C7    C8    D    
C4    H2    S    
C9    C42   S    
C29   C30   A    
C28   C29   A    
C19   C21   A    
C37   C38   A    
C24   C26   A    
C36   H14   S    
C30   C31   A    
C28   H7    S    
C13   N2    A    
C23   C40   A    
C12   O7    A    
C10   O11   A    
C18   C19   A    
H6    N4    S    
C33   C35   A    
C23   H18   S    
C3    H24   S    
C22   C25   A    
C32   H11   S    
O9    Zn2   S    
C9    O10   A    
O6    Zn2   S    
C40   C42   A    
C15   O4    S    
C10   C43   S    
C1    O6    A    
C41   C43   A    
C34   C41   A    
C42   C44   A    
C39   H17   S    
C30   H9    S    
C3    C44   A    
C17   C24   A    
C4    C6    A    
C2    H23   S    
C41   H21   S    
O10   Zn2   S    
C11   C20   A    
C6    C34   A    
C9    O8    A    
C7    H3    S    
C2    C4    A    
C8    H4    S    
O8    Zn1   S    
N3    Zn2   S    
C26   C33   S    
C31   C32   A    
C5    C23   A    
C2    C43   A    
C8    C12   S    
C12   O5    A    
C13   C21   A    
C33   C39   A    
O1    Zn1   S    
C37   H15   S    
C38   H16   S    
O11   Zn1   S    
O5    Zn2   S    
C14   N1    A    
C14   C16   A    
C25   C27   S    
O7    Zn1   S    
C15   C17   A    
C15   N2    A    
C21   C25   A    
C36   C37   A    
C16   C22   A    
C27   C32   A    
C1    C7    S    
C3    C5    A    
C5    N2    S    
C11   N1    A    
C11   O12   S    
C24   H12   S    
C10   O9    A    
C40   H20   S    
C35   H13   S    
C1    O1    A    
C14   O3    S    
N3    N4    D    
C38   C39   A    
C20   C26   A    
C34   H19   S    
C17   C19   A    
C18   C20   A    
C31   H10   S    
C22   H1    S    
C13   O2    S    
C16   C18   A    
H5    N3    S    
C27   C28   A    
C29   H8    S    
