data_mof_unit_19049.cif
_audit_creation_date              2012-12-11T15:30:37-0500
_audit_creation_method            fapswitch 2.2
_symmetry_space_group_name_H-M    P1
_symmetry_Int_Tables_number       1
_space_group_crystal_system       triclinic
_cell_length_a                    6.964488
_cell_length_b                    20.453071
_cell_length_c                    24.413046
_cell_angle_alpha                 89.724868
_cell_angle_beta                  90.309698
_cell_angle_gamma                 89.396352
_cell_volume                      3477.23557634

loop_
_atom_site_label
_atom_site_type_symbol
_atom_type_description
_atom_site_fract_x
_atom_site_fract_y
_atom_site_fract_z
_atom_type_partial_charge
O1    O     O_R   0.507310 0.423620 0.460450 -0.538470
O2    O     O_R   0.170760 0.556060 0.437190 -0.536088
O3    O     O_R   0.004040 0.576380 0.539550 -0.536598
C1    C     C_R   0.338770 0.576050 0.421214 0.724589
O4    O     O_R   0.177350 0.422870 0.454070 -0.534614
O5    O     O_R   0.010680 0.442240 0.556560 -0.537667
C2    C     C_R   0.346519 0.398947 0.443471 0.699148
O6    O     O_R   0.500670 0.557760 0.443440 -0.537254
O7    O     O_3   0.340380 0.506510 0.533610 -0.365906
V1    V     V_3+5 0.064130 0.498790 0.493770 1.430465
O8    O     O_R   0.681170 0.443940 0.562810 -0.531332
C3    C     C_R   0.850566 0.424040 0.578737 0.718721
O9    O     O_R   0.674570 0.577130 0.545930 -0.536986
C4    C     C_R   0.842464 0.601023 0.556594 0.693556
V2    V     V_3+5 0.564560 0.501210 0.506230 1.435116
O10   O     O_3   0.838170 0.493490 0.466390 -0.368160
C5    C     C_R   0.977307 0.838051 0.911318 -0.037393
C6    C     C_R   0.846726 0.661678 0.588890 -0.043048
C7    C     C_R   0.043502 0.722043 0.905870 -0.157933
C8    C     C_R   0.033903 0.779369 0.936244 -0.172223
C9    C     C_R   0.930749 0.839150 0.855180 -0.214973
C10   C     C_R   0.942736 0.781365 0.822830 0.086004
C11   C     C_R   0.999935 0.722528 0.849653 0.135666
C12   C     C_R   0.902732 0.779898 0.764999 0.058725
C13   C     C_R   0.920819 0.719621 0.735299 0.056704
C14   C     C_R   0.977532 0.662827 0.764467 -0.179690
C15   C     C_R   0.015686 0.664435 0.820303 -0.191889
C16   C     C_R   0.845865 0.836679 0.735848 -0.188466
C17   C     C_R   0.807674 0.835094 0.680030 -0.203258
C18   C     C_R   0.823610 0.777047 0.650662 0.139744
C19   C     C_R   0.880930 0.718194 0.677453 0.086827
C20   C     C_R   0.780085 0.777618 0.594452 -0.159876
C21   C     C_R   0.789907 0.720366 0.564026 -0.163736
C22   C     C_R   0.893178 0.660466 0.645045 -0.211118
H1    H     H_    0.059369 0.619463 0.840755 0.133684
H2    H     H_    0.933543 0.613612 0.662112 0.093136
H3    H     H_    0.751834 0.721736 0.520929 0.106726
H4    H     H_    0.763856 0.880060 0.659593 0.119160
H5    H     H_    0.087859 0.677169 0.926316 0.116856
H6    H     H_    0.071941 0.778061 0.979344 0.096366
H7    H     H_    0.890543 0.885992 0.838081 0.091032
H8    H     H_    0.994573 0.615859 0.745313 0.119334
H9    H     H_    0.828675 0.883640 0.754996 0.119907
H10   H     H_    0.735587 0.822506 0.574046 0.113652
C23   C     C_3   0.714074 0.222536 0.780623 -0.397022
C24   C     C_3   0.027479 0.275202 0.807122 -0.323971
C25   C     C_3   0.027031 0.323172 0.756930 0.309244
H11   H     H_    0.642116 0.236926 0.819342 0.176695
H12   H     H_    0.178218 0.265944 0.820714 0.160719
H13   H     H_    0.951306 0.297951 0.842295 0.209039
H14   H     H_    0.177188 0.323266 0.741442 0.130958
C26   C     C_1   0.861763 0.379322 0.624944 -0.181739
C27   C     C_3   0.930035 0.209176 0.792633 0.125867
C28   C     C_3   0.688859 0.277120 0.735764 0.616650
C29   C     C_3   0.892552 0.295357 0.710579 0.097972
C30   C     C_3   0.002338 0.232222 0.691806 -0.477295
C31   C     C_3   0.023100 0.182155 0.739697 -0.361560
C32   C     C_1   0.873591 0.341741 0.663540 0.025233
C33   C     C_1   0.950409 0.161263 0.838526 -0.011120
C34   C     C_1   0.962507 0.122293 0.876147 -0.155102
H15   H     H_    0.954803 0.135299 0.727972 0.150640
H16   H     H_    0.178107 0.171508 0.747277 0.176040
H17   H     H_    0.939827 0.208918 0.655282 0.158673
H18   H     H_    0.642806 0.176458 0.768659 0.147877
H19   H     H_    0.148147 0.245632 0.677631 0.193002
C35   C     C_3   0.588133 0.699779 0.264485 -0.390726
C36   C     C_3   0.238848 0.695667 0.245008 -0.462420
C37   C     C_3   0.268473 0.744403 0.196057 0.285752
H20   H     H_    0.663735 0.728005 0.180939 0.152069
H21   H     H_    0.597295 0.650606 0.245233 0.161210
H22   H     H_    0.090100 0.700275 0.261144 0.171614
H23   H     H_    0.253542 0.644534 0.230025 0.144231
H24   H     H_    0.316204 0.714402 0.160253 0.074290
C38   C     C_1   0.475878 0.878534 0.124698 -0.199084
C39   C     C_3   0.387393 0.708111 0.291650 0.094346
C40   C     C_3   0.619521 0.752528 0.219505 -0.405856
C41   C     C_3   0.433520 0.793480 0.209350 0.088480
C42   C     C_3   0.383625 0.831064 0.263096 0.306109
C43   C     C_3   0.351112 0.780618 0.310940 0.336878
C44   C     C_1   0.460299 0.840330 0.162788 0.022322
C45   C     C_1   0.362659 0.660183 0.337457 -0.008483
C46   C     C_1   0.348129 0.621576 0.375319 -0.197409
H25   H     H_    0.193614 0.783231 0.318563 0.040968
H26   H     H_    0.707838 0.699972 0.294457 0.148222
H27   H     H_    0.739171 0.784927 0.231853 0.235029
H28   H     H_    0.244353 0.857313 0.254932 0.069305
C47   C     C_R   0.467241 0.162919 0.087227 -0.091358
C48   C     C_R   0.353476 0.338581 0.410788 -0.069956
C49   C     C_R   0.455784 0.281010 0.088666 -0.136312
C50   C     C_R   0.472162 0.222932 0.059397 0.139597
C51   C     C_R   0.447790 0.161881 0.144550 -0.226670
C52   C     C_R   0.428626 0.220775 0.175202 0.090920
C53   C     C_R   0.433458 0.280453 0.145835 0.031545
C54   C     C_R   0.401590 0.222455 0.233471 0.011425
C55   C     C_R   0.389773 0.284068 0.261858 -0.045798
C56   C     C_R   0.385556 0.342769 0.229958 0.450624
C57   C     C_R   0.408140 0.339594 0.172937 -0.255689
C58   C     C_R   0.378404 0.164245 0.263941 -0.156892
C59   C     C_R   0.344399 0.165191 0.319754 -0.204565
C60   C     C_R   0.341861 0.223719 0.348512 0.138133
C61   C     C_R   0.373556 0.283937 0.320914 0.104344
C62   C     C_R   0.308770 0.222010 0.405196 -0.166713
C63   C     C_R   0.309582 0.279204 0.435743 -0.168835
C64   C     C_R   0.391256 0.340643 0.354280 -0.170932
H29   H     H_    0.397564 0.384090 0.148841 0.135912
H30   H     H_    0.438782 0.386723 0.338398 0.156119
H31   H     H_    0.279012 0.277011 0.479184 0.106109
H32   H     H_    0.322322 0.119121 0.340867 0.114457
H33   H     H_    0.458457 0.326960 0.066392 0.142980
H34   H     H_    0.448556 0.114294 0.163618 0.097203
H35   H     H_    0.379028 0.116522 0.245598 0.116412
H36   H     H_    0.280477 0.176163 0.425944 0.110445
O11   O     O_R   0.323590 0.942280 0.056590 -0.536806
O12   O     O_R   0.647030 0.077140 0.045940 -0.531673
O13   O     O_R   0.813570 0.057750 0.943430 -0.527248
C65   C     C_R   0.477701 0.101180 0.056402 0.745964
O14   O     O_R   0.653510 0.943950 0.062820 -0.538636
O15   O     O_R   0.820100 0.923600 0.960440 -0.539941
C66   C     C_R   0.485502 0.923890 0.078729 0.706721
O16   O     O_R   0.317060 0.076430 0.039590 -0.529568
O17   O     O_3   0.483830 0.993520 0.966410 -0.366904
V3    V     V_3+5 0.760140 0.001200 0.006230 1.452483
O18   O     O_R   0.149560 0.922820 0.954030 -0.541145
C67   C     C_R   0.981670 0.898818 0.943513 0.678508
O19   O     O_R   0.143080 0.056020 0.937150 -0.533115
C68   C     C_R   0.973715 0.076291 0.921485 0.744317
V4    V     V_3+5 0.259690 0.998730 0.993720 1.451025
O20   O     O_3   0.986120 0.006480 0.033580 -0.367431
I1    I     I_    0.559472 0.360396 0.776860 -0.409866
O21   O     O_3   0.970536 0.386729 0.774246 -0.527244
C69   C     C_3   0.082463 0.436646 0.750679 -0.151715
H37   H     H_    0.994162 0.482049 0.748524 0.149133
H38   H     H_    0.131321 0.425710 0.708360 0.115747
H39   H     H_    0.207593 0.446631 0.777459 0.176630
O22   O     O_3   0.540897 0.263193 0.696871 -0.554803
C70   C     C_3   0.575326 0.210332 0.661276 -0.289145
H40   H     H_    0.654611 0.168798 0.680205 0.131008
H41   H     H_    0.646547 0.228106 0.623581 0.152134
H42   H     H_    0.434883 0.190679 0.648091 0.151690
O23   O     O_3   0.094343 0.779432 0.185918 -0.556981
C71   C     C_3   0.029885 0.770223 0.131634 -0.278647
H43   H     H_    0.993157 0.718141 0.124555 0.132656
H44   H     H_    0.898006 0.800146 0.124938 0.169246
H45   H     H_    0.138549 0.786756 0.101500 0.134833
O24   O     O_3   0.429039 0.799579 0.362598 -0.548385
C72   C     C_3   0.627242 0.787023 0.369280 -0.153740
H46   H     H_    0.713270 0.800491 0.332995 0.168571
H47   H     H_    0.652740 0.735353 0.381526 0.117764
H48   H     H_    0.680001 0.817453 0.403577 0.142251
O25   O     O_3   0.532751 0.875524 0.275707 -0.546427
C73   C     C_3   0.456832 0.934690 0.296290 -0.225412
H49   H     H_    0.577399 0.965489 0.310375 0.157747
H50   H     H_    0.361331 0.926068 0.331939 0.156284
H51   H     H_    0.378333 0.962099 0.263536 0.123053
I2    I     I_    0.501336 0.228751 0.972892 -0.414957
O26   O     O_3   0.323741 0.401338 0.252713 -0.554648
C74   C     C_3   0.455239 0.451963 0.241781 -0.303805
H52   H     H_    0.425309 0.474707 0.201209 0.150436
H53   H     H_    0.607718 0.435069 0.244613 0.141631
H54   H     H_    0.435268 0.490730 0.272948 0.159814

loop_
_geom_bond_atom_site_label_1
_geom_bond_atom_site_label_2
_ccdc_geom_bond_type
C13   C19   A    
C18   C20   A    
C29   C30   S    
C74   H52   S    
C47   C51   A    
C4    C6    S    
C62   H36   S    
C55   C56   A    
C1    O6    A    
C69   H39   S    
C64   H30   S    
C45   C46   T    
C27   C33   S    
O16   V4    S    
O22   C70   S    
C43   O24   S    
C56   O26   S    
C41   C42   S    
C38   C66   S    
C24   H12   S    
C42   O25   S    
C14   C15   A    
O13   C68   A    
C28   O22   S    
C51   H34   S    
C9    C10   A    
C16   C17   A    
O17   V4    S    
O14   C66   A    
O5    C3    A    
C18   C19   A    
C8    H6    S    
C41   C44   S    
C54   C58   A    
V2    O10   S    
C49   H33   S    
C5    C8    A    
C30   C31   S    
H20   C40   S    
C36   H23   S    
O15   V3    S    
C73   H51   S    
C52   C53   A    
C3    C26   S    
O11   C66   A    
O8    V2    S    
C7    C8    A    
C17   H4    S    
C73   H49   S    
O1    V2    S    
C11   C15   A    
O7    V1    S    
C22   H2    S    
C57   H29   S    
C42   H28   S    
C23   C27   S    
C33   C34   T    
C74   H53   S    
O13   V3    S    
C38   C44   T    
O9    C4    A    
C49   C53   A    
C62   C63   A    
C70   H42   S    
C60   C62   A    
C48   C64   A    
O24   C72   S    
C72   H47   S    
O23   C71   S    
C26   C32   T    
C19   C22   A    
C25   O21   S    
C36   C37   S    
O18   C67   A    
C40   C41   S    
C70   H41   S    
C71   H45   S    
C49   C50   A    
C51   C52   A    
O4    C2    A    
C27   C31   S    
C42   C43   S    
C39   C45   S    
C25   H14   S    
C15   H1    S    
C37   H24   S    
C21   H3    S    
C65   O16   A    
O2    C1    A    
O14   V3    S    
C17   C18   A    
C59   H32   S    
C72   H48   S    
C47   C65   S    
C5    C67   S    
O18   V4    S    
C2    C48   S    
C35   C40   S    
C56   C57   A    
C52   C54   A    
C20   H10   S    
C30   H17   S    
O15   C67   A    
C12   C13   A    
C6    C22   A    
O17   V3    S    
O3    C4    A    
C7    H5    S    
C9    H7    S    
C23   C28   S    
O6    V2    S    
O9    V2    S    
O19   C68   A    
C10   C12   A    
C37   O23   S    
C36   C39   S    
C31   H16   S    
V4    O20   S    
O2    V1    S    
C53   C57   A    
C48   C63   A    
C14   H8    S    
C25   C29   S    
C72   H46   S    
C23   H11   S    
C37   C41   S    
C28   I1    S    
C28   C29   S    
O26   C74   S    
C58   H35   S    
C23   H18   S    
O1    C2    A    
C12   C16   A    
C70   H40   S    
C69   H38   S    
O5    V1    S    
O12   C65   A    
O8    C3    A    
C31   H15   S    
O11   V4    S    
C74   H54   S    
C24   H13   S    
C16   H9    S    
O25   C73   S    
C59   C60   A    
C20   C21   A    
C71   H44   S    
O21   C69   S    
C13   C14   A    
O4    V1    S    
O3    V1    S    
V1    O10   S    
C69   H37   S    
C43   H25   S    
C35   H21   S    
C35   C39   S    
C24   C27   S    
C34   C68   S    
C60   C61   A    
C36   H22   S    
C73   H50   S    
V3    O20   S    
C54   C55   A    
C6    C21   A    
C5    C9    A    
C24   C25   S    
C35   H26   S    
O12   V3    S    
C55   C61   A    
C7    C11   A    
C1    C46   S    
C29   C32   S    
C58   C59   A    
C47   C50   A    
O19   V4    S    
C10   C11   A    
C63   H31   S    
C61   C64   A    
C50   I2    S    
C71   H43   S    
C39   C43   S    
C40   H27   S    
C30   H19   S    
O7    V2    S    
