data_mof_unit_20512.cif
_audit_creation_date              2012-10-26T20:58:20-0400
_audit_creation_method            fapswitch 2.2
_symmetry_space_group_name_H-M    P1
_symmetry_Int_Tables_number       1
_space_group_crystal_system       triclinic
_cell_length_a                    10.602536
_cell_length_b                    14.696691
_cell_length_c                    14.726266
_cell_angle_alpha                 65.291781
_cell_angle_beta                  103.289926
_cell_angle_gamma                 102.773807
_cell_volume                      2008.38636976

loop_
_atom_site_label
_atom_site_type_symbol
_atom_type_description
_atom_site_fract_x
_atom_site_fract_y
_atom_site_fract_z
_atom_type_partial_charge
C1    C     C_R   0.479893 0.119615 0.312403 0.569909
C2    C     C_R   0.494182 0.532900 0.948038 0.033978
C3    C     C_R   0.460760 0.489660 0.874443 -0.097168
C4    C     C_R   0.542577 0.510510 0.125624 -0.090570
C5    C     C_R   0.423407 0.386372 0.901211 -0.152000
C6    C     C_R   0.580172 0.613802 0.098802 -0.144417
C7    C     C_R   0.721167 0.284467 0.668470 -0.040785
C8    C     C_R   0.281108 0.716937 0.329600 -0.042495
C9    C     C_R   0.684388 0.202796 0.638194 0.043858
C10   C     C_R   0.316105 0.797580 0.361397 0.041638
C11   C     C_R   0.519407 0.285360 0.509530 0.056545
C12   C     C_R   0.520373 0.880389 0.687606 0.569912
C13   C     C_R   0.480909 0.714779 0.490039 0.054736
C14   C     C_R   0.549804 0.371252 0.535875 -0.005852
C15   C     C_R   0.449542 0.628589 0.464134 -0.007484
C16   C     C_R   0.259522 0.000484 0.500007 0.549200
C17   C     C_R   0.740477 0.999511 0.499989 0.549496
C18   C     C_R   0.651791 0.368928 0.618230 0.030404
C19   C     C_R   0.347986 0.631241 0.381440 0.030138
C20   C     C_R   0.481754 0.458064 0.484392 0.025968
C21   C     C_R   0.515832 0.540952 0.516759 0.025521
C22   C     C_R   0.613828 0.532863 0.601586 -0.147168
C23   C     C_R   0.514818 0.290641 0.178528 0.340383
C24   C     C_R   0.380161 0.464468 0.402039 -0.145807
C25   C     C_R   0.679711 0.449282 0.650737 -0.132991
C26   C     C_R   0.314224 0.548046 0.353011 -0.130637
C27   C     C_3   0.016219 0.010488 0.408106 -0.129973
C28   C     C_3   0.983774 0.989474 0.591876 -0.128437
C29   C     C_3   0.961970 0.087367 0.430071 -0.118837
C30   C     C_3   0.038022 0.912597 0.569909 -0.120886
C31   C     C_3   0.877101 0.998878 0.499762 0.045919
C32   C     C_3   0.122891 0.001092 0.500222 0.045365
C33   C     C_3   0.929002 0.921939 0.477780 -0.114602
C34   C     C_R   0.487034 0.709313 0.821655 0.337496
C35   C     C_3   0.070986 0.078025 0.522200 -0.111896
C36   C     C_R   0.466830 0.187405 0.205092 0.015563
C37   C     C_R   0.534395 0.812647 0.794928 0.016087
C38   C     C_R   0.391875 0.217306 0.028468 -0.163611
C39   C     C_R   0.610957 0.782905 0.971379 -0.165818
C40   C     C_R   0.404792 0.151063 0.129560 -0.200634
C41   C     C_R   0.597008 0.849117 0.870281 -0.200534
C42   C     C_R   0.832323 0.278853 0.751932 0.005347
C43   C     C_R   0.824832 0.201950 0.848468 -0.101752
C44   C     C_R   0.929728 0.196550 0.927177 -0.107432
C45   C     C_R   0.484549 0.360459 0.078846 0.045125
C46   C     C_R   0.042867 0.267371 0.909929 -0.102573
C47   C     C_R   0.051807 0.343221 0.813726 -0.109151
C48   C     C_R   0.947253 0.348789 0.734762 -0.099572
C49   C     C_R   0.176017 0.725883 0.241630 0.003523
C50   C     C_R   0.047881 0.731255 0.247988 -0.098125
C51   C     C_R   0.948804 0.740798 0.164723 -0.102859
C52   C     C_R   0.977139 0.745785 0.074483 -0.095558
C53   C     C_R   0.104786 0.741656 0.067236 -0.109282
C54   C     C_R   0.204182 0.732125 0.150324 -0.104830
C55   C     C_R   0.518226 0.639624 0.921242 0.043237
C56   C     C_R   0.431385 0.321484 0.002586 -0.002607
C57   C     C_R   0.571784 0.678676 0.997399 -0.003406
C58   C     C_R   0.508913 0.467202 0.052066 0.033968
Cu1   Cu    Cu3+1 0.465750 0.918270 0.475680 0.960882
Cu2   Cu    Cu3+1 0.534250 0.081730 0.524320 0.963222
F1    F     F_    0.398689 0.679830 0.752772 -0.657932
F2    F     F_    0.602836 0.319820 0.247747 -0.652803
H1    H     H_    0.927438 0.158701 0.372842 0.137026
H2    H     H_    0.967057 0.980746 0.666988 0.107971
H3    H     H_    0.868159 0.858011 0.459642 0.120392
H4    H     H_    0.131846 0.141956 0.540325 0.124721
H5    H     H_    0.391942 0.356808 0.842119 0.115863
H6    H     H_    0.611646 0.643389 0.157867 0.110441
H7    H     H_    0.632636 0.928862 0.851327 0.130572
H8    H     H_    0.368757 0.071394 0.148395 0.135433
H9    H     H_    0.348853 0.187390 0.970544 0.124252
H10   H     H_    0.654048 0.812978 0.029159 0.113986
H11   H     H_    0.465128 0.533514 0.795282 0.193226
H12   H     H_    0.072554 0.841262 0.627138 0.133499
H13   H     H_    0.538218 0.466758 0.204792 0.193788
H14   H     H_    0.752376 0.448015 0.716073 0.131546
H15   H     H_    0.235545 0.546356 0.291934 0.133397
H16   H     H_    0.737487 0.146844 0.862863 0.098868
H17   H     H_    0.923178 0.137605 0.001623 0.106386
H18   H     H_    0.123489 0.263461 0.971113 0.121572
H19   H     H_    0.139618 0.397808 0.800337 0.131308
H20   H     H_    0.955455 0.407697 0.660438 0.120020
H21   H     H_    0.024754 0.727504 0.317505 0.107665
H22   H     H_    0.850133 0.744396 0.170197 0.099964
H23   H     H_    0.559095 0.720834 0.549233 0.129785
H24   H     H_    0.900326 0.753107 0.010129 0.118942
H25   H     H_    0.126768 0.745983 0.997188 0.116052
H26   H     H_    0.302857 0.729460 0.143705 0.111515
H27   H     H_    0.442194 0.279573 0.449679 0.130377
H28   H     H_    0.266623 0.863822 0.322418 0.123955
H29   H     H_    0.735155 0.137186 0.676296 0.124455
H30   H     H_    0.641761 0.589751 0.633303 0.098430
H31   H     H_    0.347930 0.405579 0.373117 0.097558
H32   H     H_    0.032930 0.019191 0.333000 0.105450
N1    N     N_R   0.585750 0.204560 0.560800 -0.239595
N2    N     N_R   0.414250 0.795440 0.439200 -0.239385
O1    O     O_R   0.454850 0.022100 0.338110 -0.531080
O2    O     O_R   0.545150 0.977900 0.661890 -0.531910
O3    O     O_R   0.512700 0.160150 0.379180 -0.433915
O4    O     O_R   0.487300 0.839850 0.620820 -0.433511
O5    O     O_R   0.287930 0.931000 0.479440 -0.498572
O6    O     O_R   0.712070 0.069000 0.520560 -0.496541
O7    O     O_R   0.345780 0.069050 0.520520 -0.520197
O8    O     O_R   0.654220 0.930950 0.479480 -0.520647

loop_
_geom_bond_atom_site_label_1
_geom_bond_atom_site_label_2
_ccdc_geom_bond_type
C30   C32   S    
C29   H1    S    
C23   C45   A    
C27   C29   S    
C34   C37   A    
C14   C18   A    
C5    C56   A    
C5    H5    S    
Cu2   O3    S    
C9    H29   S    
C33   H3    S    
C39   C41   A    
C53   C54   A    
C27   C33   S    
C43   H16   S    
C15   C19   A    
C40   H8    S    
Cu1   O8    S    
C17   O8    A    
C24   C26   A    
Cu2   O2    S    
C2    C55   A    
C30   H12   S    
C11   C14   A    
C49   C54   A    
C39   C57   A    
C7    C42   S    
C12   C37   S    
C19   C26   A    
C4    H13   S    
C46   C47   A    
C23   F2    S    
C20   C24   A    
C28   C35   S    
C22   C25   A    
C39   H10   S    
C31   C33   S    
Cu2   O7    S    
C9    N1    A    
C12   O2    A    
C6    H6    S    
C34   C55   A    
C21   C22   A    
Cu1   O4    S    
C6    C57   A    
C1    O3    A    
C18   C25   A    
Cu2   O6    S    
C44   C46   A    
C50   H21   S    
C28   C31   S    
C45   C58   A    
C26   H15   S    
C13   N2    A    
C51   C52   A    
C8    C19   A    
C32   C35   S    
C14   C20   A    
C36   C40   A    
C45   C56   A    
C4    C6    A    
C1    O1    A    
C35   H4    S    
C34   F1    S    
Cu1   O5    S    
C17   O6    A    
Cu1   Cu2   S    
C11   H27   S    
C16   O7    A    
C47   C48   A    
C10   N2    A    
C7    C18   A    
C50   C51   A    
C53   H25   S    
C42   C48   A    
C28   H2    S    
C23   C36   A    
C13   C15   A    
C43   C44   A    
Cu1   O1    S    
C42   C43   A    
C13   H23   S    
C52   C53   A    
C41   H7    S    
C11   N1    A    
C7    C9    A    
C38   H9    S    
C30   C33   S    
C27   C32   S    
C44   H17   S    
C3    C5    A    
C2    C58   A    
C16   C32   S    
C29   C35   S    
C25   H14   S    
C54   H26   S    
C55   C57   A    
C2    C3    A    
C28   C30   S    
C29   C31   S    
C24   H31   S    
C38   C40   A    
C17   C31   S    
C8    C49   S    
C52   H24   S    
C48   H20   S    
C47   H19   S    
C37   C41   A    
C3    H11   S    
C12   O4    A    
Cu2   N1    S    
C16   O5    A    
C15   C21   A    
C38   C56   A    
C20   C21   A    
C10   H28   S    
C8    C10   A    
C49   C50   A    
Cu1   N2    S    
C4    C58   A    
C22   H30   S    
C27   H32   S    
C46   H18   S    
C51   H22   S    
C1    C36   S    
