data_mof_unit_17345.cif
_audit_creation_date              2012-12-10T17:25:29-0500
_audit_creation_method            fapswitch 2.2
_symmetry_space_group_name_H-M    P1
_symmetry_Int_Tables_number       1
_space_group_crystal_system       triclinic
_cell_length_a                    10.239649
_cell_length_b                    10.616688
_cell_length_c                    23.146322
_cell_angle_alpha                 91.524331
_cell_angle_beta                  81.467585
_cell_angle_gamma                 94.862596
_cell_volume                      2479.20634921

loop_
_atom_site_label
_atom_site_type_symbol
_atom_type_description
_atom_site_fract_x
_atom_site_fract_y
_atom_site_fract_z
_atom_type_partial_charge
C1    C     C_R   0.554499 0.733731 0.497690 0.924204
C2    C     C_R   0.460001 0.353130 0.308059 -0.072755
C3    C     C_R   0.567839 0.514591 0.767933 -0.002700
C4    C     C_R   0.457889 0.329850 0.248071 -0.015770
C5    C     C_R   0.477356 0.414779 0.792154 0.186742
C6    C     C_R   0.483054 0.431769 0.209194 0.159236
C7    C     C_2   0.579874 0.870202 0.501445 -0.200995
C8    C     C_2   0.418840 0.130011 0.517536 -0.235943
C9    C     C_2   0.505040 0.933057 0.544890 -0.194895
C10   C     C_2   0.506424 0.070188 0.544688 -0.139271
C11   C     C_2   0.935576 0.530981 0.491480 -0.055496
C12   C     C_R   0.445490 0.266194 0.507114 0.874705
C13   C     C_2   0.079102 0.505039 0.486522 -0.203273
C14   C     C_R   0.498781 0.496791 0.610935 0.921614
C15   C     C_R   0.499649 0.498802 0.389524 0.846532
C16   C     C_R   0.569196 0.355965 0.113431 0.578087
C17   C     C_R   0.355823 0.432229 0.888799 0.549539
C18   C     C_R   0.354993 0.434457 0.130332 0.509994
C19   C     C_R   0.552252 0.322315 0.874126 0.690225
C20   C     C_R   0.340570 0.418365 0.070799 -0.061058
C21   C     C_R   0.544222 0.303808 0.934677 -0.025910
C22   C     C_R   0.444497 0.365060 0.032946 0.009118
C23   C     C_R   0.391943 0.346282 0.758176 -0.079993
C24   C     C_R   0.441189 0.358028 0.972394 -0.006534
C25   C     C_R   0.554811 0.323479 0.055276 -0.071332
C26   C     C_R   0.337795 0.410122 0.949228 -0.081936
C27   C     C_R   0.226099 0.450636 0.048046 -0.120742
C28   C     C_R   0.638545 0.238676 0.958752 -0.123316
C29   C     C_R   0.224116 0.444535 0.987146 -0.078197
C30   C     C_R   0.646988 0.252423 0.018939 -0.099391
C31   C     C_2   0.107684 0.491216 0.086795 0.593685
C32   C     C_2   0.721515 0.148269 0.923002 0.539411
C33   C     C_2   0.103554 0.586315 0.581587 1.107466
C34   C     C_R   0.516218 0.556095 0.228707 -0.036217
C35   C     C_2   0.867172 0.318862 0.468614 1.094572
C36   C     C_2   0.100790 0.468705 0.963731 1.092543
C37   C     C_2   0.742779 0.180883 0.044485 1.007066
C38   C     C_2   0.296476 0.243035 0.785299 0.990242
C39   C     C_2   0.538621 0.662316 0.186629 0.926174
C40   C     C_2   0.299807 0.308649 0.665272 0.986232
C41   C     C_2   0.565461 0.706995 0.310221 1.028944
C42   C     C_2   0.688514 0.627660 0.678679 0.509532
C43   C     C_2   0.423231 0.249998 0.351194 0.523088
C44   C     C_2   0.639260 0.603830 0.806019 0.558133
C45   C     C_R   0.393470 0.379682 0.699833 -0.075006
C46   C     C_2   0.431985 0.199833 0.224211 0.583058
C47   C     C_2   0.607676 0.134592 0.578119 1.010065
C48   C     C_2   0.433650 0.870686 0.599304 1.081257
C49   C     C_2   0.304269 0.062072 0.492792 0.961008
C50   C     C_2   0.665788 0.932787 0.450945 1.037110
C51   C     C_2   0.134148 0.434787 0.433830 0.576187
C52   C     C_2   0.908081 0.662965 0.505581 0.557321
C53   C     C_R   0.523844 0.578481 0.288450 -0.229618
C54   C     C_R   0.490076 0.473198 0.673869 -0.125274
C55   C     C_R   0.494254 0.477081 0.327585 -0.143611
C56   C     C_R   0.580836 0.537196 0.707338 -0.150618
H1    H     H_    0.114261 0.578434 0.112093 0.117081
H2    H     H_    0.740016 0.719315 0.256203 0.318784
H3    H     H_    0.673219 0.681691 0.641782 0.159068
H4    H     H_    0.477977 0.244260 0.387472 0.055351
H5    H     H_    0.672645 0.698895 0.791352 0.113308
H6    H     H_    0.379115 0.185123 0.186972 0.048601
H7    H     H_    0.781737 0.125482 0.608336 0.372708
H8    H     H_    0.277648 0.978607 0.607345 0.345890
H9    H     H_    0.204581 0.897351 0.473631 0.367805
H10   H     H_    0.691917 0.070078 0.390807 0.394853
H11   H     H_    0.201384 0.362993 0.436910 0.139679
H12   H     H_    0.826671 0.149625 0.925090 0.110863
H13   H     H_    0.952984 0.737391 0.476055 0.089855
H14   H     H_    0.128599 0.693090 0.652943 0.387606
H15   H     H_    0.931036 0.306362 0.546613 0.315659
H16   H     H_    0.961245 0.404172 0.914711 0.366226
H17   H     H_    0.770053 0.049665 0.102041 0.377024
H18   H     H_    0.108110 0.164774 0.798968 0.374313
H19   H     H_    0.508827 0.842699 0.170328 0.381880
H20   H     H_    0.135210 0.307887 0.627142 0.354069
N1    N     N_R   0.469681 0.408528 0.149058 -0.358210
N2    N     N_R   0.461937 0.389551 0.853391 -0.342714
N3    N     N_2   0.842710 0.448880 0.476480 -0.212953
N4    N     N_2   0.157290 0.551120 0.523520 -0.220648
O1    O     O_R   0.431060 0.692470 0.504730 -0.559218
O2    O     O_2   0.272384 0.501060 0.865403 -0.510069
O3    O     O_2   0.257429 0.477147 0.169681 -0.539033
O4    O     O_2   0.653696 0.281839 0.836184 -0.478435
O5    O     O_2   0.001942 0.427424 0.090227 -0.470536
O6    O     O_2   0.671182 0.068103 0.892459 -0.477595
O7    O     O_2   0.001237 0.531756 0.606388 -0.579036
O8    O     O_R   0.173845 0.678027 0.611620 -0.717404
O9    O     O_2   0.837189 0.261995 0.425443 -0.533449
O10   O     O_R   0.921141 0.254053 0.510068 -0.759019
O11   O     O_2   0.048500 0.567300 0.975866 -0.576307
O12   O     O_R   0.568940 0.307530 0.495270 -0.597813
O13   O     O_R   0.045146 0.377848 0.927687 -0.738014
O14   O     O_2   0.861771 0.200818 0.028282 -0.569755
O15   O     O_R   0.695890 0.091754 0.087653 -0.754806
O16   O     O_2   0.334635 0.162775 0.814344 -0.572862
O17   O     O_R   0.162917 0.238669 0.778149 -0.726785
O18   O     O_2   0.601992 0.648599 0.138088 -0.581248
O19   O     O_R   0.486671 0.778037 0.202506 -0.720203
O20   O     O_2   0.312522 0.197356 0.653142 -0.632372
O21   O     O_R   0.192652 0.366654 0.650020 -0.726011
O22   O     O_2   0.494464 0.757143 0.349736 -0.530932
O23   O     O_R   0.651120 0.659650 0.489640 -0.583460
O24   O     O_R   0.685122 0.771625 0.286326 -0.700862
O25   O     O_2   0.797286 0.639244 0.694735 -0.503198
O26   O     O_2   0.328764 0.173418 0.347585 -0.468365
O27   O     O_2   0.661229 0.574256 0.854003 -0.546881
O28   O     O_2   0.474921 0.108825 0.243964 -0.470327
O29   O     O_2   0.587304 0.233366 0.604652 -0.630687
O30   O     O_R   0.723111 0.076057 0.582559 -0.750192
O31   O     O_2   0.479941 0.782791 0.619672 -0.634406
O32   O     O_R   0.317137 0.914280 0.629495 -0.684542
O33   O     O_2   0.224559 0.122950 0.473537 -0.563998
O34   O     O_R   0.348880 0.340350 0.510360 -0.635116
O35   O     O_R   0.286074 0.930030 0.491282 -0.773430
O36   O     O_2   0.763813 0.882997 0.427443 -0.572077
O37   O     O_R   0.631266 0.043517 0.427891 -0.767713
O38   O     O_2   0.101218 0.454126 0.386462 -0.526858
O39   O     O_2   0.843513 0.690603 0.552034 -0.541913
O40   O     O_R   0.389950 0.516450 0.591390 -0.566200
O41   O     O_R   0.610050 0.483550 0.408610 -0.597993
O42   O     O_R   0.610020 0.483630 0.576300 -0.574165
O43   O     O_R   0.389980 0.516370 0.423700 -0.617724
O44   O     O_2   0.682372 0.338672 0.134427 -0.467964
Zn1   Zn    Zn3+2 0.353060 0.521920 0.510080 1.032665
Zn2   Zn    Zn3+2 0.646940 0.478080 0.489920 1.056968

loop_
_geom_bond_atom_site_label_1
_geom_bond_atom_site_label_2
_ccdc_geom_bond_type
C49   O33   D    
C23   C45   A    
C27   C29   A    
C50   O37   S    
H14   O8    S    
C4    C46   S    
C29   C36   S    
C49   O35   S    
C15   O43   A    
C46   H6    S    
C31   O5    D    
C17   C26   A    
C19   C21   A    
C33   O8    S    
C24   C26   A    
C17   O2    S    
C2    C55   A    
H8    O32   S    
N4    Zn1   S    
C1    O1    A    
C16   C25   A    
C51   O38   D    
C41   O22   D    
C37   O15   S    
C16   N1    A    
O23   Zn2   S    
C11   C52   S    
C42   C56   S    
C40   O21   S    
C13   C51   S    
C36   O13   S    
C22   C25   A    
C46   O28   D    
C26   C29   A    
C52   H13   S    
C9    C10   S    
C1    O23   A    
C50   O36   D    
C32   H12   S    
O1    Zn1   S    
C13   N4    D    
H9    O35   S    
C38   O17   S    
C12   O12   A    
H18   O17   S    
C12   O34   A    
C53   C55   A    
C40   C45   S    
C54   C56   A    
C3    C44   S    
C27   C31   S    
C34   C39   S    
C28   C32   S    
C4    C6    A    
O34   Zn1   S    
O40   Zn1   S    
C25   C30   A    
C6    N1    S    
C3    C5    A    
C47   O29   D    
H10   O37   S    
C6    C34   A    
C30   C37   S    
C43   O26   D    
C15   C55   S    
O42   Zn2   S    
C19   N2    A    
C2    C4    A    
C35   O10   S    
C3    C56   A    
C39   O19   S    
C5    C23   A    
C2    C43   S    
C8    C12   S    
C32   O6    D    
H19   O19   S    
C18   O3    S    
C51   H11   S    
C41   C53   S    
C11   N3    D    
C43   H4    S    
C9    C48   S    
H16   O13   S    
C35   O9    D    
C36   O11   D    
C14   C54   S    
N3    Zn2   S    
C20   C22   A    
C45   C54   A    
C14   O40   A    
C22   C24   A    
H2    O24   S    
H17   O15   S    
C19   O4    S    
C23   C38   S    
C44   O27   D    
H20   O21   S    
C7    C9    D    
C15   O41   A    
C48   O32   S    
C1    C7    S    
C21   C28   A    
C7    C50   S    
C39   O18   D    
O12   Zn2   S    
C42   H3    S    
C40   O20   D    
C33   N4    S    
C20   C27   A    
C44   H5    S    
C47   O30   S    
C41   O24   S    
C31   H1    S    
H7    O30   S    
C28   C30   A    
C16   O44   S    
O41   Zn2   S    
C11   C13   S    
H15   O10   S    
C18   N1    A    
C35   N3    S    
C17   N2    A    
C37   O14   D    
C18   C20   A    
C33   O7    D    
C42   O25   D    
O43   Zn1   S    
C52   O39   D    
C48   O31   D    
C34   C53   A    
C8    C10   D    
C21   C24   A    
C38   O16   D    
C10   C47   S    
C14   O42   A    
C5    N2    S    
C8    C49   S    
