data_mof_unit_30434.cif
_audit_creation_date              2012-12-10T16:55:43-0500
_audit_creation_method            fapswitch 2.2
_symmetry_space_group_name_H-M    P1
_symmetry_Int_Tables_number       1
_space_group_crystal_system       triclinic
_cell_length_a                    7.935668
_cell_length_b                    8.559344
_cell_length_c                    10.475704
_cell_angle_alpha                 93.673343
_cell_angle_beta                  83.77792
_cell_angle_gamma                 93.70722
_cell_volume                      704.712524191

loop_
_atom_site_label
_atom_site_type_symbol
_atom_type_description
_atom_site_fract_x
_atom_site_fract_y
_atom_site_fract_z
_atom_type_partial_charge
C1    C     C_R   0.545126 0.794067 0.497030 0.947157
C2    C     C_3   0.496848 0.500337 0.877705 0.041879
C3    C     C_3   0.402195 0.377033 0.044512 -0.193811
C4    C     C_3   0.597804 0.622965 0.955487 -0.193789
C5    C     C_2   0.568573 0.957865 0.495093 -0.390647
C6    C     C_2   0.431428 0.042135 0.504898 -0.390654
C7    C     C_3   0.012184 0.315423 0.399292 -0.133003
C8    C     C_3   0.931334 0.276553 0.274755 -0.890874
C9    C     C_3   0.987818 0.684590 0.600688 -0.132956
C10   C     C_3   0.068662 0.723461 0.725227 -0.890929
C11   C     C_R   0.454874 0.205933 0.502967 0.947153
C12   C     C_R   0.498929 0.500536 0.742191 0.846420
C13   C     C_R   0.501070 0.499463 0.257809 0.846405
C14   C     C_3   0.338870 0.511654 0.974544 -0.135357
C15   C     C_3   0.661129 0.488344 0.025455 -0.135370
C16   C     C_3   0.440007 0.634309 0.054993 -0.170606
C17   C     C_3   0.559990 0.365690 0.945006 -0.170618
C18   C     C_3   0.503150 0.499661 0.122294 0.041879
H1    H     H_    0.391599 0.743615 0.104531 0.132751
H2    H     H_    0.944665 0.380184 0.215158 0.257610
H3    H     H_    0.997692 0.179627 0.218978 0.207395
H4    H     H_    0.146622 0.328206 0.367222 0.230924
H5    H     H_    0.986774 0.216174 0.463351 0.158616
H6    H     H_    0.055437 0.619816 0.784785 0.257676
H7    H     H_    0.203620 0.763866 0.706771 0.289358
H8    H     H_    0.002247 0.820317 0.781053 0.207388
H9    H     H_    0.013251 0.783831 0.536618 0.158602
H10   H     H_    0.853352 0.671830 0.632739 0.230926
H11   H     H_    0.608398 0.256384 0.895468 0.132754
H12   H     H_    0.207063 0.520523 0.950839 0.135115
H13   H     H_    0.792926 0.479454 0.049153 0.135133
H14   H     H_    0.322872 0.277055 0.085651 0.128315
H15   H     H_    0.677126 0.722943 0.914346 0.128312
H16   H     H_    0.698318 0.008513 0.485525 0.176586
H17   H     H_    0.301685 0.991487 0.514462 0.176576
H18   H     H_    0.796328 0.236238 0.293200 0.289394
N1    N     N_2   0.950320 0.457950 0.465730 -0.029176
N2    N     N_2   0.049680 0.542050 0.534270 -0.029176
O1    O     O_R   0.389250 0.738570 0.508410 -0.611313
O2    O     O_R   0.610750 0.261430 0.491590 -0.611322
O3    O     O_R   0.678390 0.711620 0.486450 -0.658337
O4    O     O_R   0.321610 0.288380 0.513550 -0.658313
O5    O     O_R   0.355460 0.513510 0.697030 -0.619595
O6    O     O_R   0.644540 0.486490 0.302970 -0.619601
O7    O     O_R   0.644600 0.486560 0.675070 -0.641489
O8    O     O_R   0.355400 0.513440 0.324930 -0.641500
Zn1   Zn    Zn3+2 0.306940 0.517990 0.514670 0.922054
Zn2   Zn    Zn3+2 0.693060 0.482010 0.485330 0.922057

loop_
_geom_bond_atom_site_label_1
_geom_bond_atom_site_label_2
_ccdc_geom_bond_type
C4    C16   S    
C15   C18   S    
C2    C4    S    
C15   H13   S    
N1    N2    D    
C7    H4    S    
C17   H11   S    
C9    C10   S    
C3    H14   S    
C2    C12   S    
C5    H16   S    
C10   H8    S    
C4    C15   S    
C8    H3    S    
C7    N1    S    
C7    C8    S    
O8    Zn1   S    
C2    C17   S    
N2    Zn1   S    
C8    H2    S    
C3    C14   S    
C13   C18   S    
C14   H12   S    
C16   H1    S    
C7    H5    S    
C10   H7    S    
C1    O3    A    
C9    N2    S    
O3    Zn2   S    
C3    C17   S    
C12   O5    A    
O4    Zn1   S    
C5    C6    D    
C2    C14   S    
C14   C16   S    
C1    O1    A    
C11   O2    A    
C1    C5    S    
C6    H17   S    
C9    H9    S    
C3    C18   S    
C16   C18   S    
C8    H18   S    
O7    Zn2   S    
C6    C11   S    
C15   C17   S    
O2    Zn2   S    
C13   O8    A    
C11   O4    A    
C10   H6    S    
C4    H15   S    
O1    Zn1   S    
O5    Zn1   S    
C13   O6    A    
O6    Zn2   S    
C9    H10   S    
C12   O7    A    
N1    Zn2   S    
