data_mof_unit_62147.cif
_audit_creation_date              2012-12-10T20:20:46-0500
_audit_creation_method            fapswitch 2.2
_symmetry_space_group_name_H-M    P1
_symmetry_Int_Tables_number       1
_space_group_crystal_system       triclinic
_cell_length_a                    41.376609
_cell_length_b                    35.51258
_cell_length_c                    21.294912
_cell_angle_alpha                 90.003136
_cell_angle_beta                  59.155776
_cell_angle_gamma                 90.020585
_cell_volume                      26864.9368043

loop_
_atom_site_label
_atom_site_type_symbol
_atom_type_description
_atom_site_fract_x
_atom_site_fract_y
_atom_site_fract_z
_atom_type_partial_charge
C1    C     C_R   0.926621 0.499974 0.074302 0.862422
C2    C     C_R   0.073378 0.499987 0.925695 0.862401
C3    C     C_R   0.426621 0.999974 0.074301 0.862423
C4    C     C_R   0.573378 0.999987 0.925695 0.862394
C5    C     C_3   0.999909 0.500082 0.189287 0.004841
C6    C     C_3   0.000058 0.500075 0.810746 0.004958
C7    C     C_3   0.499905 0.000082 0.189291 0.004816
C8    C     C_3   0.500056 0.000074 0.810748 0.004941
C9    C     C_R   0.673620 0.502335 0.270137 -0.180850
C10   C     C_R   0.326380 0.502388 0.729858 -0.180814
C11   C     C_R   0.173620 0.002333 0.270136 -0.180858
C12   C     C_R   0.826381 0.002400 0.729859 -0.180809
C13   C     C_R   0.634500 0.501418 0.308973 -0.195493
C14   C     C_R   0.365499 0.501448 0.691026 -0.195489
C15   C     C_R   0.134500 0.001415 0.308972 -0.195497
C16   C     C_R   0.865500 0.001455 0.691026 -0.195492
C17   C     C_R   0.614609 0.500673 0.385718 -0.057479
C18   C     C_R   0.385390 0.500690 0.614281 -0.057492
C19   C     C_R   0.114609 0.000674 0.385718 -0.057478
C20   C     C_R   0.885391 0.000695 0.614281 -0.057489
C21   C     C_R   0.634386 0.500888 0.423129 -0.237813
C22   C     C_R   0.365614 0.500913 0.576868 -0.237796
C23   C     C_R   0.134386 0.000892 0.423129 -0.237816
C24   C     C_R   0.865615 0.000920 0.576868 -0.237795
C25   C     C_R   0.673630 0.501793 0.384375 0.033717
C26   C     C_R   0.326371 0.501840 0.615618 0.033700
C27   C     C_R   0.173630 0.001798 0.384374 0.033719
C28   C     C_R   0.826372 0.001852 0.615620 0.033693
C29   C     C_R   0.693186 0.502522 0.307525 0.105004
C30   C     C_R   0.306815 0.502584 0.692469 0.104988
C31   C     C_R   0.193186 0.002524 0.307523 0.105005
C32   C     C_R   0.806816 0.002598 0.692469 0.104988
C33   C     C_1   0.733302 0.502849 0.266153 -0.052290
C34   C     C_1   0.266698 0.502925 0.733837 -0.052252
C35   C     C_1   0.233302 0.002851 0.266150 -0.052296
C36   C     C_1   0.766700 0.002941 0.733839 -0.052250
C37   C     C_1   0.766926 0.502668 0.232281 -0.047777
C38   C     C_1   0.233073 0.502749 0.767702 -0.047739
C39   C     C_1   0.266926 0.002670 0.232278 -0.047782
C40   C     C_1   0.733075 0.002763 0.767704 -0.047736
C41   C     C_R   0.827209 0.530474 0.143451 -0.163031
C42   C     C_R   0.172800 0.530505 0.856614 -0.162956
C43   C     C_R   0.327209 0.030478 0.143457 -0.163039
C44   C     C_R   0.672800 0.030546 0.856527 -0.162968
C45   C     C_R   0.999972 0.500020 0.121799 0.877047
C46   C     C_R   0.000009 0.500018 0.878220 0.876997
C47   C     C_R   0.499970 0.000020 0.121802 0.877065
C48   C     C_R   0.500008 0.000018 0.878221 0.876988
C49   C     C_R   0.866325 0.529638 0.105380 -0.213843
C50   C     C_R   0.133683 0.529653 0.894689 -0.213831
C51   C     C_R   0.366326 0.029642 0.105387 -0.213851
C52   C     C_R   0.633682 0.029689 0.894602 -0.213810
C53   C     C_R   0.885398 0.500024 0.116335 -0.082960
C54   C     C_R   0.114599 0.500066 0.883644 -0.082981
C55   C     C_R   0.385398 0.000024 0.116334 -0.082960
C56   C     C_R   0.614602 0.000067 0.883646 -0.083057
C57   C     C_R   0.864615 0.471271 0.167307 -0.012689
C58   C     C_R   0.135370 0.471363 0.832570 -0.012871
C59   C     C_R   0.364614 0.971268 0.167297 -0.012666
C60   C     C_R   0.635377 0.971331 0.832660 -0.012898
C61   C     C_R   0.825379 0.472426 0.205202 -0.192828
C62   C     C_R   0.174606 0.472533 0.794672 -0.192634
C63   C     C_R   0.325379 0.972424 0.205192 -0.192845
C64   C     C_R   0.674612 0.972507 0.794763 -0.192649
C65   C     C_R   0.806910 0.501837 0.192990 0.138471
C66   C     C_R   0.193088 0.501911 0.806979 0.138445
C67   C     C_R   0.306909 0.001838 0.192988 0.138475
C68   C     C_R   0.693091 0.001921 0.806983 0.138463
C69   C     C_R   0.000007 0.573404 0.499993 0.862626
C70   C     C_R   0.500007 0.073403 0.499993 0.862626
C71   C     C_R   0.999956 0.500251 0.378318 0.881506
C72   C     C_R   0.000039 0.500240 0.621687 0.881429
C73   C     C_R   0.499955 0.000251 0.378319 0.881513
C74   C     C_R   0.500039 0.000240 0.621687 0.881428
C75   C     C_R   0.999994 0.426533 0.500006 0.881902
C76   C     C_R   0.499994 0.926533 0.500006 0.881909
C77   C     C_R   0.499999 0.573288 0.500003 0.871157
C78   C     C_R   0.999999 0.073288 0.500003 0.871155
C79   C     C_R   0.573378 0.500002 0.426705 0.881361
C80   C     C_R   0.426622 0.500004 0.573295 0.881347
C81   C     C_R   0.073378 0.000002 0.426705 0.881359
C82   C     C_R   0.926622 0.000004 0.573295 0.881354
C83   C     C_3   0.968668 0.482406 0.260380 -0.189128
C84   C     C_3   0.032193 0.484090 0.738772 -0.187928
C85   C     C_3   0.468776 0.982213 0.260273 -0.189268
C86   C     C_3   0.532223 0.984158 0.738743 -0.187889
C87   C     C_R   0.500002 0.426538 0.499997 0.871102
C88   C     C_R   0.000002 0.926538 0.499997 0.871102
C89   C     C_R   0.500087 0.326239 0.556872 -0.163449
C90   C     C_R   0.499996 0.326238 0.443027 -0.163455
C91   C     C_R   0.000029 0.826239 0.556932 -0.163456
C92   C     C_R   0.000051 0.826238 0.442970 -0.163458
C93   C     C_R   0.500069 0.365414 0.556974 -0.196989
C94   C     C_R   0.499978 0.365412 0.442966 -0.196991
C95   C     C_R   0.000012 0.865413 0.557033 -0.196989
C96   C     C_R   0.000034 0.865412 0.442909 -0.196995
C97   C     C_R   0.500014 0.385296 0.499981 -0.039860
C98   C     C_R   0.000014 0.885296 0.499981 -0.039853
C99   C     C_R   0.500050 0.306793 0.499939 0.160624
C100  C     C_R   0.000049 0.806793 0.499942 0.160633
C101  C     C_1   0.500058 0.266780 0.499929 -0.068495
C102  C     C_1   0.000057 0.766780 0.499932 -0.068496
C103  C     C_1   0.000056 0.733138 0.499932 -0.069471
C104  C     C_1   0.500058 0.233138 0.499930 -0.069473
C105  C     C_R   0.965888 0.673678 0.534085 -0.165240
C106  C     C_R   0.034193 0.673682 0.465819 -0.165213
C107  C     C_R   0.465891 0.173678 0.534088 -0.165236
C108  C     C_R   0.534192 0.173682 0.465812 -0.165201
C109  C     C_R   0.965828 0.634503 0.534148 -0.201985
C110  C     C_R   0.034228 0.634507 0.465786 -0.202221
C111  C     C_R   0.465830 0.134503 0.534152 -0.201969
C112  C     C_R   0.534227 0.134507 0.465781 -0.202235
C113  C     C_R   0.000021 0.614632 0.499976 -0.038121
C114  C     C_R   0.500022 0.114632 0.499975 -0.038133
C115  C     C_3   0.968987 0.518281 0.301418 -0.180386
C116  C     C_3   0.029983 0.519905 0.699610 -0.179760
C117  C     C_3   0.468873 0.018088 0.301532 -0.180454
C118  C     C_3   0.529937 0.019967 0.699656 -0.179718
C119  C     C_R   0.000047 0.693125 0.499944 0.160734
C120  C     C_R   0.500047 0.193125 0.499942 0.160719
C121  C     C_R   0.499970 0.673615 0.443072 -0.161171
C122  C     C_R   0.499973 0.673617 0.557000 -0.161191
C123  C     C_R   0.999945 0.173615 0.443098 -0.161172
C124  C     C_R   0.999995 0.173617 0.556978 -0.161189
C125  C     C_R   0.499982 0.634434 0.442977 -0.196228
C126  C     C_R   0.499985 0.634435 0.557066 -0.196229
C127  C     C_R   0.999958 0.134434 0.443002 -0.196229
C128  C     C_R   0.000008 0.134435 0.557044 -0.196229
C129  C     C_R   0.499990 0.614544 0.500014 -0.040561
C130  C     C_R   0.999990 0.114544 0.500015 -0.040562
C131  C     C_R   0.499965 0.693072 0.500043 0.158148
C132  C     C_R   0.999963 0.193072 0.500046 0.158146
C133  C     C_1   0.499959 0.733104 0.500051 -0.064416
C134  C     C_1   0.999956 0.233104 0.500053 -0.064417
C135  C     C_1   0.999956 0.266756 0.500053 -0.061608
C136  C     C_1   0.499958 0.766756 0.500050 -0.061608
C137  C     C_R   0.965820 0.326236 0.533841 -0.154651
C138  C     C_R   0.034116 0.326247 0.466233 -0.154076
C139  C     C_R   0.465821 0.826236 0.533863 -0.154698
C140  C     C_R   0.534117 0.826247 0.466208 -0.154031
C141  C     C_R   0.965782 0.365416 0.533878 -0.180514
C142  C     C_R   0.034172 0.365425 0.466172 -0.177872
C143  C     C_R   0.465783 0.865415 0.533900 -0.180719
C144  C     C_R   0.534173 0.865426 0.466148 -0.177665
C145  C     C_R   0.999982 0.385298 0.500019 -0.029319
C146  C     C_R   0.499982 0.885298 0.500019 -0.029320
C147  C     C_3   0.999876 0.500270 0.310945 -0.024036
C148  C     C_3   0.000094 0.500256 0.689087 -0.024104
C149  C     C_3   0.499873 0.000270 0.310948 -0.024039
C150  C     C_3   0.500093 0.000256 0.689088 -0.024123
C151  C     C_R   0.999963 0.306786 0.500043 0.158136
C152  C     C_R   0.499965 0.806786 0.500041 0.158134
C153  C     C_3   0.999643 0.464960 0.270659 0.053591
C154  C     C_3   0.002189 0.465007 0.727517 0.053403
C155  C     C_3   0.499858 0.964961 0.270446 0.053601
C156  C     C_3   0.502261 0.965015 0.727444 0.053414
C157  C     C_3   0.030876 0.482007 0.198465 -0.194711
C158  C     C_3   0.970088 0.480364 0.800568 -0.195534
C159  C     C_3   0.530982 0.982200 0.198358 -0.194608
C160  C     C_3   0.470130 0.980302 0.800526 -0.195552
C161  C     C_3   0.031022 0.517882 0.239647 -0.182344
C162  C     C_3   0.968051 0.516173 0.761280 -0.182922
C163  C     C_3   0.530907 0.018075 0.239763 -0.182259
C164  C     C_3   0.468018 0.016105 0.761311 -0.182947
C165  C     C_3   0.000136 0.535944 0.229137 -0.155792
C166  C     C_3   0.997944 0.535875 0.772777 -0.155914
C167  C     C_3   0.499911 0.035944 0.229362 -0.155775
C168  C     C_3   0.497867 0.035867 0.772854 -0.155931
H1    H     H_    0.943860 0.533164 0.345000 0.151787
H2    H     H_    0.054286 0.536107 0.656825 0.150677
H3    H     H_    0.443654 0.032816 0.345202 0.151913
H4    H     H_    0.554206 0.036219 0.656904 0.150632
H5    H     H_    0.812818 0.553367 0.134228 0.137933
H6    H     H_    0.187201 0.553373 0.865912 0.137935
H7    H     H_    0.312818 0.053374 0.134239 0.137931
H8    H     H_    0.687197 0.053443 0.865757 0.137944
H9    H     H_    0.881719 0.551924 0.066624 0.157414
H10   H     H_    0.118296 0.551902 0.933523 0.157422
H11   H     H_    0.381719 0.051930 0.066637 0.157415
H12   H     H_    0.618294 0.051963 0.933367 0.157488
H13   H     H_    0.809177 0.450593 0.244620 0.143133
H14   H     H_    0.190798 0.450736 0.755181 0.143189
H15   H     H_    0.309176 0.950588 0.244603 0.143127
H16   H     H_    0.690808 0.950684 0.755341 0.143179
H17   H     H_    0.500128 0.311139 0.601054 0.135558
H18   H     H_    0.499965 0.311137 0.398832 0.135555
H19   H     H_    0.000024 0.811139 0.601160 0.135559
H20   H     H_    0.000066 0.811137 0.398730 0.135555
H21   H     H_    0.500099 0.380064 0.601546 0.158631
H22   H     H_    0.499935 0.380062 0.398409 0.158627
H23   H     H_    0.999996 0.880064 0.601651 0.158630
H24   H     H_    0.000037 0.880062 0.398305 0.158626
H25   H     H_    0.939382 0.688775 0.560576 0.136095
H26   H     H_    0.060709 0.688783 0.439316 0.136086
H27   H     H_    0.439385 0.188776 0.560582 0.136093
H28   H     H_    0.560706 0.188783 0.439306 0.136090
H29   H     H_    0.939092 0.619840 0.560870 0.157927
H30   H     H_    0.060954 0.619847 0.439076 0.157916
H31   H     H_    0.439095 0.119840 0.560878 0.157927
H32   H     H_    0.560951 0.119846 0.439068 0.157921
H33   H     H_    0.499965 0.688712 0.398851 0.138237
H34   H     H_    0.499970 0.688715 0.601231 0.138217
H35   H     H_    0.999921 0.188712 0.398895 0.138236
H36   H     H_    0.000010 0.188715 0.601190 0.138219
H37   H     H_    0.943431 0.467770 0.266755 0.148419
H38   H     H_    0.058165 0.470830 0.731673 0.146928
H39   H     H_    0.443631 0.967422 0.266557 0.148595
H40   H     H_    0.558221 0.970952 0.731623 0.146812
H41   H     H_    0.499985 0.619782 0.398373 0.159235
H42   H     H_    0.499990 0.619784 0.601661 0.159228
H43   H     H_    0.999943 0.119782 0.398416 0.159236
H44   H     H_    0.000032 0.119784 0.601619 0.159229
H45   H     H_    0.939305 0.311136 0.560088 0.136605
H46   H     H_    0.060624 0.311154 0.439995 0.136630
H47   H     H_    0.439306 0.811135 0.560127 0.136603
H48   H     H_    0.560625 0.811155 0.439952 0.136634
H49   H     H_    0.939056 0.380074 0.560326 0.158060
H50   H     H_    0.060905 0.380090 0.439716 0.158155
H51   H     H_    0.439057 0.880073 0.560367 0.158054
H52   H     H_    0.560905 0.880091 0.439673 0.158162
H53   H     H_    0.055930 0.467048 0.154828 0.140675
H54   H     H_    0.945856 0.464082 0.843369 0.141775
H55   H     H_    0.556128 0.967397 0.154628 0.140551
H56   H     H_    0.445933 0.963968 0.843291 0.141817
H57   H     H_    0.056344 0.532450 0.232976 0.149754
H58   H     H_    0.941989 0.529367 0.768724 0.150748
H59   H     H_    0.556136 0.032799 0.233188 0.149641
H60   H     H_    0.441929 0.029243 0.768779 0.150789
H61   H     H_    0.000344 0.565178 0.210460 0.150548
H62   H     H_    0.996178 0.565058 0.793007 0.150324
H63   H     H_    0.499935 0.065177 0.210865 0.150570
H64   H     H_    0.496040 0.065044 0.793149 0.150322
H65   H     H_    0.688640 0.502808 0.210876 0.142346
H66   H     H_    0.311359 0.502870 0.789119 0.142371
H67   H     H_    0.188640 0.002804 0.210875 0.142344
H68   H     H_    0.811361 0.002883 0.789119 0.142379
H69   H     H_    0.619882 0.501308 0.278910 0.160942
H70   H     H_    0.380116 0.501332 0.721091 0.160945
H71   H     H_    0.119881 0.001302 0.278909 0.160940
H72   H     H_    0.880118 0.001337 0.721090 0.160948
H73   H     H_    0.619353 0.500347 0.482406 0.163843
H74   H     H_    0.380648 0.500363 0.517591 0.163845
H75   H     H_    0.119353 0.000354 0.482406 0.163843
H76   H     H_    0.880648 0.000368 0.517592 0.163847
O1    O     O_R   0.944560 0.468710 0.055440 -0.609492
O2    O     O_R   0.055440 0.468710 0.944560 -0.609298
O3    O     O_R   0.444560 0.968710 0.055440 -0.609502
O4    O     O_R   0.555440 0.968710 0.944560 -0.609282
O5    O     O_R   0.555450 0.499900 0.497080 -0.621923
O6    O     O_R   0.444550 0.499900 0.502920 -0.621920
O7    O     O_R   0.055450 0.999900 0.497080 -0.621920
O8    O     O_R   0.944550 0.999900 0.502920 -0.621917
O9    O     O_R   0.555440 0.499880 0.392050 -0.623790
O10   O     O_R   0.444560 0.499880 0.607950 -0.623782
O11   O     O_R   0.055440 0.999880 0.392050 -0.623794
O12   O     O_R   0.944560 0.999880 0.607950 -0.623787
O13   O     O_R   0.500000 0.444470 0.552540 -0.622937
O14   O     O_R   0.500000 0.444470 0.447460 -0.622939
O15   O     O_R   1.000000 0.944470 0.552540 -0.622936
O16   O     O_R   1.000000 0.944470 0.447460 -0.622939
O17   O     O_R   0.944560 0.531300 0.055450 -0.623307
O18   O     O_R   0.055440 0.531300 0.944550 -0.623113
O19   O     O_R   0.444560 0.031300 0.055450 -0.623325
O20   O     O_R   0.555440 0.031300 0.944550 -0.623115
O21   O     O_R   0.000010 0.468710 0.093020 -0.616616
O22   O     O_R   0.999990 0.468710 0.906980 -0.616655
O23   O     O_R   0.500010 0.968710 0.093020 -0.616614
O24   O     O_R   0.499990 0.968710 0.906980 -0.616672
O25   O     O_R   0.000010 0.531300 0.093030 -0.630826
O26   O     O_R   0.999990 0.531300 0.906970 -0.630783
O27   O     O_R   0.500010 0.031300 0.093030 -0.630825
O28   O     O_R   0.499990 0.031300 0.906970 -0.630777
O29   O     O_R   0.031280 0.555400 0.468730 -0.627450
O30   O     O_R   0.968720 0.555400 0.531270 -0.627301
O31   O     O_R   0.531280 0.055400 0.468730 -0.627462
O32   O     O_R   0.468720 0.055400 0.531270 -0.627292
O33   O     O_R   0.031290 0.499960 0.375690 -0.624921
O34   O     O_R   0.968710 0.499960 0.624310 -0.625430
O35   O     O_R   0.531290 0.999960 0.375690 -0.624861
O36   O     O_R   0.468710 0.999960 0.624310 -0.625450
O37   O     O_R   0.968700 0.499940 0.438280 -0.623723
O38   O     O_R   0.031300 0.499940 0.561720 -0.623203
O39   O     O_R   0.468700 0.999940 0.438280 -0.623783
O40   O     O_R   0.531300 0.999940 0.561720 -0.623182
O41   O     O_R   0.031310 0.444530 0.468680 -0.622636
O42   O     O_R   0.968690 0.444530 0.531320 -0.623202
O43   O     O_R   0.531310 0.944530 0.468680 -0.622591
O44   O     O_R   0.468690 0.944530 0.531320 -0.623245
O45   O     O_R   0.500010 0.555340 0.552490 -0.622929
O46   O     O_R   0.499990 0.555340 0.447510 -0.622929
O47   O     O_R   0.000010 0.055340 0.552490 -0.622931
O48   O     O_R   0.999990 0.055340 0.447510 -0.622929
Zn1   Zn    Zn3+2 0.000000 0.458210 0.000000 0.993001
Zn2   Zn    Zn3+2 0.500000 0.958210 0.000000 0.993013
Zn3   Zn    Zn3+2 0.000000 0.541790 0.000000 0.944731
Zn4   Zn    Zn3+2 0.500000 0.041790 0.000000 0.944717
Zn5   Zn    Zn3+2 0.041800 0.499960 0.458210 0.953134
Zn6   Zn    Zn3+2 0.958200 0.499960 0.541790 0.952063
Zn7   Zn    Zn3+2 0.541800 0.999960 0.458210 0.953224
Zn8   Zn    Zn3+2 0.458200 0.999960 0.541790 0.951980
Zn9   Zn    Zn3+2 0.500010 0.499910 0.570130 0.949210
Zn10  Zn    Zn3+2 0.499990 0.499910 0.429870 0.949208
Zn11  Zn    Zn3+2 0.000010 0.999910 0.570130 0.949210
Zn12  Zn    Zn3+2 0.999990 0.999910 0.429870 0.949207
C169  C     C_1   0.693219 0.501863 0.424332 0.146629
N1    N     N_1   0.708922 0.501917 0.456301 -0.200614
C170  C     C_1   0.306784 0.501916 0.575658 0.146642
N2    N     N_1   0.291082 0.501974 0.543686 -0.200526
C171  C     C_1   0.193219 0.001873 0.424330 0.146624
N3    N     N_1   0.208923 0.001931 0.456299 -0.200626
C172  C     C_1   0.806785 0.001929 0.575660 0.146654
N4    N     N_1   0.791082 0.001989 0.543690 -0.200509
C173  C     C_1   0.882578 0.441263 0.184058 0.170978
N5    N     N_1   0.896949 0.417251 0.197577 -0.198667
C174  C     C_1   0.117390 0.441396 0.815721 0.170840
N6    N     N_1   0.103007 0.417417 0.802124 -0.197639
C175  C     C_1   0.382577 0.941256 0.184041 0.171002
N7    N     N_1   0.396946 0.917240 0.197553 -0.198781
C176  C     C_1   0.617405 0.941321 0.815898 0.170963
N8    N     N_1   0.603028 0.917306 0.802370 -0.197547
C177  C     C_1   0.999365 0.426328 0.295399 0.140276
N9    N     N_1   0.999143 0.395900 0.315043 -0.198579
C178  C     C_1   0.004494 0.426436 0.700759 0.140828
N10   N     N_1   0.006314 0.396059 0.679538 -0.198388
C179  C     C_1   0.499818 0.926331 0.294947 0.140230
N11   N     N_1   0.499786 0.895902 0.314407 -0.198603
C180  C     C_1   0.504648 0.926453 0.700608 0.140833
N12   N     N_1   0.506528 0.896080 0.679318 -0.198386

loop_
_geom_bond_atom_site_label_1
_geom_bond_atom_site_label_2
_ccdc_geom_bond_type
C70   C114  S    
C55   C59   A    
C108  C120  A    
C109  H29   S    
C28   C32   A    
C80   O10   A    
C89   C99   A    
C50   H10   S    
C154  C158  S    
C7    C159  S    
C29   C33   S    
C139  C152  A    
C138  C142  A    
C85   C155  S    
C9    C13   A    
C8    C168  S    
C6    C158  S    
C43   H7    S    
O5    Zn9   S    
C12   C16   A    
O19   Zn4   S    
C76   O43   A    
C91   C100  A    
C115  C165  S    
C140  C152  A    
C141  C145  A    
O41   Zn5   S    
C45   O21   A    
C76   C146  S    
C4    C56   S    
C165  H61   S    
C116  C166  S    
C81   O7    A    
C163  H59   S    
C41   C49   A    
C136  C152  S    
O31   Zn7   S    
C49   H9    S    
C11   H67   S    
C25   C169  S    
C63   H15   S    
C9    H65   S    
C178  N10   T    
C164  C168  S    
C62   C66   A    
C13   H69   S    
C90   H18   S    
C94   C97   A    
C17   C21   A    
O23   Zn2   S    
C19   C23   A    
C94   H22   S    
C168  H64   S    
C10   C30   A    
C155  C179  S    
C16   C20   A    
C79   O9    A    
C50   C54   A    
C85   C117  S    
C60   C176  S    
C160  H56   S    
C10   C14   A    
O36   Zn8   S    
C23   H75   S    
C107  C120  A    
C21   H73   S    
O16   Zn12  S    
C47   O23   A    
O37   Zn6   S    
C57   C61   A    
C138  C151  A    
C69   O29   A    
O40   Zn7   S    
C59   C63   A    
C123  H35   S    
C60   C64   A    
C148  C162  S    
C149  C155  S    
C121  H33   S    
C1    O1    A    
C2    O18   A    
C49   C53   A    
C75   O42   A    
C28   C172  S    
C24   H76   S    
C72   O34   A    
O24   Zn2   S    
C147  C153  S    
O25   Zn3   S    
C125  C129  A    
C132  C134  S    
C177  N9    T    
C117  C149  S    
C112  H32   S    
C161  C165  S    
C71   C147  S    
C20   C82   S    
C123  C132  A    
C87   O13   A    
C112  C114  A    
C106  H26   S    
C18   C80   S    
O34   Zn6   S    
C73   O35   A    
C74   O36   A    
O22   Zn1   S    
C64   C68   A    
C82   O8    A    
C144  H52   S    
C92   C96   A    
O35   Zn7   S    
C124  C132  A    
C7    C167  S    
C1    C53   S    
C142  H50   S    
C86   C156  S    
C88   O15   A    
C139  C143  A    
C96   C98   A    
O7    Zn11  S    
O8    Zn12  S    
C8    C86   S    
C44   C52   A    
C84   C116  S    
C80   O6    A    
C157  H53   S    
O33   Zn5   S    
C84   C154  S    
C51   H11   S    
C15   H71   S    
C162  H58   S    
C70   O32   A    
C30   C34   S    
C155  C159  S    
C83   C115  S    
C156  C160  S    
C42   H6    S    
C77   O46   A    
C125  H41   S    
O6    Zn10  S    
C121  C125  A    
C61   C65   A    
C107  C111  A    
C123  C127  A    
C4    O20   A    
O21   Zn1   S    
C116  H2    S    
C81   O11   A    
C42   C50   A    
C26   C30   A    
O17   Zn3   S    
C40   C68   S    
C1    O17   A    
C93   C97   A    
C90   C99   A    
C85   H39   S    
C3    O3    A    
C21   C25   A    
C18   C22   A    
C89   H17   S    
C24   C28   A    
C32   C36   S    
C134  C135  T    
C83   C153  S    
C93   H21   S    
C150  C164  S    
C3    O19   A    
C13   C17   A    
C96   H24   S    
C78   C130  S    
C83   H37   S    
C9    C29   A    
C89   C93   A    
C102  C103  T    
O29   Zn5   S    
C143  H51   S    
C64   H16   S    
C47   O27   A    
C48   O28   A    
C43   C67   A    
C76   O44   A    
C19   C81   S    
C88   C98   S    
O38   Zn5   S    
C58   C62   A    
C143  C146  A    
C6    C166  S    
C106  C119  A    
C110  H30   S    
O45   Zn9   S    
C122  C131  A    
C57   C173  S    
O47   Zn11  S    
C78   O47   A    
C15   C19   A    
O3    Zn2   S    
C71   O33   A    
O43   Zn7   S    
C160  C164  S    
C106  C110  A    
C115  C147  S    
C118  C150  S    
C41   H5    S    
C141  H49   S    
C162  C166  S    
C139  H47   S    
C27   C171  S    
C108  H28   S    
C124  C128  A    
C137  H45   S    
C73   O39   A    
C11   C15   A    
C74   O40   A    
C174  N6    T    
C166  H62   S    
C25   C29   A    
C142  C145  A    
C82   O12   A    
C148  C154  S    
O9    Zn10  S    
O32   Zn8   S    
C90   C94   A    
C103  C119  S    
C10   H66   S    
C6    C84   S    
C170  N2    T    
C71   O37   A    
C44   H8    S    
C144  C146  A    
C2    C54   S    
C86   H40   S    
C14   H70   S    
C53   C57   A    
C51   C55   A    
C5    C45   S    
O14   Zn10  S    
C108  C112  A    
C7    C47   S    
C35   C39   T    
C8    C48   S    
C62   H14   S    
C117  H3    S    
C118  H4    S    
C46   O22   A    
C69   C113  S    
C75   O41   A    
C92   H20   S    
O4    Zn2   S    
C86   C118  S    
C167  H63   S    
O28   Zn4   S    
C101  C104  T    
C5    C157  S    
C27   C31   A    
C147  C161  S    
C31   C35   S    
C8    C160  S    
C157  C161  S    
C22   H74   S    
C116  C148  S    
C137  C141  A    
C138  H46   S    
C73   C149  S    
C140  C144  A    
C128  C130  A    
O2    Zn1   S    
C61   H13   S    
C126  C129  A    
C122  H34   S    
C2    O2    A    
C180  N12   T    
C128  H44   S    
C43   C51   A    
C173  N5    T    
C7    C85   S    
C105  C109  A    
C117  C167  S    
C135  C151  S    
C118  C168  S    
C111  C114  A    
C153  C157  S    
C179  N11   T    
C33   C37   T    
C59   C175  S    
C88   O16   A    
C176  N8    T    
C56   C60   A    
C169  N1    T    
C22   C26   A    
C105  C119  A    
O20   Zn4   S    
C91   H19   S    
C104  C120  S    
C105  H25   S    
C172  N4    T    
C14   C18   A    
C115  H1    S    
C107  H27   S    
C95   C98   A    
C171  N3    T    
C75   C145  S    
C45   O25   A    
C69   O30   A    
C124  H36   S    
O30   Zn6   S    
C77   O45   A    
C5    C83   S    
C48   O24   A    
C17   C79   S    
C77   C129  S    
O11   Zn12  S    
C4    O4    A    
O12   Zn11  S    
C111  H31   S    
O26   Zn3   S    
O39   Zn8   S    
C38   C66   S    
O1    Zn1   S    
C133  C136  T    
C149  C163  S    
C23   C27   A    
C109  C113  A    
C11   C31   A    
C158  H54   S    
C150  C156  S    
C26   C170  S    
C12   C32   A    
C79   O5    A    
C3    C55   S    
C121  C131  A    
C154  C178  S    
C87   O14   A    
C161  H57   S    
O44   Zn8   S    
C63   C67   A    
C74   C150  S    
C20   C24   A    
C36   C40   T    
C126  H42   S    
C140  H48   S    
C41   C65   A    
C72   C148  S    
C91   C95   A    
C37   C65   S    
C122  C126  A    
C163  C167  S    
C52   H12   S    
C84   H38   S    
C100  C102  S    
C164  H60   S    
C110  C113  A    
C16   H72   S    
O10   Zn9   S    
O46   Zn10  S    
C127  H43   S    
C5    C165  S    
C159  C163  S    
C44   C68   A    
C72   O38   A    
C153  C177  S    
C92   C100  A    
C54   C58   A    
C12   H68   S    
C70   O31   A    
C6    C46   S    
C99   C101  S    
C34   C38   T    
C39   C67   S    
C137  C151  A    
C131  C133  S    
C78   O48   A    
C95   H23   S    
C127  C130  A    
O13   Zn9   S    
C159  H55   S    
O15   Zn11  S    
O48   Zn12  S    
C175  N7    T    
O27   Zn4   S    
C156  C180  S    
C158  C162  S    
C46   O26   A    
C42   C66   A    
O18   Zn3   S    
O42   Zn6   S    
C58   C174  S    
C52   C56   A    
C87   C97   S    
