data_mof_unit_46337.cif
_audit_creation_date              2013-03-05T16:44:34-0500
_audit_creation_method            fapswitch 2.2
_symmetry_space_group_name_H-M    P1
_symmetry_Int_Tables_number       1
_space_group_crystal_system       triclinic
_cell_length_a                    27.623158
_cell_length_b                    10.741177
_cell_length_c                    9.861954
_cell_angle_alpha                 87.952383
_cell_angle_beta                  89.220199
_cell_angle_gamma                 90.939623
_cell_volume                      2923.53666152

loop_
_atom_site_label
_atom_site_type_symbol
_atom_site_description
_atom_site_fract_x
_atom_site_fract_y
_atom_site_fract_z
_atom_type_partial_charge
O1    O     O_R   0.500010 0.316790 0.614690 -0.615988
O2    O     O_R   0.500000 0.316760 0.385350 -0.629824
C1    C     C_R   0.498108 0.259832 0.502297 0.906315
O3    O     O_R   0.428760 0.500040 0.614660 -0.579417
O4    O     O_R   0.428750 0.500000 0.385310 -0.625969
C2    C     C_R   0.406044 0.502307 0.500304 0.933496
Zn1   Zn    Zn3+2 0.500000 0.500020 0.653130 0.975040
Zn2   Zn    Zn3+2 0.500000 0.499980 0.346870 0.977280
O5    O     O_R   0.500000 0.683240 0.614650 -0.636477
O6    O     O_R   0.499990 0.683210 0.385310 -0.575667
O7    O     O_R   0.571250 0.500000 0.614690 -0.613391
O8    O     O_R   0.571240 0.499960 0.385340 -0.618926
C3    C     C_R   0.501320 0.739904 0.497358 0.928824
C4    C     C_R   0.594046 0.501165 0.498732 0.874697
C5    C     C_R   0.180101 0.439978 0.416820 0.542072
O9    O     O_2   0.206322 0.338531 0.389950 -0.559739
N1    N     N_R   0.202679 0.545754 0.458363 -0.322201
C6    C     C_R   0.177605 0.650951 0.484320 0.607558
C7    C     C_R   0.284353 0.605159 0.379038 0.591340
C8    C     C_R   0.334404 0.589489 0.389369 -0.391290
C9    C     C_R   0.322709 0.461258 0.596079 0.519109
C10   C     C_R   0.272840 0.477028 0.585861 -0.284061
C11   C     C_R   0.253818 0.544971 0.475996 0.155698
C12   C     C_R   0.103056 0.543676 0.429096 -0.059139
C13   C     C_R   0.129843 0.436421 0.402720 -0.005784
C14   C     C_R   0.106014 0.327879 0.364325 -0.139276
C15   C     C_R   0.127239 0.652137 0.469233 -0.111072
C16   C     C_R   0.353702 0.518334 0.497371 -0.206201
H1    H     H_    0.248621 0.431851 0.660387 0.182520
H2    H     H_    0.125935 0.245254 0.340291 0.186701
C17   C     C_R   0.646997 0.500487 0.492068 -0.082827
C18   C     C_R   0.976936 0.419920 0.401277 0.070999
C19   C     C_R   0.974803 0.647675 0.417230 -0.006798
C20   C     C_R   0.950472 0.531235 0.410381 0.065959
C21   C     C_R   0.951398 0.304875 0.404821 -0.219399
C22   C     C_R   0.901349 0.300027 0.415835 -0.129827
C23   C     C_R   0.874950 0.409584 0.420336 0.014506
C24   C     C_R   0.899248 0.525991 0.413232 -0.122571
C25   C     C_R   0.872362 0.636695 0.410733 -0.140789
C26   C     C_R   0.821518 0.627181 0.419254 0.542789
N2    N     N_R   0.799066 0.512963 0.435814 -0.357586
C27   C     C_R   0.824608 0.405140 0.435164 0.508588
C28   C     C_R   0.718665 0.442327 0.366331 -0.078876
C29   C     C_R   0.668812 0.438278 0.384827 -0.212269
C30   C     C_R   0.676213 0.566357 0.582558 -0.030521
C31   C     C_R   0.726422 0.566550 0.565475 -0.135189
C32   C     C_R   0.747667 0.506384 0.456489 0.271455
O10   O     O_2   0.801364 0.293925 0.451433 -0.562441
C33   C     C_R   0.027999 0.426975 0.392016 0.079979
C34   C     C_R   0.052093 0.541106 0.418841 0.014282
C35   C     C_R   0.025519 0.651302 0.438976 -0.042781
C36   C     C_R   0.055917 0.322894 0.359428 -0.226675
H3    H     H_    0.647114 0.387916 0.313514 0.170425
H4    H     H_    0.734768 0.396612 0.281050 0.161892
H5    H     H_    0.883416 0.209619 0.420803 0.180862
H6    H     H_    0.969229 0.216452 0.405204 0.129854
H7    H     H_    0.039964 0.236724 0.327260 0.136481
O11   O     O_2   0.201358 0.753371 0.525604 -0.566669
C37   C     C_R   0.100732 0.757180 0.499925 -0.238337
H8    H     H_    0.358331 0.630703 0.311683 0.201622
H9    H     H_    0.119207 0.836719 0.540894 0.200390
C38   C     C_R   0.947609 0.756500 0.398692 -0.242873
C39   C     C_R   0.897032 0.752741 0.399981 0.535754
O12   O     O_2   0.794497 0.730649 0.411685 -0.492224
C40   C     C_R   0.050232 0.759039 0.485602 0.518344
H10   H     H_    0.964972 0.845918 0.378112 0.197792
H11   H     H_    0.749208 0.616858 0.634341 0.152404
C41   C     C_R   0.521084 0.059940 0.605951 0.073256
C42   C     C_R   0.497265 0.127147 0.504450 -0.183326
C43   C     C_R   0.481166 0.067599 0.389126 -0.303507
H12   H     H_    0.462725 0.119207 0.309847 0.167981
C44   C     C_R   0.485968 0.939888 0.378850 0.506656
C45   C     C_R   0.505574 0.872041 0.489677 -0.196019
C46   C     C_R   0.527688 0.934075 0.595112 0.032270
C47   C     C_3   0.524293 0.908471 0.745275 -0.516074
C48   C     C_3   0.510779 0.043921 0.755849 -0.004692
H13   H     H_    0.494999 0.841528 0.778724 0.217160
H14   H     H_    0.560271 0.885024 0.787738 0.208058
C49   C     C_R   0.460830 0.455089 0.074822 0.173087
N3    N     N_R   0.499670 0.499140 0.142800 -0.136242
C50   C     C_R   0.535322 0.561276 0.067422 0.002814
C51   C     C_R   0.535504 0.559520 0.923589 -0.165461
H15   H     H_    0.564148 0.605958 0.865251 0.174266
N4    N     N_R   0.499670 0.499180 0.857150 -0.114318
C52   C     C_R   0.460477 0.457147 0.931998 0.211007
C53   C     C_3   0.439796 0.329126 0.931293 -0.500631
C54   C     C_3   0.441059 0.325575 0.085190 -0.280959
H16   H     H_    0.403041 0.326904 0.887521 0.253327
H17   H     H_    0.466232 0.267042 0.885646 0.211982
H18   H     H_    0.467065 0.257745 0.128199 0.164626
O13   O     O_3   0.340688 0.388033 0.700981 -0.609548
C55   C     C_3   0.337064 0.262309 0.664930 -0.282445
H19   H     H_    0.363244 0.242988 0.581776 0.160556
H20   H     H_    0.299635 0.235232 0.635647 0.182277
H21   H     H_    0.346109 0.202533 0.754473 0.207562
O14   O     O_3   0.263938 0.667059 0.268454 -0.595858
C56   C     C_3   0.283786 0.788669 0.251261 -0.219712
H22   H     H_    0.319125 0.787309 0.196325 0.164462
H23   H     H_    0.287548 0.836072 0.349401 0.175689
H24   H     H_    0.258902 0.845074 0.187716 0.200628
C57   C     C_1   0.656228 0.643838 0.685123 0.195945
N5    N     N_1   0.640938 0.707620 0.766913 -0.222102
O15   O     O_3   0.871980 0.862700 0.383555 -0.561312
C58   C     C_3   0.875065 0.929314 0.504014 -0.197196
H25   H     H_    0.865026 0.869957 0.595435 0.161215
H26   H     H_    0.848943 0.006552 0.498388 0.212069
H27   H     H_    0.911842 0.971025 0.515085 0.141648
O16   O     O_3   0.024154 0.854706 0.541587 -0.607079
C59   C     C_3   0.040975 0.972669 0.491040 -0.369158
H28   H     H_    0.050459 0.973139 0.380787 0.156006
H29   H     H_    0.072096 0.005965 0.550732 0.194940
H30   H     H_    0.011538 0.040267 0.503982 0.188485
O17   O     O_3   0.464456 0.879731 0.272541 -0.597721
C60   C     C_3   0.489866 0.911382 0.150645 -0.257547
H31   H     H_    0.477262 0.848545 0.071007 0.186043
H32   H     H_    0.529597 0.898385 0.160948 0.163036
H33   H     H_    0.482247 0.008369 0.115191 0.156841
C61   C     C_1   0.459122 0.053619 0.792907 0.134198
N6    N     N_1   0.418507 0.058382 0.822098 -0.226986
C62   C     C_1   0.543528 0.116778 0.839926 0.162254
N7    N     N_1   0.569227 0.174294 0.906178 -0.196120
C63   C     C_1   0.572643 0.631406 0.132225 0.233661
N8    N     N_1   0.602754 0.688691 0.183202 -0.194091
C64   C     C_1   0.392816 0.319225 0.150137 0.265800
N9    N     N_1   0.354869 0.314148 0.201433 -0.173655

loop_
_geom_bond_atom_site_label_1
_geom_bond_atom_site_label_2
_geom_bond_distance
_ccdc_geom_bond_type
C57   N5    1.156746 T    
C10   H1    1.083391 S    
N2    C27   1.366138 A    
C7    C8    1.400175 A    
C12   C15   1.405272 A    
C4    C17   1.463430 S    
C47   C48   1.514771 S    
C58   H26   1.108823 S    
C50   C51   1.419212 A    
C30   C31   1.394788 A    
Zn1   O7    1.999259 S    
N1    C11   1.425767 S    
C22   C23   1.396255 A    
C1    C42   1.424400 S    
C23   C24   1.408437 A    
C59   H29   1.110034 S    
C35   C40   1.427336 A    
C54   C64   1.470167 S    
N3    C50   1.375130 A    
O7    C4    1.297514 A    
C53   H16   1.108873 S    
C5    C13   1.397138 A    
C41   C46   1.374890 A    
C5    O9    1.350385 S    
C56   H22   1.110534 S    
O16   C59   1.413889 S    
Zn1   O5    1.990893 S    
C45   C46   1.397063 A    
C23   C27   1.396149 A    
O5    C3    1.287475 A    
C61   N6    1.156850 T    
C29   H3    1.083749 S    
C6    O11   1.349866 S    
C2    C16   1.459416 S    
C21   C22   1.385267 A    
C19   C38   1.407586 A    
C43   H12   1.080372 S    
C8    H8    1.082666 S    
C40   O16   1.390560 S    
Zn1   N4    2.011630 S    
O1    Zn1   2.017545 S    
C9    C10   1.395213 A    
O3    Zn1   2.009177 S    
C49   C54   1.485724 S    
C58   H25   1.114710 S    
C56   H23   1.114896 S    
N1    C6    1.365117 A    
C12   C34   1.412624 A    
C24   C25   1.411892 A    
C37   H9    1.081467 S    
C17   C29   1.405162 A    
C38   H10   1.077977 S    
C18   C21   1.411928 A    
C12   C13   1.409450 A    
C39   O15   1.384306 S    
C46   C47   1.497925 S    
C59   H30   1.108084 S    
O13   C55   1.410995 S    
C53   C54   1.517729 S    
C41   C42   1.392080 A    
C27   O10   1.350327 S    
C8    C16   1.404776 A    
C13   C14   1.396088 A    
C52   C53   1.480637 S    
C44   O17   1.386568 S    
O6    C3    1.281289 A    
C55   H21   1.106905 S    
C48   C61   1.474445 S    
O1    C1    1.286323 A    
C18   C20   1.416544 A    
C7    C11   1.399889 A    
C28   C29   1.386418 A    
C38   C39   1.396870 A    
C14   C36   1.385574 A    
C28   H4    1.082965 S    
Zn2   O8    2.009177 S    
C33   C36   1.412448 A    
O14   C56   1.411998 S    
C55   H20   1.114093 S    
C34   C35   1.421474 A    
N2    C32   1.431875 S    
C48   C62   1.470326 S    
N4    C52   1.363528 A    
C47   H13   1.112359 S    
C30   C57   1.442403 S    
O3    C2    1.297693 A    
C26   N2    1.369088 A    
C9    C16   1.404947 A    
C3    C45   1.421472 S    
C14   H2    1.083564 S    
C51   N4    1.362410 A    
C41   C48   1.504903 S    
C49   C52   1.408083 A    
C56   H24   1.109303 S    
C62   N7    1.157389 T    
O17   C60   1.411876 S    
C9    O13   1.379928 S    
C5    N1    1.365520 A    
C31   C32   1.400778 A    
C21   H6    1.076941 S    
C20   C24   1.415045 A    
O2    Zn2   1.990894 S    
C6    C15   1.401430 A    
O8    C4    1.291307 A    
C44   C45   1.411064 A    
C53   H17   1.099587 S    
O4    Zn2   1.999262 S    
C60   H32   1.114160 S    
C60   H31   1.109614 S    
C19   C35   1.420268 A    
C25   C39   1.410701 A    
C26   O12   1.349308 S    
C50   C63   1.437200 S    
O2    C1    1.285962 A    
C31   H11   1.084504 S    
C22   H5    1.082114 S    
C15   C37   1.395072 A    
C59   H28   1.114771 S    
C37   C40   1.404402 A    
O4    C2    1.289678 A    
C55   H19   1.113328 S    
C19   C20   1.414288 A    
C42   C43   1.398850 A    
C47   H14   1.112867 S    
C18   C33   1.412837 A    
C60   H33   1.111296 S    
C36   H7    1.078383 S    
C49   N3    1.360142 A    
C25   C26   1.407670 A    
Zn2   O6    2.017544 S    
C33   C34   1.420215 A    
C17   C30   1.412195 A    
C54   H18   1.109127 S    
O15   C58   1.411370 S    
Zn2   N3    2.013016 S    
C10   C11   1.397919 A    
C43   C44   1.387496 A    
C51   H15   1.077044 S    
C63   N8    1.157523 T    
C28   C32   1.396706 A    
C58   H27   1.111877 S    
C7    O14   1.388031 S    
C64   N9    1.157331 T    
