data_mof_unit_6976.cif
_audit_creation_date              2012-12-11T14:07:47-0500
_audit_creation_method            fapswitch 2.2
_symmetry_space_group_name_H-M    P1
_symmetry_Int_Tables_number       1
_space_group_crystal_system       triclinic
_cell_length_a                    19.96293
_cell_length_b                    16.9432
_cell_length_c                    15.546818
_cell_angle_alpha                 90.14085
_cell_angle_beta                  52.580661
_cell_angle_gamma                 90.098097
_cell_volume                      4176.33205869

loop_
_atom_site_label
_atom_site_type_symbol
_atom_type_description
_atom_site_fract_x
_atom_site_fract_y
_atom_site_fract_z
_atom_type_partial_charge
C1    C     C_R   0.342114 0.177872 0.045377 0.481683
C2    C     C_R   0.700347 0.844426 0.997391 0.178671
C3    C     C_3   0.900177 0.769535 0.625785 -0.954355
C4    C     C_3   0.149976 0.838132 0.059855 0.277052
C5    C     C_3   0.066913 0.853631 0.078744 -0.918846
C6    C     C_3   0.101741 0.097564 0.112568 0.265605
C7    C     C_3   0.041811 0.071436 0.088379 -0.935698
C8    C     C_R   0.216800 0.640936 0.959957 0.133153
C9    C     C_R   0.147403 0.313922 0.074565 0.185063
C10   C     C_R   0.610789 0.814719 0.697256 -0.017626
C11   C     C_R   0.692232 0.137639 0.676807 0.000731
C12   C     C_R   0.192738 0.362878 0.677879 -0.009251
C13   C     C_R   0.108699 0.684118 0.698780 -0.019782
C14   C     C_3   0.251043 0.217019 0.458507 -0.391482
C15   C     C_3   0.202783 0.866911 0.520134 -0.383753
C16   C     C_3   0.698216 0.625481 0.525373 -0.402598
C17   C     C_R   0.360046 0.807448 0.012325 0.493706
C18   C     C_3   0.882158 0.269889 0.466857 -0.396795
C19   C     C_3   0.196515 0.264345 0.562783 -0.395036
C20   C     C_3   0.141921 0.820467 0.625170 -0.422224
C21   C     C_3   0.643995 0.675160 0.629463 -0.400025
C22   C     C_3   0.825773 0.219515 0.571024 -0.392075
C23   C     C_3   0.368765 0.217677 0.476751 -0.399622
C24   C     C_3   0.312992 0.759311 0.450157 -0.418071
C25   C     C_3   0.804276 0.737321 0.434529 -0.386931
C26   C     C_3   0.853659 0.174278 0.369553 -0.412196
C27   C     C_3   0.683092 0.729065 0.423182 -0.410393
C28   C     C_R   0.881231 0.699391 0.989183 0.501906
C29   C     C_3   0.757876 0.292713 0.466026 -0.401609
C30   C     C_3   0.361044 0.325139 0.372092 -0.414963
C31   C     C_3   0.205559 0.753584 0.413705 -0.421231
C32   C     C_3   0.345331 0.235921 0.399848 0.403784
C33   C     C_3   0.261711 0.808608 0.425245 0.413782
C34   C     C_3   0.748322 0.680477 0.424497 0.405588
C35   C     C_3   0.850182 0.262828 0.397524 0.412712
C36   C     C_3   0.656412 0.764243 0.600470 0.395711
C37   C     C_3   0.753275 0.180774 0.574939 0.395808
C38   C     C_3   0.251917 0.318890 0.576487 0.394330
C39   C     C_R   0.833572 0.333947 0.059389 0.503184
C40   C     C_3   0.160225 0.730915 0.601423 0.419657
C41   C     C_3   0.750462 0.786034 0.537573 -0.403885
C42   C     C_3   0.793938 0.126489 0.473650 -0.406136
C43   C     C_3   0.314529 0.267882 0.580416 -0.402276
C44   C     C_3   0.253127 0.713440 0.554254 -0.378773
C45   C     C_R   0.363824 0.816724 0.222477 -0.158425
C46   C     C_R   0.400269 0.199759 0.208998 -0.080335
C47   C     C_R   0.906971 0.299196 0.205152 -0.042723
C48   C     C_R   0.848217 0.669665 0.220943 -0.140223
C49   C     C_3   0.628944 0.779047 0.527144 -0.395583
C50   C     C_R   0.662762 0.911556 0.061365 -0.176786
C51   C     C_3   0.701820 0.246129 0.570123 -0.401338
C52   C     C_3   0.304950 0.374381 0.476452 -0.396420
C53   C     C_3   0.145569 0.707437 0.517603 -0.422926
C54   C     C_2   0.285845 0.691195 0.935541 -0.391229
C55   C     C_2   0.184593 0.256487 0.104028 -0.399298
C56   C     C_2   0.718340 0.233630 0.054951 -0.358554
C57   C     C_2   0.762991 0.799099 0.990509 -0.375119
C58   C     C_2   0.714415 0.312925 0.049473 0.547721
C59   C     C_2   0.814133 0.750387 0.907468 0.544843
C60   C     C_2   0.274981 0.770934 0.945543 0.532816
C61   C     C_R   0.642552 0.103534 0.091843 -0.158079
C62   C     C_2   0.207273 0.183314 0.060378 0.529586
C63   C     C_R   0.356476 0.893934 0.908818 -0.198924
C64   C     C_R   0.328779 0.086456 0.955237 -0.198488
C65   C     C_R   0.830608 0.414755 0.950645 -0.190458
C66   C     C_R   0.869654 0.612944 0.893351 -0.201859
C67   C     C_R   0.407445 0.107321 0.303313 -0.142633
C68   C     C_R   0.365397 0.915508 0.316869 -0.136101
C69   C     C_R   0.858002 0.577297 0.314695 -0.135085
C70   C     C_R   0.910447 0.391908 0.301639 -0.156265
C71   C     C_R   0.287021 0.149234 0.026962 -0.145149
C72   C     C_R   0.131293 0.393280 0.105995 -0.164174
C73   C     C_R   0.329242 0.820745 0.954542 -0.197611
C74   C     C_R   0.854761 0.690384 0.926587 -0.209995
C75   C     C_R   0.785430 0.357300 0.027781 -0.230525
C76   C     C_R   0.321986 0.849694 0.324669 -0.032598
C77   C     C_R   0.391811 0.185774 0.302613 -0.040372
C78   C     C_R   0.897867 0.312857 0.299444 -0.060114
C79   C     C_R   0.806674 0.636204 0.323165 -0.041898
C80   C     C_R   0.632494 0.197399 0.996827 -0.089427
C81   C     C_R   0.654252 0.816012 0.964686 -0.060797
C82   C     C_R   0.165893 0.666523 0.934994 -0.026056
C83   C     C_R   0.173868 0.580851 0.038962 -0.164309
C84   C     C_R   0.122544 0.299366 0.010696 -0.112809
C85   C     C_R   0.602981 0.800847 0.790570 -0.109357
C86   C     C_R   0.650528 0.171404 0.779184 -0.160063
C87   C     C_R   0.150853 0.329392 0.780380 -0.142063
C88   C     C_R   0.102413 0.698501 0.790306 -0.199913
C89   C     C_R   0.641744 0.077284 0.684911 -0.131365
C90   C     C_R   0.592828 0.893013 0.696976 -0.144046
C91   C     C_R   0.090309 0.606273 0.698806 -0.141748
C92   C     C_R   0.142240 0.422830 0.685259 -0.134417
C93   C     C_3   0.405667 0.297978 0.004169 0.243250
C94   C     C_R   0.665350 0.180212 0.049900 0.163252
C95   C     C_3   0.390612 0.383265 0.042734 -0.926330
C96   C     C_3   0.279241 0.710883 0.138932 0.220243
C97   C     C_3   0.282387 0.627314 0.172364 -0.929493
C98   C     C_3   0.947227 0.821563 0.949214 0.267359
C99   C     C_3   0.915771 0.906067 0.983052 -0.938310
C100  C     C_3   0.732287 0.301604 0.238552 0.286052
C101  C     C_3   0.684094 0.228017 0.303638 -0.976209
C102  C     C_3   0.612062 0.408569 0.128447 0.268863
C103  C     C_3   0.540746 0.443003 0.130610 -0.928484
C104  C     C_3   0.899892 0.758994 0.723077 0.291534
H1    H     H_    0.232781 0.231351 0.405365 0.165395
H2    H     H_    0.353394 0.798384 0.459044 0.157833
H3    H     H_    0.861603 0.821758 0.638260 0.261579
H4    H     H_    0.965650 0.778832 0.551521 0.209536
H5    H     H_    0.873784 0.716126 0.614727 0.253404
H6    H     H_    0.173304 0.894737 0.069127 0.098546
H7    H     H_    0.137028 0.795813 0.123156 0.064602
H8    H     H_    0.039664 0.797230 0.076364 0.258372
H9    H     H_    0.021455 0.881490 0.159329 0.209719
H10   H     H_    0.077240 0.893558 0.015189 0.258960
H11   H     H_    0.064096 0.130184 0.191082 0.074936
H12   H     H_    0.130014 0.044263 0.120682 0.093350
H13   H     H_    0.851475 0.703497 0.435803 0.158241
H14   H     H_    0.077068 0.039081 0.010167 0.265911
H15   H     H_    0.992405 0.032209 0.153949 0.216110
H16   H     H_    0.010909 0.123715 0.083307 0.246097
H17   H     H_    0.349577 0.921012 0.851672 0.145211
H18   H     H_    0.306482 0.051002 0.919459 0.160672
H19   H     H_    0.813192 0.446871 0.906899 0.147811
H20   H     H_    0.864811 0.586486 0.833934 0.139934
H21   H     H_    0.238699 0.152918 0.477933 0.154117
H22   H     H_    0.239464 0.907727 0.533170 0.145177
H23   H     H_    0.741082 0.588879 0.531700 0.146609
H24   H     H_    0.919054 0.151772 0.325536 0.154767
H25   H     H_    0.948816 0.249756 0.419169 0.150533
H26   H     H_    0.771124 0.775026 0.588716 0.171211
H27   H     H_    0.828860 0.077237 0.477462 0.152036
H28   H     H_    0.280723 0.227275 0.650884 0.153834
H29   H     H_    0.265011 0.730281 0.613226 0.158705
H30   H     H_    0.714728 0.769652 0.352746 0.153445
H31   H     H_    0.732500 0.286258 0.420332 0.170840
H32   H     H_    0.428551 0.339338 0.331099 0.164532
H33   H     H_    0.166501 0.903389 0.501901 0.153205
H34   H     H_    0.244822 0.709584 0.349150 0.165224
H35   H     H_    0.642076 0.688846 0.416966 0.154533
H36   H     H_    0.754244 0.356462 0.486165 0.150730
H37   H     H_    0.345880 0.341741 0.316582 0.153924
H38   H     H_    0.169235 0.788304 0.393953 0.151079
H39   H     H_    0.561070 0.764158 0.571740 0.155972
H40   H     H_    0.674010 0.287228 0.640125 0.153818
H41   H     H_    0.263897 0.412075 0.467918 0.148754
H42   H     H_    0.079407 0.719321 0.550026 0.152425
H43   H     H_    0.637384 0.841965 0.502655 0.147019
H44   H     H_    0.657417 0.584635 0.519534 0.152394
H45   H     H_    0.648513 0.219932 0.574602 0.157764
H46   H     H_    0.344736 0.414203 0.485439 0.152067
H47   H     H_    0.158334 0.643712 0.496644 0.152166
H48   H     H_    0.436864 0.229815 0.434956 0.156192
H49   H     H_    0.355407 0.717321 0.382744 0.156208
H50   H     H_    0.839970 0.777829 0.363632 0.160311
H51   H     H_    0.834834 0.164844 0.316362 0.157049
H52   H     H_    0.363176 0.756341 0.203212 0.159012
H53   H     H_    0.402020 0.257022 0.178210 0.142494
H54   H     H_    0.911508 0.242101 0.170944 0.132599
H55   H     H_    0.880113 0.332249 0.490666 0.147377
H56   H     H_    0.828094 0.720570 0.201570 0.165460
H57   H     H_    0.760597 0.849916 0.516258 0.156032
H58   H     H_    0.745002 0.100420 0.469254 0.150919
H59   H     H_    0.355676 0.306472 0.588342 0.155608
H60   H     H_    0.266765 0.649162 0.537331 0.155103
H61   H     H_    0.337939 0.663741 0.928795 0.172183
H62   H     H_    0.206754 0.281156 0.146542 0.190549
H63   H     H_    0.767957 0.204736 0.052206 0.176115
H64   H     H_    0.758732 0.799418 0.063425 0.170861
H65   H     H_    0.413520 0.076730 0.359061 0.087841
H66   H     H_    0.159558 0.222963 0.632512 0.158509
H67   H     H_    0.357292 0.950783 0.380429 0.088691
H68   H     H_    0.849307 0.541801 0.378166 0.090145
H69   H     H_    0.915117 0.422703 0.358740 0.091407
H70   H     H_    0.632822 0.252160 0.961598 0.152767
H71   H     H_    0.661472 0.761318 0.923902 0.138390
H72   H     H_    0.181631 0.709224 0.874336 0.146224
H73   H     H_    0.116056 0.244144 0.982254 0.165454
H74   H     H_    0.607006 0.744944 0.820375 0.098719
H75   H     H_    0.668767 0.223949 0.799334 0.091299
H76   H     H_    0.169173 0.278507 0.803160 0.100369
H77   H     H_    0.150561 0.840779 0.685827 0.152734
H78   H     H_    0.114169 0.753369 0.813840 0.089407
H79   H     H_    0.651621 0.040982 0.621179 0.089289
H80   H     H_    0.586022 0.922434 0.641182 0.086586
H81   H     H_    0.081300 0.576264 0.645195 0.083927
H82   H     H_    0.151918 0.457891 0.620823 0.088910
H83   H     H_    0.679981 0.942097 0.106448 0.107994
H84   H     H_    0.651904 0.077137 0.147051 0.099338
H85   H     H_    0.134718 0.420107 0.166440 0.098043
H86   H     H_    0.196548 0.549252 0.076919 0.113816
H87   H     H_    0.409628 0.296323 0.929406 0.096757
H88   H     H_    0.663414 0.661038 0.681206 0.153797
H89   H     H_    0.466774 0.277975 0.984186 0.098576
H90   H     H_    0.384887 0.387647 0.118204 0.250775
H91   H     H_    0.444152 0.420621 0.979514 0.221620
H92   H     H_    0.331563 0.405492 0.058976 0.254518
H93   H     H_    0.233588 0.710471 0.121503 0.090270
H94   H     H_    0.250701 0.752099 0.207945 0.072489
H95   H     H_    0.326280 0.624046 0.193596 0.251341
H96   H     H_    0.218455 0.608922 0.243438 0.210928
H97   H     H_    0.304761 0.585838 0.104433 0.258347
H98   H     H_    0.962881 0.810282 0.868184 0.059483
H99   H     H_    0.864386 0.172971 0.572323 0.154669
H100  H     H_    0.005316 0.817603 0.942855 0.122771
H101  H     H_    0.900099 0.918721 0.063587 0.266517
H102  H     H_    0.965760 0.947665 0.922936 0.217489
H103  H     H_    0.859024 0.915839 0.987132 0.255395
H104  H     H_    0.689146 0.336468 0.230929 0.048982
H105  H     H_    0.745246 0.339938 0.284609 0.098862
H106  H     H_    0.724747 0.188977 0.311038 0.260607
H107  H     H_    0.627985 0.245208 0.385889 0.213129
H108  H     H_    0.662359 0.194603 0.263309 0.257187
H109  H     H_    0.576339 0.658858 0.675256 0.158770
H110  H     H_    0.357056 0.154649 0.501326 0.148323
H111  H     H_    0.800185 0.258098 0.642660 0.150069
H112  H     H_    0.150452 0.299727 0.560880 0.156197
H113  H     H_    0.075664 0.833417 0.658264 0.142265
H114  H     H_    0.656043 0.457360 0.111172 0.101551
H115  H     H_    0.584334 0.383189 0.209768 0.073092
H116  H     H_    0.496950 0.395338 0.144511 0.251132
H117  H     H_    0.505326 0.487211 0.196775 0.212063
H118  H     H_    0.566675 0.472123 0.052166 0.261792
H119  H     H_    0.938817 0.706438 0.708507 0.087923
H120  H     H_    0.928599 0.812726 0.730065 0.077491
N1    N     N_R   0.408680 0.130160 0.995800 -0.101009
N2    N     N_R   0.403730 0.078230 0.935950 -0.070226
N3    N     N_R   0.903730 0.421770 0.935950 -0.065722
N4    N     N_R   0.903730 0.578230 0.935950 -0.061403
N5    N     N_R   0.426630 0.075970 0.212960 -0.037208
N6    N     N_R   0.426630 0.924030 0.212960 -0.036603
N7    N     N_R   0.926630 0.575970 0.212960 -0.037766
N8    N     N_R   0.926630 0.424030 0.212960 -0.039990
N9    N     N_R   0.591320 0.134600 0.004200 -0.057915
N10   N     N_R   0.591320 0.865400 0.004200 -0.063172
N11   N     N_R   0.091320 0.634600 0.004200 -0.063282
N12   N     N_R   0.408680 0.869840 0.995800 -0.077002
N13   N     N_R   0.091320 0.365400 0.004200 -0.058576
N14   N     N_R   0.578320 0.867660 0.846880 -0.038039
N15   N     N_R   0.578320 0.132340 0.846880 -0.048470
N16   N     N_R   0.078320 0.367660 0.846880 -0.041297
N17   N     N_R   0.078320 0.632340 0.846880 -0.039583
N18   N     N_R   0.573370 0.074390 0.787040 -0.034762
N19   N     N_R   0.573370 0.925610 0.787040 -0.031104
N20   N     N_R   0.073370 0.574390 0.787040 -0.027507
N21   N     N_R   0.073370 0.425610 0.787040 -0.035043
N22   N     N_R   0.596270 0.927870 0.064040 -0.043591
N23   N     N_R   0.908680 0.630160 0.995800 -0.078738
N24   N     N_R   0.596270 0.072130 0.064040 -0.036552
N25   N     N_R   0.096270 0.427870 0.064040 -0.036905
N26   N     N_R   0.096270 0.572130 0.064040 -0.046744
N27   N     N_R   0.908680 0.369840 0.995800 -0.084886
N28   N     N_R   0.421680 0.867580 0.153120 -0.035375
N29   N     N_R   0.421680 0.132420 0.153120 -0.043544
N30   N     N_R   0.921680 0.367580 0.153120 -0.042692
N31   N     N_R   0.921680 0.632420 0.153120 -0.034469
N32   N     N_R   0.403730 0.921770 0.935950 -0.064098
Ni1   Ni    Ni4+2 0.500000 0.131190 0.000000 0.200811
Ni2   Ni    Ni4+2 0.500000 0.868810 0.000000 0.242043
Ni3   Ni    Ni4+2 1.000000 0.631190 0.000000 0.222329
Ni4   Ni    Ni4+2 0.000000 0.368810 0.000000 0.215464
Ni5   Ni    Ni4+2 0.488650 0.000000 0.862740 0.192817
Ni6   Ni    Ni4+2 0.988650 0.500000 0.862740 0.190098
Ni7   Ni    Ni4+2 0.511350 0.000000 0.137260 0.203335
Ni8   Ni    Ni4+2 0.011350 0.500000 0.137260 0.197407
O1    O     O_3   0.338754 0.250801 0.087324 -0.673919
O2    O     O_3   0.362269 0.735091 0.051566 -0.647774
O3    O     O_3   0.887618 0.768929 0.031186 -0.681381
O4    O     O_3   0.810186 0.279466 0.139237 -0.668646
O5    O     O_3   0.653105 0.349592 0.047799 -0.644821
O6    O     O_3   0.816082 0.748589 0.816700 -0.636937
O7    O     O_3   0.209023 0.807881 0.953981 -0.643290
O8    O     O_3   0.165764 0.144973 0.026633 -0.644000

loop_
_geom_bond_atom_site_label_1
_geom_bond_atom_site_label_2
_ccdc_geom_bond_type
C3    C104  S    
N11   N26   A    
N7    Ni8   S    
C89   N18   A    
C10   C85   A    
N17   Ni3   S    
C95   H92   S    
C80   N9    A    
C102  O5    S    
C41   H57   S    
C5    H10   S    
C70   C78   A    
C8    C83   A    
C20   H113  S    
C97   H95   S    
C83   H86   S    
C84   N13   A    
C67   C77   A    
C9    C72   A    
C23   H48   S    
C51   H45   S    
C28   C74   A    
C64   N2    A    
C100  H104  S    
C2    C57   S    
N28   Ni2   S    
C21   C36   S    
C54   C60   D    
C51   H40   S    
C67   H65   S    
C61   N24   A    
C96   H94   S    
C48   H56   S    
C58   O5    S    
C65   N3    A    
C1    C71   A    
C30   H37   S    
C22   H99   S    
C99   H101  S    
C45   C76   A    
C8    C82   A    
C81   H71   S    
C48   C79   A    
C98   H100  S    
C43   H28   S    
C56   H63   S    
C85   N14   A    
C15   C33   S    
C69   N7    A    
C45   N28   A    
C41   H26   S    
C37   C51   S    
C68   H67   S    
C92   H82   S    
C57   C59   D    
C93   O1    S    
C16   H23   S    
N21   Ni6   S    
C11   C86   A    
C66   C74   A    
C55   C62   D    
C60   C73   S    
C23   C43   S    
C49   H43   S    
C19   H112  S    
C64   C71   A    
C37   C42   S    
C11   C37   S    
C86   H75   S    
C13   C40   S    
C4    H6    S    
C18   H55   S    
C2    C50   A    
C16   C34   S    
C32   C77   S    
C104  H120  S    
C14   H1    S    
C91   N20   A    
C68   N6    A    
C85   H74   S    
C28   O3    S    
C15   H22   S    
C10   C36   S    
C19   H66   S    
C42   H27   S    
C9    C55   S    
C3    H4    S    
C39   C75   A    
C72   N25   A    
N7    N31   A    
C18   C35   S    
C104  H119  S    
C27   H35   S    
C103  H116  S    
N24   Ni7   S    
C4    O7    S    
C93   H87   S    
C91   H81   S    
C64   H18   S    
C93   C95   S    
C18   C22   S    
N32   Ni5   S    
C13   C91   A    
C17   C73   A    
C7    H14   S    
N13   N25   A    
C36   C41   S    
C96   H93   S    
N6    N28   A    
C50   H83   S    
C7    H16   S    
C26   H51   S    
C63   H17   S    
N4    Ni6   S    
C58   C75   S    
C86   N15   A    
C70   N8    A    
N5    Ni7   S    
C27   C34   S    
C96   O2    S    
C15   C20   S    
N31   Ni3   S    
C99   H102  S    
C6    O8    S    
C7    H15   S    
N8    N30   A    
C47   H54   S    
C47   N30   A    
C24   H2    S    
C8    C54   S    
C88   N17   A    
C57   H64   S    
C52   H41   S    
C61   C94   A    
C21   H88   S    
N9    Ni1   S    
C63   C73   A    
C3    H3    S    
C46   H53   S    
C16   C21   S    
N14   N19   A    
C46   N29   A    
C101  H107  S    
C59   O6    S    
C99   H103  S    
C31   H34   S    
C69   H68   S    
C56   C94   S    
C17   O2    S    
C19   C38   S    
C90   N19   A    
C34   C79   S    
C11   C89   A    
C33   C76   S    
C88   H78   S    
C63   N32   A    
C59   C74   S    
N30   Ni4   S    
C98   O3    S    
N26   Ni8   S    
C96   C97   S    
N13   Ni4   S    
C31   C33   S    
N1    N2    A    
C47   C78   A    
C39   N27   A    
C45   H52   S    
C26   H24   S    
C100  H105  S    
N12   N32   A    
C48   N31   A    
C14   H21   S    
N2    Ni5   S    
C6    H12   S    
C102  H115  S    
N27   Ni4   S    
N4    N23   A    
N11   Ni3   S    
C29   H31   S    
C4    H7    S    
C82   H72   S    
C98   C99   S    
C95   H90   S    
C30   H32   S    
C83   N26   A    
N15   Ni1   S    
N16   N21   A    
C24   C44   S    
C65   H19   S    
C66   H20   S    
C31   C53   S    
N20   Ni6   S    
C54   H61   S    
C80   C94   A    
C89   H79   S    
C72   H85   S    
N19   Ni5   S    
C24   H49   S    
C26   C42   S    
N3    N27   A    
C29   C51   S    
C17   N12   A    
C1    N1    A    
C44   H29   S    
N10   Ni2   S    
C29   H36   S    
C30   C52   S    
N6    Ni7   S    
C95   H91   S    
C87   N16   A    
N8    Ni8   S    
C12   C87   A    
C5    H9    S    
C25   H50   S    
C39   O4    S    
C27   H30   S    
N12   Ni2   S    
C14   C19   S    
C12   C92   A    
C93   H89   S    
C90   H80   S    
C4    C5    S    
C2    C81   A    
C25   H13   S    
C101  H108  S    
C46   C77   A    
N23   Ni3   S    
C92   N21   A    
C42   H58   S    
N9    N24   A    
C6    C7    S    
C5    H8    S    
C97   H97   S    
C101  H106  S    
C68   C76   A    
C100  O4    S    
C29   C35   S    
C25   C34   S    
C35   C78   S    
C98   H98   S    
C24   C33   S    
C65   C75   A    
C16   H44   S    
N17   N20   A    
C23   C32   S    
C31   H38   S    
C80   H70   S    
C38   C43   S    
C103  H118  S    
C50   N22   A    
C103  H117  S    
C30   C32   S    
C22   C37   S    
C97   H96   S    
C60   O7    S    
C3    H5    S    
C20   C40   S    
C49   H39   S    
C13   C88   A    
C53   H42   S    
N18   Ni5   S    
C56   C58   D    
C62   C71   S    
N14   Ni2   S    
N15   N18   A    
C21   H109  S    
C61   H84   S    
N25   Ni8   S    
C12   C38   S    
C102  C103  S    
C87   H76   S    
C70   H69   S    
C104  O6    S    
C6    H11   S    
C69   C79   A    
C102  H114  S    
C9    C84   A    
N1    Ni1   S    
C84   H73   S    
N22   Ni7   S    
N29   Ni1   S    
C26   C35   S    
C40   C44   S    
C10   C90   A    
C1    O1    S    
N5    N29   A    
C67   N5    A    
C82   N11   A    
C52   H46   S    
C40   C53   S    
C66   N4    A    
C53   H47   S    
C38   C52   S    
C81   N10   A    
C25   C41   S    
C18   H25   S    
C100  C101  S    
C44   H60   S    
C55   H62   S    
C15   H33   S    
C22   H111  S    
C14   C32   S    
C28   N23   A    
N10   N22   A    
C36   C49   S    
C27   C49   S    
N3    Ni6   S    
C62   O8    S    
C20   H77   S    
N16   Ni4   S    
C23   H110  S    
C43   H59   S    
