data_mof_unit_7978.cif
_audit_creation_date              2013-03-05T16:01:06-0500
_audit_creation_method            fapswitch 2.2
_symmetry_space_group_name_H-M    P1
_symmetry_Int_Tables_number       1
_space_group_crystal_system       triclinic
_cell_length_a                    8.233253
_cell_length_b                    13.135248
_cell_length_c                    18.571879
_cell_angle_alpha                 99.911197
_cell_angle_beta                  90.539435
_cell_angle_gamma                 100.431195
_cell_volume                      1944.08997625

loop_
_atom_site_label
_atom_site_type_symbol
_atom_site_description
_atom_site_fract_x
_atom_site_fract_y
_atom_site_fract_z
_atom_type_partial_charge
P1    P     P_3+3 0.041040 0.394770 0.336330 0.453390
O1    O     O_2   0.873090 0.425890 0.325140 -0.370305
O2    O     O_3   0.122420 0.434370 0.414380 -0.425865
O3    O     O_3   0.659500 0.627100 0.368810 -0.365739
O4    O     O_2   0.794055 0.545587 0.248903 -0.372942
O5    O     O_3   0.980093 0.259339 0.325108 -0.575115
O6    O     O_3   0.736036 0.731742 0.249441 -0.465985
H1    H     H_    0.585188 0.808150 0.319278 0.053657
C1    C     C_3   0.674804 0.899018 0.236832 -0.069586
H2    H     H_    0.798986 0.932694 0.261711 0.164402
P2    P     P_3+3 0.672880 0.754030 0.556100 0.478062
P3    P     P_3+3 0.133469 0.818099 0.400410 0.465806
O7    O     O_2   0.848200 0.768190 0.534530 -0.350755
O8    O     O_3   0.081160 0.685950 0.404810 -0.343772
O9    O     O_2   0.003564 0.871413 0.444456 -0.374054
O10   O     O_3   0.732880 0.798087 0.649125 -0.606325
O11   O     O_3   0.083075 0.820721 0.309238 -0.480375
C2    C     C_3   0.209085 0.789262 0.265983 0.230252
H3    H     H_    0.241821 0.715970 0.279851 0.018907
H4    H     H_    0.318136 0.854042 0.274783 0.031469
C3    C     C_3   0.151066 0.765589 0.185289 -0.030362
H5    H     H_    0.018863 0.726970 0.178998 0.186140
C4    C     C_3   0.216706 0.776961 0.611787 0.422908
H6    H     H_    0.295477 0.733135 0.574898 0.012983
H7    H     H_    0.094780 0.765006 0.585002 0.155345
C5    C     C_3   0.291419 0.893980 0.624565 -0.516379
H8    H     H_    0.427268 0.905607 0.631914 0.170384
H9    H     H_    0.261811 0.927866 0.576555 0.218644
Ba1   Ba    Ba6+2 0.852780 0.548340 0.465070 1.576300
C6    C     C_3   0.959711 0.229593 0.393837 0.431063
H10   H     H_    0.857080 0.261536 0.421404 0.058111
H11   H     H_    0.072885 0.257300 0.429502 0.140267
C7    C     C_3   0.925409 0.110883 0.382800 -0.533403
H12   H     H_    0.800208 0.079736 0.356994 0.222338
H13   H     H_    0.931094 0.084536 0.436034 0.216071
C8    C     C_3   0.608915 0.769327 0.696119 0.821617
H14   H     H_    0.487236 0.752644 0.668842 0.016820
C9    C     C_3   0.611622 0.859887 0.760136 -1.000340
H15   H     H_    0.734529 0.880897 0.789515 0.293284
H16   H     H_    0.514545 0.838233 0.798749 0.242882
H17   H     H_    0.586158 0.929333 0.738975 0.222639
P4    P     P_3+3 0.148670 0.605320 0.663680 0.496112
O12   O     O_2   0.316610 0.574140 0.674900 -0.342431
O13   O     O_3   0.067290 0.565720 0.585630 -0.403739
O14   O     O_3   0.530210 0.372990 0.631200 -0.312517
O15   O     O_3   0.201575 0.741811 0.678855 -0.583872
P5    P     P_3+3 0.065188 0.181042 0.604534 0.465734
O16   O     O_3   0.611340 0.366290 0.463630 -0.390062
O17   O     O_3   0.108550 0.314140 0.595200 -0.361194
O18   O     O_2   0.177324 0.126671 0.550252 -0.373086
O19   O     O_3   0.146352 0.169229 0.690072 -0.494369
Ba2   Ba    Ba6+2 0.337060 0.451750 0.534940 1.584200
P6    P     P_3+3 0.658475 0.609541 0.273129 0.478659
C10   C     C_3   0.613954 0.793566 0.260399 0.214571
H18   H     H_    0.501779 0.754404 0.226598 0.015633
H19   H     H_    0.590469 0.953873 0.256882 0.076481
O20   O     O_3   0.578370 0.633800 0.536380 -0.359785
C11   C     C_3   0.497848 0.222678 0.308074 0.293550
H20   H     H_    0.369049 0.235986 0.311230 0.088470
H21   H     H_    0.591994 0.295316 0.315163 0.124017
C12   C     C_3   0.513782 0.162008 0.231879 -0.841945
H22   H     H_    0.426428 0.085475 0.223209 0.291637
H23   H     H_    0.483492 0.208038 0.190440 0.209007
H24   H     H_    0.642138 0.147753 0.224845 0.265604
P7    P     P_3+3 0.527449 0.228748 0.450088 0.410477
O21   O     O_2   0.341510 0.231850 0.465510 -0.387129
O22   O     O_3   0.528078 0.161794 0.359329 -0.593092
H25   H     H_    0.223045 0.709963 0.155193 0.055315
C13   C     C_3   0.032649 0.181686 0.745756 0.481683
H26   H     H_    0.906134 0.143597 0.724780 0.000286
C14   C     C_3   0.077616 0.126712 0.808690 -0.116210
H27   H     H_    0.213421 0.145017 0.820031 0.156774
H28   H     H_    0.040870 0.040484 0.791332 0.099911
P8    P     P_3+3 0.536027 0.386966 0.725221 0.546456
C15   C     C_3   0.586122 0.199828 0.732792 0.344584
H29   H     H_    0.709451 0.243940 0.722755 0.018859
O23   O     O_2   0.395548 0.447843 0.747615 -0.347207
O24   O     O_3   0.462114 0.261011 0.743299 -0.487025
H30   H     H_    0.550391 0.137081 0.684216 0.104652
H31   H     H_    0.641014 0.210936 0.848686 0.276313
C16   C     C_3   0.599654 0.149559 0.799982 -0.940721
H32   H     H_    0.690276 0.096678 0.791666 0.248266
H33   H     H_    0.478902 0.102567 0.810286 0.257238
C17   C     C_R   0.994339 0.451356 0.050874 0.055087
C18   C     C_R   0.898311 0.392147 0.097068 0.119979
C19   C     C_R   0.738256 0.340365 0.074158 -0.129144
C20   C     C_R   0.671232 0.350156 0.007346 -0.147257
C21   C     C_R   0.762464 0.412702 0.961417 0.096954
C22   C     C_R   0.927220 0.460103 0.982013 0.021141
C23   C     C_R   0.690474 0.429426 0.896182 0.127720
C24   C     C_R   0.793890 0.470074 0.842019 -0.056424
C25   C     C_R   0.960854 0.519195 0.863379 -0.010240
C26   C     C_R   0.023553 0.517474 0.934770 0.005181
C27   C     C_R   0.744368 0.456433 0.766404 0.249104
C28   C     C_R   0.861750 0.489518 0.716040 -0.373121
C29   C     C_R   0.017243 0.551194 0.737547 0.247948
C30   C     C_R   0.067407 0.567472 0.813171 -0.009995
C31   C     C_R   0.157221 0.500845 0.073361 -0.003629
C32   C     C_R   0.222860 0.493399 0.143047 0.006957
C33   C     C_R   0.120506 0.440236 0.191523 -0.067893
C34   C     C_R   0.962040 0.385657 0.165828 -0.113834
H34   H     H_    0.663830 0.292877 0.108288 0.129828
H35   H     H_    0.547703 0.306816 0.991550 0.163782
H36   H     H_    0.829075 0.469865 0.658136 0.181910
H37   H     H_    0.886110 0.337087 0.198721 0.157929
C35   C     C_R   0.223502 0.626279 0.839913 -0.142062
C36   C     C_R   0.282837 0.626956 0.911380 0.075034
C37   C     C_R   0.185902 0.568450 0.957756 0.045751
C38   C     C_R   0.252842 0.559713 0.026805 0.009568
C39   C     C_R   0.443028 0.679601 0.935586 -0.129188
C40   C     C_R   0.510890 0.667790 0.002334 -0.084517
C41   C     C_R   0.417213 0.607685 0.048320 0.093874
C42   C     C_R   0.388784 0.541242 0.164435 -0.086621
C43   C     C_R   0.485827 0.594365 0.114944 -0.226573
C44   C     C_R   0.451563 0.535421 0.234850 0.138038
C45   C     C_R   0.348776 0.480569 0.282188 -0.196810
C46   C     C_R   0.179806 0.441651 0.263747 0.233598
H38   H     H_    0.303076 0.668656 0.804709 0.159996
H39   H     H_    0.518819 0.726260 0.901470 0.184779
H40   H     H_    0.637859 0.704437 0.017236 0.190334
H41   H     H_    0.614746 0.627382 0.128035 0.190707
C47   C     C_R   0.749781 0.184381 0.550169 -0.500123
C48   C     C_R   0.443181 0.809279 0.463800 -0.454999
C49   C     C_R   0.403397 0.983401 0.451767 -0.208192
C50   C     C_R   0.347526 0.874687 0.438311 0.124250
C51   C     C_R   0.586723 0.850393 0.508632 0.230522
C52   C     C_R   0.643542 0.962766 0.523440 -0.037657
C53   C     C_R   0.550427 0.029764 0.493785 -0.025896
C54   C     C_R   0.605809 0.141603 0.507178 0.294851
C55   C     C_R   0.847548 0.120161 0.575504 0.156745
C56   C     C_R   0.792319 0.010413 0.564434 -0.247864
H42   H     H_    0.325343 0.031323 0.432607 0.188612
H43   H     H_    0.871577 0.963081 0.584023 0.187507
H44   H     H_    0.796115 0.268128 0.556657 0.157876
H45   H     H_    0.397555 0.725290 0.453701 0.153791
C57   C     C_3   0.225344 0.954223 0.691198 -0.723760
H46   H     H_    0.294670 0.035535 0.700375 0.268180
H47   H     H_    0.091511 0.952221 0.681286 0.250020
H48   H     H_    0.245799 0.922224 0.741417 0.263607
C58   C     C_3   0.054393 0.068481 0.334607 -0.685785
H49   H     H_    0.040765 0.083486 0.278091 0.290672
H50   H     H_    0.180785 0.103631 0.356782 0.242731
H51   H     H_    0.034605 0.984413 0.333147 0.293405
N1    N     N_R   0.638055 0.675036 0.720317 0.226912
O25   O     O_R   0.637513 0.592796 0.670559 -0.366614
O26   O     O_R   0.680918 0.674200 0.787800 -0.477525
N2    N     N_R   0.682982 0.887097 0.157487 0.280120
O27   O     O_R   0.786921 0.834163 0.123458 -0.348548
O28   O     O_R   0.600898 0.939312 0.121522 -0.324755
C59   C     C_3   0.040910 0.298361 0.773958 -0.782122
H52   H     H_    0.939902 0.308106 0.811756 0.196553
H53   H     H_    0.160916 0.334245 0.803376 0.276590
H54   H     H_    0.025447 0.339270 0.728022 0.218944
N3    N     N_R   0.995820 0.157225 0.876583 0.253943
O29   O     O_R   0.882765 0.088660 0.899483 -0.354264
O30   O     O_R   0.062329 0.241566 0.922252 -0.402431
C60   C     C_3   0.505717 0.422524 0.893601 -0.858547
H55   H     H_    0.475729 0.487049 0.868764 0.273483
H56   H     H_    0.440178 0.343941 0.867062 0.278552
H57   H     H_    0.457323 0.437119 0.948995 0.221644
C61   C     C_3   0.420336 0.461359 0.352760 -0.620339
H58   H     H_    0.360631 0.387169 0.368187 0.193755
H59   H     H_    0.549739 0.451303 0.347749 0.238177
H60   H     H_    0.407795 0.526220 0.398021 0.251582
N4    N     N_R   0.175485 0.860603 0.152982 0.279954
O31   O     O_R   0.106258 0.939343 0.180042 -0.357480
O32   O     O_R   0.253896 0.863075 0.092660 -0.316511

loop_
_geom_bond_atom_site_label_1
_geom_bond_atom_site_label_2
_geom_bond_distance
_ccdc_geom_bond_type
C9    H16   1.110253 S    
C20   C21   1.413018 A    
N4    O31   1.298872 A    
O3    P6    1.751808 S    
C2    C3    1.530715 S    
P8    C27   1.878348 S    
N2    O27   1.299822 A    
C58   H51   1.082189 S    
C53   C54   1.434343 A    
C41   C43   1.406375 A    
C16   H32   1.102693 S    
Ba2   O21   2.960437 S    
P5    O17   1.758828 S    
C18   C19   1.394791 A    
C37   C38   1.421840 A    
C5    H8    1.105005 S    
C51   C52   1.442563 A    
O1    Ba1   2.834640 S    
P4    C29   1.908776 S    
C13   C59   1.520840 S    
O7    Ba1   2.960199 S    
C8    H14   1.086748 S    
N2    O28   1.300122 A    
C58   H50   1.103703 S    
C2    H3    1.115259 S    
C26   C37   1.408556 A    
C6    H10   1.102160 S    
O12   Ba2   2.834963 S    
C48   C50   1.400172 A    
C35   C36   1.408027 A    
C7    C58   1.516414 S    
C11   H21   1.102508 S    
C44   C45   1.421084 A    
C3    N4    1.458486 S    
C45   C46   1.409686 A    
C49   H42   1.074768 S    
C12   H23   1.109597 S    
P1    O1    1.533250 D    
P4    O15   1.739087 S    
C4    C5    1.525323 S    
C13   C14   1.550404 S    
C39   C40   1.399102 A    
C47   H44   1.082444 S    
C61   H59   1.099908 S    
C43   H41   1.079796 S    
C60   H55   1.095576 S    
C28   C29   1.399366 A    
P7    O22   1.762419 S    
P8    O23   1.542592 D    
P3    O11   1.747122 S    
C4    H6    1.108678 S    
O16   P7    1.786832 S    
C1    H2    1.100669 S    
C47   C54   1.394573 A    
N3    O30   1.301789 A    
O3    Ba1   2.824494 S    
C6    C7    1.510811 S    
C49   C53   1.413115 A    
O13   Ba2   2.969646 S    
C11   C12   1.519180 S    
C17   C22   1.419301 A    
N4    O32   1.300558 A    
C4    O15   1.400072 S    
C3    H5    1.110397 S    
C35   H38   1.080657 S    
C27   C28   1.415122 A    
P4    O13   1.554540 S    
C57   H48   1.110175 S    
C16   H33   1.108167 S    
C25   C30   1.434824 A    
C61   H58   1.094853 S    
P5    O18   1.545044 D    
C34   H37   1.080722 S    
Ba1   O16   2.815334 S    
P1    O5    1.734063 S    
C45   C61   1.510544 S    
P2    C51   1.892076 S    
C17   C18   1.409159 A    
C9    H17   1.105246 S    
C57   H47   1.110288 S    
C38   C41   1.408018 A    
H1    C10   1.112527 S    
C24   C25   1.429615 A    
C14   H28   1.107563 S    
C19   C20   1.388676 A    
C15   C16   1.520914 S    
C48   C51   1.406106 A    
P5    O19   1.759736 S    
P3    C50   1.864440 S    
P5    C55   1.858903 S    
O14   Ba2   2.823828 S    
C11   H20   1.106012 S    
C14   N3    1.464165 S    
C1    N2    1.458331 S    
C48   H45   1.082016 S    
C40   H40   1.080541 S    
P1    O2    1.554541 S    
C12   H24   1.111198 S    
C15   H29   1.108694 S    
P2    O10   1.760663 S    
C32   C33   1.423345 A    
P3    O9    1.547238 D    
C36   C37   1.409987 A    
O17   Ba2   2.750251 S    
C29   C30   1.429194 A    
P1    Ba1   3.424876 S    
O11   C2    1.396107 S    
C1    H19   1.110685 S    
P1    C46   1.887224 S    
C58   H49   1.109107 S    
C25   C26   1.423570 A    
C59   H54   1.101497 S    
N3    O29   1.301598 A    
C20   H35   1.082476 S    
C30   C35   1.411185 A    
N1    O26   1.301229 A    
O5    C6    1.400729 S    
Ba1   O20   2.929390 S    
P7    O21   1.566563 D    
C60   H57   1.105162 S    
Ba1   O13   2.790718 S    
C36   C39   1.404044 A    
C59   H53   1.108800 S    
P4    O12   1.533626 D    
O6    P6    1.747851 S    
O8    Ba1   2.749640 S    
C52   C53   1.438318 A    
C19   H34   1.082298 S    
C61   H60   1.109077 S    
C18   C34   1.397985 A    
C28   H36   1.081356 S    
C42   C43   1.415222 A    
O4    P6    1.540479 D    
C10   H18   1.103420 S    
C21   C23   1.411607 A    
C40   C41   1.404112 A    
P3    O8    1.727417 S    
H31   C16   1.108085 S    
C56   H43   1.079357 S    
C39   H39   1.081249 S    
C32   C42   1.418415 A    
C12   H22   1.110885 S    
P7    C54   1.876960 S    
O2    Ba2   2.791371 S    
C33   C46   1.419050 A    
C5    H9    1.106514 S    
N1    O25   1.294376 A    
C17   C31   1.405604 A    
C23   C60   1.507187 S    
C8    C9    1.527102 S    
C55   C56   1.409261 A    
C8    N1    1.445921 S    
C14   H27   1.110469 S    
C3    H25   1.104506 S    
O10   C8    1.391681 S    
C24   C27   1.430600 A    
C6    H11   1.105444 S    
P2    O7    1.489277 D    
O2    Ba1   2.968745 S    
C23   C24   1.434662 A    
C9    H15   1.111084 S    
C33   C34   1.405595 A    
C7    H13   1.105508 S    
C7    H12   1.109117 S    
C2    H4    1.108867 S    
C4    H7    1.089238 S    
C22   C26   1.411038 A    
C13   H26   1.106174 S    
C15   O24   1.404724 S    
C52   C56   1.418648 A    
C5    C57   1.511625 S    
Ba2   O20   2.814742 S    
C11   O22   1.391874 S    
O16   Ba2   2.928486 S    
C21   C22   1.405851 A    
P2    Ba1   3.503639 S    
C60   H56   1.103497 S    
C31   C32   1.423416 A    
P8    O24   1.746639 S    
C31   C38   1.409904 A    
C59   H52   1.104247 S    
O14   P8    1.723346 S    
C1    C10   1.524051 S    
O19   C13   1.409993 S    
O6    C10   1.397748 S    
P2    O20   1.607543 S    
C15   H30   1.109478 S    
C47   C55   1.398667 A    
C57   H46   1.100149 S    
P6    C44   1.869155 S    
P4    Ba2   3.425482 S    
C49   C50   1.396531 A    
C42   C44   1.420973 A    
Ba1   Ba2   4.635987 S    
