data_mof_unit_36544.cif
_audit_creation_date              2012-12-10T17:47:06-0500
_audit_creation_method            fapswitch 2.2
_symmetry_space_group_name_H-M    P1
_symmetry_Int_Tables_number       1
_space_group_crystal_system       triclinic
_cell_length_a                    10.086069
_cell_length_b                    10.588309
_cell_length_c                    13.554647
_cell_angle_alpha                 93.669037
_cell_angle_beta                  82.120776
_cell_angle_gamma                 91.427987
_cell_volume                      1430.76460108

loop_
_atom_site_label
_atom_site_type_symbol
_atom_type_description
_atom_site_fract_x
_atom_site_fract_y
_atom_site_fract_z
_atom_type_partial_charge
C1    C     C_R   0.501131 0.738554 0.499027 0.837400
C2    C     C_R   0.541619 0.931283 0.412475 0.204748
C3    C     C_R   0.539435 0.061319 0.415553 -0.179835
C4    C     C_R   0.475027 0.501366 0.685446 0.833808
C5    C     C_R   0.494733 0.129103 0.504368 -0.093824
C6    C     C_R   0.858394 0.695750 0.605243 0.468744
C7    C     C_R   0.893755 0.739907 0.697680 -0.272382
C8    C     C_R   0.023865 0.719827 0.716803 -0.249313
C9    C     C_R   0.110489 0.647147 0.647457 -0.081425
C10   C     C_R   0.060406 0.574648 0.569527 0.065467
C11   C     C_R   0.920731 0.584665 0.561599 0.030836
C12   C     C_1   0.455126 0.502761 0.790037 -0.174286
C13   C     C_R   0.937813 0.426954 0.430787 0.055530
C14   C     C_R   0.082537 0.427241 0.428482 0.458602
C15   C     C_R   0.498397 0.261417 0.501347 0.882055
C16   C     C_R   0.525074 0.499823 0.314619 0.888835
C17   C     C_1   0.545001 0.499830 0.210136 -0.145229
C18   C     C_2   0.558195 0.500670 0.017596 -0.170022
C19   C     C_2   0.441801 0.504321 0.982764 -0.139804
C20   C     C_1   0.443626 0.503741 0.878456 -0.004046
C21   C     C_1   0.556414 0.500066 0.121803 0.019003
C22   C     C_3   0.581411 0.859675 0.312668 -0.412051
C23   C     C_R   0.415753 0.878661 0.682541 -0.158293
C24   C     C_3   0.459050 0.830435 0.259777 -0.835920
C25   C     C_3   0.871972 0.353359 0.350187 -0.264550
C26   C     C_3   0.885366 0.419431 0.251384 -0.712566
C27   C     C_R   0.370265 0.949006 0.770636 -0.141805
C28   C     C_R   0.364531 0.080207 0.771129 -0.120637
C29   C     C_R   0.404824 0.141315 0.683607 -0.155095
C30   C     C_R   0.450891 0.071164 0.593672 0.090762
C31   C     C_R   0.455450 0.939211 0.592698 0.096356
C32   C     C_R   0.501186 0.871558 0.501704 -0.041803
H1    H     H_    0.346817 0.507142 0.031652 0.193678
H2    H     H_    0.570699 0.110418 0.348088 0.127336
H3    H     H_    0.018028 0.945009 0.579941 0.362480
H4    H     H_    0.366282 0.248715 0.271713 0.355932
H5    H     H_    0.386654 0.768906 0.304677 0.286846
H6    H     H_    0.409124 0.919479 0.247812 0.278966
H7    H     H_    0.490503 0.780543 0.186046 0.253142
H8    H     H_    0.654416 0.916894 0.264214 0.222686
H9    H     H_    0.632405 0.770300 0.321348 0.237871
H10   H     H_    0.865911 0.522223 0.265579 0.268211
H11   H     H_    0.984776 0.408979 0.206789 0.301921
H12   H     H_    0.836757 0.814390 0.741381 0.173914
H13   H     H_    0.811448 0.377454 0.204550 0.211842
H14   H     H_    0.898022 0.252457 0.342719 0.223627
H15   H     H_    0.766862 0.340710 0.372422 0.241262
H16   H     H_    0.061311 0.770556 0.779471 0.169325
H17   H     H_    0.214106 0.651049 0.655781 0.189255
H18   H     H_    0.653170 0.497704 0.968706 0.163601
H19   H     H_    0.420211 0.777116 0.685723 0.110255
H20   H     H_    0.339777 0.901579 0.838707 0.141009
H21   H     H_    0.329412 0.134853 0.839553 0.148957
H22   H     H_    0.399566 0.243268 0.687001 0.129616
N1    N     N_R   0.857120 0.501200 0.500900 -0.150364
N2    N     N_R   0.142720 0.501280 0.500940 -0.178471
O1    O     O_R   0.385310 0.683220 0.500000 -0.629315
O2    O     O_2   0.764642 0.919218 0.563366 -0.344596
O3    O     O_3   0.020083 0.889825 0.517932 -0.509582
O4    O     O_2   0.106580 0.241575 0.269301 -0.326613
O5    O     O_2   0.219606 0.443339 0.244864 -0.336891
O6    O     O_3   0.319140 0.272829 0.339081 -0.520023
O7    O     O_R   0.614640 0.683250 0.500010 -0.560544
O8    O     O_R   0.368830 0.499960 0.640340 -0.650563
O9    O     O_R   0.598160 0.499980 0.640350 -0.607231
O10   O     O_R   0.385360 0.316750 0.499990 -0.542222
O11   O     O_R   0.614690 0.316780 0.500000 -0.644314
O12   O     O_R   0.401840 0.500020 0.359650 -0.505410
O13   O     O_R   0.631170 0.500040 0.359660 -0.643743
O14   O     O_2   0.846916 0.773951 0.420131 -0.274119
S1    S     S_3+6 0.866945 0.821376 0.524015 0.037298
S2    S     S_3+6 0.180853 0.345621 0.319854 0.036514
Zn1   Zn    Zn3+2 0.346870 0.499980 0.499990 1.013465
Zn2   Zn    Zn3+2 0.653130 0.500020 0.500010 0.965734

loop_
_geom_bond_atom_site_label_1
_geom_bond_atom_site_label_2
_ccdc_geom_bond_type
C2    C22   S    
C16   O13   A    
C14   N2    A    
O8    Zn1   S    
C8    H16   S    
C6    C7    A    
C16   O12   A    
O7    Zn2   S    
C1    O1    A    
C4    C12   S    
C18   C21   S    
C10   N2    A    
C9    C10   A    
C25   H15   S    
C23   H19   S    
C19   C20   S    
C26   H13   S    
C28   H21   S    
C11   N1    A    
C22   H8    S    
C12   C20   T    
C27   C28   A    
C24   H5    S    
O12   Zn1   S    
C3    C5    A    
O6    S2    S    
O13   Zn2   S    
N1    Zn2   S    
O11   Zn2   S    
C7    H12   S    
C15   O10   A    
C18   H18   S    
C6    S1    S    
H4    O6    S    
C1    O7    A    
O5    S2    D    
C2    C32   A    
C28   C29   A    
C26   H11   S    
C2    C3    A    
C23   C27   A    
C30   C31   A    
C22   C24   S    
O2    S1    D    
C5    C15   S    
C22   H9    S    
O14   S1    D    
C10   C11   A    
O4    S2    D    
C29   C30   A    
C24   H6    S    
C15   O11   A    
C7    C8    A    
C24   H7    S    
C9    H17   S    
C27   H20   S    
C26   H10   S    
H3    O3    S    
C5    C30   A    
C19   H1    S    
C29   H22   S    
O1    Zn1   S    
C6    C11   A    
C4    O8    A    
C4    O9    A    
C18   C19   D    
N2    Zn1   S    
C3    H2    S    
C13   N1    A    
C25   C26   S    
C13   C14   A    
O10   Zn1   S    
C14   S2    S    
C25   H14   S    
C1    C32   S    
C17   C21   T    
O9    Zn2   S    
C31   C32   A    
C16   C17   S    
O3    S1    S    
C8    C9    A    
C13   C25   S    
C23   C31   A    
