data_mof_unit_36789.cif
_audit_creation_date              2012-12-10T17:02:20-0500
_audit_creation_method            fapswitch 2.2
_symmetry_space_group_name_H-M    P1
_symmetry_Int_Tables_number       1
_space_group_crystal_system       triclinic
_cell_length_a                    10.674614
_cell_length_b                    10.687596
_cell_length_c                    10.033748
_cell_angle_alpha                 90.510282
_cell_angle_beta                  90.071178
_cell_angle_gamma                 89.643553
_cell_volume                      1144.64143659

loop_
_atom_site_label
_atom_site_type_symbol
_atom_type_description
_atom_site_fract_x
_atom_site_fract_y
_atom_site_fract_z
_atom_type_partial_charge
C1    C     C_R   0.502425 0.262432 0.498879 0.824518
C2    C     C_2   0.516532 0.129982 0.492833 0.059343
C3    C     C_2   0.566014 0.576974 0.925780 -0.099882
C4    C     C_R   0.260790 0.495368 0.499830 0.869271
C5    C     C_2   0.559543 0.582073 0.075720 -0.097917
C6    C     C_R   0.490811 0.737042 0.500734 0.952183
C7    C     C_R   0.739703 0.496692 0.500360 0.908764
C8    C     C_R   0.132802 0.299402 0.642425 -0.211844
C9    C     C_R   0.069357 0.214409 0.721425 -0.153058
C10   C     C_R   0.939575 0.219566 0.729988 0.212681
C11   C     C_R   0.872572 0.307304 0.655431 -0.217461
C12   C     C_R   0.067017 0.394381 0.573450 0.105471
C13   C     C_R   0.935659 0.397202 0.577089 0.037171
C14   C     C_3   0.727447 0.047182 0.494478 -0.678068
C15   C     C_R   0.128893 0.486326 0.499091 -0.127426
C16   C     C_R   0.065135 0.575811 0.425662 -0.219645
C17   C     C_R   0.937156 0.579015 0.426697 0.154343
C18   C     C_R   0.872409 0.490099 0.501581 -0.150884
C19   C     C_2   0.452745 0.932668 0.392390 -0.154862
C20   C     C_2   0.463026 0.867371 0.504134 -0.284675
C21   C     C_2   0.447946 0.067450 0.401839 -0.181921
H1    H     H_    0.115626 0.646350 0.370606 0.177707
H2    H     H_    0.452324 0.911566 0.601558 0.177534
H3    H     H_    0.385840 0.116396 0.333607 0.150546
H4    H     H_    0.631193 0.117033 0.658485 0.248096
H5    H     H_    0.795700 0.996992 0.558504 0.261963
H6    H     H_    0.769830 0.136128 0.460742 0.223907
H7    H     H_    0.707581 0.987243 0.406183 0.275063
H8    H     H_    0.627253 0.642930 0.876979 0.178387
H9    H     H_    0.437972 0.443696 0.897228 0.167979
H10   H     H_    0.608859 0.657404 0.125834 0.188302
H11   H     H_    0.460619 0.425983 0.101388 0.167915
H12   H     H_    0.233460 0.289609 0.636450 0.158369
H13   H     H_    0.121463 0.144653 0.776493 0.163212
H14   H     H_    0.771840 0.303378 0.660719 0.174032
H15   H     H_    0.452004 0.888633 0.294385 0.181693
I1    I     I_    0.846344 0.095972 0.858956 -0.401789
I2    I     I_    0.850897 0.729600 0.322182 -0.381893
N1    N     N_2   0.501340 0.501330 0.852150 -0.192641
N2    N     N_2   0.501380 0.501360 0.147810 -0.190801
N3    N     N_2   0.613851 0.072450 0.568986 -0.313405
O1    O     O_R   0.499980 0.319060 0.613040 -0.634448
O2    O     O_R   0.500020 0.319100 0.386900 -0.613636
O3    O     O_R   0.316750 0.499980 0.613090 -0.615246
O4    O     O_R   0.316790 0.500020 0.386950 -0.613611
O5    O     O_R   0.499980 0.680900 0.613100 -0.609743
O6    O     O_R   0.500020 0.680940 0.386960 -0.607593
O7    O     O_R   0.683210 0.499980 0.613050 -0.614796
O8    O     O_R   0.683250 0.500020 0.386910 -0.578801
Zn1   Zn    Zn3+2 0.499970 0.499970 0.650990 0.955498
Zn2   Zn    Zn3+2 0.500030 0.500030 0.349010 0.972095

loop_
_geom_bond_atom_site_label_1
_geom_bond_atom_site_label_2
_ccdc_geom_bond_type
C16   H1    S    
C20   H2    S    
C14   H6    S    
N2    Zn2   S    
C6    C20   S    
C9    C10   A    
O5    Zn1   S    
C19   C20   D    
C12   C15   A    
C8    C12   A    
C7    C18   S    
C7    O7    A    
C2    C21   D    
O7    Zn1   S    
C17   C18   A    
C3    N1    D    
C14   H5    S    
C11   C13   A    
O2    Zn2   S    
C14   N3    S    
C13   C18   A    
O1    Zn1   S    
C10   I1    S    
C11   H14   S    
C19   C21   S    
H9    N1    S    
C17   I2    S    
H11   N2    S    
C4    C15   S    
C6    O5    A    
C9    H13   S    
C21   H3    S    
C6    O6    A    
O4    Zn2   S    
C2    N3    S    
O3    Zn1   S    
C4    O4    A    
C3    C5    S    
C1    O1    A    
N1    Zn1   S    
C12   C13   A    
C7    O8    A    
C1    C2    S    
C10   C11   A    
C5    N2    D    
H4    N3    S    
C3    H8    S    
O8    Zn2   S    
C16   C17   A    
O6    Zn2   S    
C8    H12   S    
C4    O3    A    
C14   H7    S    
C19   H15   S    
C1    O2    A    
C15   C16   A    
C8    C9    A    
C5    H10   S    
