data_mof_unit_14164.cif
_audit_creation_date              2012-12-11T17:37:55-0500
_audit_creation_method            fapswitch 2.2
_symmetry_space_group_name_H-M    P1
_symmetry_Int_Tables_number       1
_space_group_crystal_system       triclinic
_cell_length_a                    13.065065
_cell_length_b                    13.004308
_cell_length_c                    15.426507
_cell_angle_alpha                 116.988267
_cell_angle_beta                  63.672141
_cell_angle_gamma                 97.584592
_cell_volume                      2085.41216276

loop_
_atom_site_label
_atom_site_type_symbol
_atom_type_description
_atom_site_fract_x
_atom_site_fract_y
_atom_site_fract_z
_atom_type_partial_charge
C1    C     C_R   0.023217 0.835262 0.031667 -0.123783
C2    C     C_R   0.687990 0.472257 0.317092 0.050472
C3    C     C_R   0.638239 0.557888 0.018037 0.138603
C4    C     C_R   0.998689 0.829104 0.323203 0.066149
C5    C     C_R   0.323124 0.578208 0.009291 -0.122897
C6    C     C_R   0.898483 0.202946 0.794967 -0.145280
C7    C     C_R   0.217013 0.429413 0.689228 -0.080083
C8    C     C_R   0.097895 0.250577 0.041880 -0.130779
C9    C     C_R   0.998169 0.166701 0.946378 -0.094094
C10   C     C_R   0.320199 0.526957 0.780642 -0.142267
C11   C     C_R   0.244445 0.479441 0.105781 -0.159592
C12   C     C_R   0.690842 0.425169 0.216001 -0.130800
C13   C     C_R   0.976054 0.304536 0.702373 -0.132901
C14   C     C_R   0.337343 0.539561 0.072837 0.150814
C15   C     C_R   0.911919 0.211225 0.704296 0.073397
C16   C     C_R   0.326369 0.451508 0.679719 0.043426
C17   C     C_R   0.084111 0.144316 0.967395 0.039982
C18   C     C_R   0.298412 0.090630 0.290843 0.572030
C19   C     C_R   0.198808 0.054558 0.352217 -0.273723
C20   C     C_R   0.095022 0.064431 0.348863 0.048992
C21   C     C_R   0.092253 0.109301 0.282797 -0.183402
C22   C     C_R   0.192260 0.143108 0.219869 -0.202493
C23   C     C_R   0.740284 0.576263 0.945930 -0.131726
C24   C     C_R   0.294841 0.135395 0.225048 -0.124497
C25   C     C_R   0.931400 0.143655 0.523152 -0.210305
C26   C     C_R   0.876796 0.132906 0.619494 0.031596
C27   C     C_R   0.831644 0.026931 0.615953 0.052125
C28   C     C_R   0.866639 0.930890 0.515575 -0.235604
C29   C     C_R   0.953936 0.936582 0.423054 0.061204
C30   C     C_R   0.987251 0.045932 0.427725 0.056367
C31   C     C_R   0.778718 0.916167 0.724637 -0.257071
C32   C     C_R   0.704616 0.896799 0.813321 -0.230177
C33   C     C_R   0.605151 0.970548 0.891070 0.563118
C34   C     C_R   0.973926 0.718796 0.315030 -0.129493
C35   C     C_R   0.580543 0.065040 0.880884 -0.226320
C36   C     C_R   0.654751 0.084835 0.791984 -0.221143
C37   C     C_R   0.754197 0.009988 0.712719 0.137257
C38   C     C_R   0.934684 0.337886 0.333290 -0.122738
C39   C     C_R   0.817856 0.325561 0.362656 -0.125117
C40   C     C_R   0.736888 0.410373 0.458545 0.118162
C41   C     C_R   0.773281 0.502274 0.529079 -0.181938
C42   C     C_R   0.889931 0.515652 0.498095 -0.161161
C43   C     C_R   0.970906 0.433515 0.400177 -0.098967
C44   C     C_R   0.528397 0.413861 0.557533 -0.216175
C45   C     C_R   0.661719 0.479338 0.045036 -0.117763
C46   C     C_R   0.418079 0.446267 0.581779 0.088882
C47   C     C_R   0.398186 0.489395 0.520674 0.018495
C48   C     C_R   0.488333 0.489129 0.430238 -0.226470
C49   C     C_R   0.598582 0.458648 0.406736 0.080411
C50   C     C_R   0.620219 0.422677 0.471287 0.031117
C51   C     C_R   0.205527 0.487874 0.525077 -0.178705
C52   C     C_R   0.093317 0.537510 0.579482 -0.146748
C53   C     C_R   0.066115 0.653509 0.656497 -0.091542
C54   C     C_R   0.150723 0.718556 0.683422 -0.087880
C55   C     C_R   0.261331 0.666265 0.635612 -0.126424
C56   C     C_R   0.054251 0.818538 0.219054 -0.114732
C57   C     C_R   0.288357 0.549970 0.557514 0.125997
C58   C     C_2   0.433081 0.558220 0.099369 -0.198964
C59   C     C_2   0.526062 0.598696 0.044988 -0.140468
C60   C     C_2   0.895262 0.967337 0.028947 -0.176811
C61   C     C_2   0.881099 0.060161 0.120865 -0.098432
C62   C     C_R   0.789022 0.520818 0.313215 -0.117218
C63   C     C_R   0.926077 0.749640 0.933127 -0.108487
C64   C     C_R   0.949255 0.855955 0.997416 0.112351
H1    H     H_    0.065919 0.899960 0.074699 0.101856
H2    H     H_    0.844986 0.148331 0.829359 0.120328
H3    H     H_    0.192220 0.371966 0.626297 0.112477
H4    H     H_    0.159700 0.265944 0.074125 0.092187
H5    H     H_    0.967054 0.103857 0.890213 0.095637
H6    H     H_    0.389959 0.565628 0.800780 0.109472
H7    H     H_    0.222430 0.449810 0.166600 0.091711
H8    H     H_    0.992065 0.347031 0.652187 0.090290
H9    H     H_    0.371251 0.164681 0.178317 0.161906
H10   H     H_    0.201100 0.023200 0.405557 0.162014
H11   H     H_    0.631290 0.368674 0.189641 0.113471
H12   H     H_    0.012365 0.117685 0.280801 0.123888
H13   H     H_    0.190048 0.177089 0.168457 0.126979
H14   H     H_    0.955613 0.226472 0.523430 0.129726
H15   H     H_    0.829827 0.850341 0.511943 0.129558
H16   H     H_    0.855517 0.858020 0.665302 0.134846
H17   H     H_    0.724305 0.823980 0.821141 0.141487
H18   H     H_    0.503620 0.122523 0.941233 0.144263
H19   H     H_    0.634343 0.157531 0.784402 0.141568
H20   H     H_    0.061429 0.445215 0.375017 0.111589
H21   H     H_    0.748879 0.622799 0.900832 0.096931
H22   H     H_    0.996785 0.276946 0.255947 0.107563
H23   H     H_    0.790205 0.256686 0.306718 0.134861
H24   H     H_    0.711777 0.570327 0.601794 0.121863
H25   H     H_    0.916792 0.592898 0.547803 0.116553
H26   H     H_    0.543037 0.387985 0.609106 0.131395
H27   H     H_    0.473677 0.521947 0.382900 0.131351
H28   H     H_    0.224896 0.397533 0.466246 0.122723
H29   H     H_    0.027175 0.483792 0.564866 0.121573
H30   H     H_    0.979203 0.692205 0.696709 0.084565
H31   H     H_    0.129505 0.807917 0.744193 0.109414
H32   H     H_    0.940280 0.692173 0.378638 0.092019
H33   H     H_    0.324797 0.714922 0.661492 0.115036
H34   H     H_    0.434824 0.516911 0.145988 0.123800
H35   H     H_    0.523581 0.643655 0.001501 0.147270
H36   H     H_    0.857739 0.972074 0.980488 0.143620
H37   H     H_    0.912088 0.058910 0.174912 0.108772
H38   H     H_    0.602609 0.438839 0.092835 0.088266
H39   H     H_    0.094199 0.882978 0.193083 0.121149
H40   H     H_    0.816592 0.559533 0.376205 0.122027
H41   H     H_    0.880245 0.735605 0.886032 0.084483
H42   H     H_    0.369587 0.641063 0.982155 0.117492
N1    N     N_R   0.037320 0.720000 0.995830 -0.044978
N2    N     N_R   0.946240 0.290870 0.848020 -0.044028
N3    N     N_R   0.146160 0.501170 0.788610 -0.043792
N4    N     N_R   0.025750 0.332680 0.063570 -0.040802
N5    N     N_R   0.962680 0.280000 0.004170 -0.043277
N6    N     N_R   0.209230 0.553860 0.848010 -0.041962
N7    N     N_R   0.175100 0.482030 0.063570 -0.041158
N8    N     N_R   0.996810 0.351820 0.788610 -0.043172
N9    N     N_R   0.790770 0.446140 0.151990 -0.041456
N10   N     N_R   0.824900 0.517970 0.936430 -0.044158
N11   N     N_R   0.003190 0.648180 0.211390 -0.039599
N12   N     N_R   0.774330 0.457010 0.995830 -0.045469
N13   N     N_R   0.053760 0.709130 0.151980 -0.042487
N14   N     N_R   0.853840 0.498830 0.211390 -0.040881
N15   N     N_R   0.974250 0.667320 0.936430 -0.041731
N16   N     N_R   0.225670 0.542990 0.004170 -0.045689
Ni1   Ni    Ni4+2 0.130310 0.630310 0.000000 0.234902
Ni2   Ni    Ni4+2 0.869690 0.369690 0.000000 0.220772
Ni3   Ni    Ni4+2 0.985660 0.509480 0.863750 0.219822
Ni4   Ni    Ni4+2 0.014340 0.490520 0.136250 0.219606
Cl1   Cl    Cl    0.426626 0.083718 0.299403 -0.628792
Cl2   Cl    Cl    0.511040 0.942582 0.999968 -0.695426

loop_
_geom_bond_atom_site_label_1
_geom_bond_atom_site_label_2
_ccdc_geom_bond_type
C45   N12   A    
C9    N5    A    
C59   H35   S    
C41   C42   A    
C3    C23   A    
C19   C20   A    
C58   H34   S    
C39   H23   S    
C2    C12   A    
C31   H16   S    
C20   C30   S    
C53   C54   A    
C32   H17   S    
C21   H12   S    
C26   C27   A    
C38   H22   S    
C18   C24   A    
C28   C29   A    
C34   H32   S    
N11   N13   A    
C38   C39   A    
C18   Cl1   S    
C11   C14   A    
C11   H7    S    
C24   H9    S    
C36   H19   S    
C44   C50   A    
C31   C32   A    
C18   C19   A    
N2    N8    A    
C49   C50   A    
C28   H15   S    
N4    N5    A    
C6    C15   A    
C54   C55   A    
N7    N16   A    
C35   C36   A    
N10   N12   A    
C48   H27   S    
C1    H1    S    
C10   N6    A    
C51   C57   A    
N1    Ni1   S    
C63   H41   S    
N11   Ni4   S    
C62   N14   A    
C13   N8    A    
C12   N9    A    
C34   N11   A    
C23   N10   A    
C21   C22   A    
C4    C56   A    
C43   H20   S    
N2    Ni2   S    
C63   N15   A    
C35   H18   S    
C44   C46   A    
C62   H40   S    
C5    H42   S    
C14   C58   S    
C4    C34   A    
C51   C52   A    
C56   H39   S    
N6    Ni1   S    
N3    N6    A    
C16   C46   S    
C39   C40   A    
N8    Ni3   S    
C15   C26   S    
N7    Ni4   S    
C58   C59   D    
C5    N16   A    
C25   H14   S    
C33   Cl2   S    
C31   C37   A    
C60   C61   D    
C61   H37   S    
N15   Ni3   S    
C29   C30   A    
C2    C49   S    
C8    N4    A    
C51   H28   S    
C47   C57   S    
C47   C48   A    
C48   C49   A    
C55   H33   S    
C54   H31   S    
C52   H29   S    
N12   Ni2   S    
C5    C14   A    
C1    N1    A    
C10   H6    S    
N3    Ni3   S    
C40   C41   A    
N4    Ni4   S    
C8    H4    S    
N10   Ni3   S    
C13   C15   A    
C56   N13   A    
C22   C24   A    
C42   C43   A    
N1    N15   A    
C1    C64   A    
C44   H26   S    
C52   C53   A    
C9    C17   A    
C25   C30   A    
C41   H24   S    
C46   C47   A    
C7    C16   A    
N9    Ni2   S    
C53   H30   S    
C19   H10   S    
C4    C29   S    
C22   H13   S    
C9    H5    S    
C60   H36   S    
C13   H8    S    
N13   Ni1   S    
C8    C17   A    
C60   C64   S    
C42   H25   S    
C32   C33   A    
C55   C57   A    
C25   C26   A    
C38   C43   A    
C10   C16   A    
C27   C37   S    
C40   C50   S    
C33   C35   A    
C3    C45   A    
N14   Ni4   S    
C11   N7    A    
C45   H38   S    
C7    H3    S    
C63   C64   A    
C7    N3    A    
C6    H2    S    
C20   C21   A    
C36   C37   A    
N9    N14   A    
C23   H21   S    
C12   H11   S    
C27   C28   A    
C6    N2    A    
N16   Ni1   S    
N5    Ni2   S    
C2    C62   A    
C3    C59   S    
