data_mof_unit_45796.cif
_audit_creation_date              2012-12-10T17:52:03-0500
_audit_creation_method            fapswitch 2.2
_symmetry_space_group_name_H-M    P1
_symmetry_Int_Tables_number       1
_space_group_crystal_system       triclinic
_cell_length_a                    14.74142
_cell_length_b                    14.608332
_cell_length_c                    19.341375
_cell_angle_alpha                 76.396008
_cell_angle_beta                  102.817012
_cell_angle_gamma                 114.976983
_cell_volume                      3634.00465376

loop_
_atom_site_label
_atom_site_type_symbol
_atom_type_description
_atom_site_fract_x
_atom_site_fract_y
_atom_site_fract_z
_atom_type_partial_charge
C1    C     C_R   0.880453 0.311846 0.512096 0.797353
C2    C     C_R   0.119568 0.688163 0.487697 0.796496
C3    C     C_R   0.813017 0.203391 0.515773 -0.060000
C4    C     C_R   0.187044 0.796643 0.483879 -0.061672
C5    C     C_R   0.780006 0.026998 0.514865 -0.188916
C6    C     C_R   0.219599 0.973144 0.483940 -0.190938
C7    C     C_R   0.847730 0.128749 0.513279 -0.180260
C8    C     C_R   0.151909 0.871525 0.484869 -0.184578
C9    C     C_R   0.710469 0.175300 0.517912 -0.225521
C10   C     C_R   0.289896 0.824572 0.483032 -0.227121
C11   C     C_R   0.639328 0.077712 0.507003 0.071431
C12   C     C_R   0.360767 0.922287 0.493965 0.070559
C13   C     C_R   0.676275 0.000857 0.513411 0.130685
C14   C     C_R   0.323579 0.999155 0.486871 0.133085
C15   C     C_R   0.533247 0.053034 0.494656 0.004489
C16   C     C_R   0.466878 0.947070 0.506800 0.004279
C17   C     C_R   0.510216 0.871280 0.532507 0.080203
C18   C     C_R   0.489952 0.128873 0.468997 0.080597
C19   C     C_R   0.611384 0.898714 0.525673 -0.262688
C20   C     C_R   0.388565 0.101304 0.475215 -0.261852
C21   C     C_R   0.726337 0.687013 0.397197 -0.299581
C22   C     C_R   0.273714 0.313051 0.602868 -0.291961
C23   C     C_R   0.000834 0.502626 0.632467 0.807293
C24   C     C_R   0.998222 0.496049 0.368105 0.806044
C25   C     C_R   0.802542 0.651278 0.408095 0.577021
C26   C     C_R   0.197423 0.348684 0.591855 0.574149
C27   C     C_R   0.711559 0.504256 0.486541 -0.097254
C28   C     C_R   0.288682 0.496030 0.513776 -0.088176
C29   C     C_R   0.629416 0.536219 0.474777 -0.017449
C30   C     C_R   0.370791 0.464033 0.525507 -0.016293
C31   C     C_R   0.640051 0.630552 0.429810 0.072722
C32   C     C_R   0.360092 0.369627 0.570385 0.072597
C33   C     C_R   0.538660 0.479898 0.506720 0.094574
C34   C     C_R   0.461529 0.520344 0.493552 0.092419
C35   C     C_R   0.478037 0.615905 0.449378 -0.241526
C36   C     C_R   0.522123 0.384308 0.550855 -0.240018
C37   C     C_R   0.565393 0.669427 0.417987 -0.183164
C38   C     C_R   0.434718 0.330725 0.582174 -0.187204
C39   C     C_R   0.054420 0.454395 0.760854 -0.247114
C40   C     C_R   0.975447 0.563738 0.239398 -0.251049
C41   C     C_R   0.059308 0.451348 0.834125 0.067735
C42   C     C_R   0.979072 0.567024 0.167284 0.072458
C43   C     C_R   0.010354 0.501420 0.856794 -0.070490
C44   C     C_R   0.007525 0.495844 0.148427 -0.083512
C45   C     C_R   0.956903 0.554612 0.805624 0.376978
C46   C     C_R   0.029299 0.420365 0.202375 0.374990
C47   C     C_R   0.952463 0.557471 0.731329 0.053469
C48   C     C_R   0.020981 0.415360 0.274470 0.044687
C49   C     C_R   0.001711 0.505725 0.708867 -0.159096
C50   C     C_R   0.997116 0.490197 0.293039 -0.153507
C51   C     C_R   0.010314 0.496876 0.072779 0.377664
C52   C     C_R   0.014495 0.498166 0.933664 0.377067
Cu1   Cu    Cu3+1 0.081740 0.475680 0.518680 0.922636
Cu2   Cu    Cu3+1 0.918260 0.524320 0.481320 0.924221
H1    H     H_    0.092507 0.415527 0.744308 0.166805
H2    H     H_    0.956112 0.619980 0.253887 0.159477
H3    H     H_    0.574810 0.742631 0.384179 0.144676
H4    H     H_    0.425241 0.257457 0.615902 0.146197
H5    H     H_    0.288042 0.563320 0.476645 0.137395
H6    H     H_    0.712340 0.437137 0.523838 0.140189
H7    H     H_    0.735173 0.759756 0.362832 0.164659
H8    H     H_    0.264835 0.240259 0.637169 0.163103
H9    H     H_    0.424943 0.652087 0.438022 0.126563
H10   H     H_    0.575234 0.348146 0.562222 0.127725
H11   H     H_    0.642687 0.840598 0.537842 0.145143
H12   H     H_    0.357178 0.159375 0.462814 0.143378
H13   H     H_    0.312883 0.770999 0.469705 0.141538
H14   H     H_    0.687957 0.228621 0.532130 0.141155
H15   H     H_    0.072356 0.852071 0.484331 0.177864
H16   H     H_    0.926971 0.148472 0.511998 0.169712
H17   H     H_    0.808657 0.968739 0.517908 0.140036
H18   H     H_    0.190691 0.031458 0.480037 0.139364
N1    N     N_R   0.072419 0.582588 0.964570 -0.234361
N2    N     N_R   0.952346 0.412525 0.041733 -0.212082
N3    N     N_R   0.070817 0.581725 0.033221 -0.243954
N4    N     N_R   0.954165 0.413270 0.973161 -0.236321
N5    N     N_R   0.795420 0.560800 0.453240 -0.221084
N6    N     N_R   0.204580 0.439200 0.546760 -0.218732
O1    O     O_R   0.977910 0.338110 0.524620 -0.565561
O2    O     O_R   0.022090 0.661890 0.475380 -0.561665
O3    O     O_R   0.839850 0.379180 0.493080 -0.591413
O4    O     O_R   0.160150 0.620820 0.506920 -0.591107
O5    O     O_R   0.069040 0.479450 0.615630 -0.608310
O6    O     O_R   0.930960 0.520550 0.384370 -0.605988
O7    O     O_R   0.930990 0.520520 0.584090 -0.579300
O8    O     O_R   0.069010 0.479480 0.415910 -0.578163
O9    O     O_3   0.113609 0.285852 0.624576 -0.749773
H19   H     H_    0.086164 0.328993 0.637581 0.355174
O10   O     O_3   0.886290 0.714033 0.375277 -0.747964
H20   H     H_    0.913694 0.670849 0.362288 0.354794
C53   C     C_3   0.119749 0.396151 0.886784 -0.386631
C54   C     C_3   0.225937 0.471920 0.911035 -0.341853
C55   C     C_3   0.286921 0.417172 0.964680 -0.828712
H21   H     H_    0.249043 0.377799 0.013303 0.258528
H22   H     H_    0.295067 0.360153 0.939963 0.254804
H23   H     H_    0.363400 0.473799 0.981059 0.244571
H24   H     H_    0.266313 0.512411 0.863559 0.221704
H25   H     H_    0.220983 0.529835 0.936697 0.238108
H26   H     H_    0.079798 0.352159 0.933891 0.215837
H27   H     H_    0.126752 0.338983 0.861375 0.196674
C56   C     C_3   0.949421 0.646050 0.112250 -0.376918
C57   C     C_3   0.036827 0.751462 0.109609 -0.332489
C58   C     C_3   0.009056 0.830745 0.052481 -0.810979
H28   H     H_    0.992042 0.808372 0.998514 0.264605
H29   H     H_    0.942150 0.837951 0.064240 0.253137
H30   H     H_    0.073434 0.906266 0.052105 0.243403
H31   H     H_    0.056033 0.776951 0.162728 0.216719
H32   H     H_    0.104767 0.746902 0.097221 0.241387
H33   H     H_    0.925182 0.623630 0.058016 0.210621
H34   H     H_    0.882617 0.650558 0.126705 0.192831
O11   O     O_3   0.908880 0.605770 0.826009 -0.752012
H35   H     H_    0.902798 0.585845 0.877764 0.335713
O12   O     O_3   0.058331 0.349686 0.186778 -0.743315
H36   H     H_    0.088852 0.376892 0.141770 0.331132
C59   C     C_3   0.895217 0.616940 0.678251 -0.329743
C60   C     C_3   0.967613 0.718669 0.641313 -0.325354
C61   C     C_3   0.909331 0.776612 0.587862 -0.831896
H37   H     H_    0.862699 0.731658 0.544419 0.265682
H38   H     H_    0.859391 0.791458 0.615339 0.248691
H39   H     H_    0.963132 0.851228 0.563615 0.234845
H40   H     H_    0.016618 0.766880 0.682649 0.227588
H41   H     H_    0.017293 0.705648 0.612519 0.221162
H42   H     H_    0.839105 0.569437 0.639017 0.203018
H43   H     H_    0.847293 0.635129 0.705281 0.239790
C62   C     C_3   0.034355 0.327046 0.329721 -0.326171
C63   C     C_3   0.146607 0.346642 0.354268 -0.289755
C64   C     C_3   0.159617 0.260841 0.412836 -0.855851
H44   H     H_    0.124606 0.254083 0.460033 0.266435
H45   H     H_    0.123858 0.186878 0.392170 0.251864
H46   H     H_    0.241344 0.277790 0.430238 0.240940
H47   H     H_    0.182845 0.351968 0.308065 0.242426
H48   H     H_    0.186578 0.420230 0.375280 0.228203
H49   H     H_    0.995565 0.311982 0.376725 0.181447
H50   H     H_    0.996230 0.255271 0.306148 0.222501
C65   C     C_3   0.459923 0.766155 0.577047 -0.384875
C66   C     C_3   0.419760 0.772222 0.641994 -0.329323
C67   C     C_3   0.365702 0.665600 0.682673 -0.833063
H51   H     H_    0.299642 0.619848 0.647217 0.274905
H52   H     H_    0.418063 0.625334 0.702148 0.252350
H53   H     H_    0.338361 0.672115 0.729665 0.237883
H54   H     H_    0.483952 0.817510 0.678877 0.220168
H55   H     H_    0.365802 0.810542 0.625183 0.229939
H56   H     H_    0.401658 0.709998 0.544673 0.187177
H57   H     H_    0.516033 0.730585 0.599238 0.196561
C68   C     C_3   0.540492 0.234197 0.424814 -0.385501
C69   C     C_3   0.579816 0.228254 0.359443 -0.333798
C70   C     C_3   0.634105 0.334962 0.319024 -0.823187
H58   H     H_    0.582087 0.375674 0.300085 0.250842
H59   H     H_    0.700577 0.380192 0.354464 0.275075
H60   H     H_    0.660837 0.328542 0.271714 0.242290
H61   H     H_    0.633393 0.189468 0.375748 0.230364
H62   H     H_    0.515179 0.183482 0.322570 0.220128
H63   H     H_    0.484797 0.270395 0.403161 0.195850
H64   H     H_    0.599309 0.289831 0.457274 0.187395

loop_
_geom_bond_atom_site_label_1
_geom_bond_atom_site_label_2
_ccdc_geom_bond_type
C62   H50   S    
C15   C18   A    
O9    H19   S    
C56   C57   S    
C27   C29   A    
N1    N3    A    
C2    C4    S    
C70   H58   S    
C51   N2    A    
C4    C8    A    
C18   C68   S    
C7    H16   S    
Cu2   O6    S    
C68   C69   S    
C54   H25   S    
C65   C66   S    
C39   C41   A    
C10   H13   S    
C47   C59   S    
C67   H52   S    
C8    H15   S    
C55   H21   S    
C22   C32   A    
C25   N5    A    
C20   H12   S    
Cu1   O1    S    
C51   N3    A    
C69   C70   S    
C3    C7    A    
C27   H6    S    
C61   H38   S    
C43   C52   S    
C23   C49   S    
C22   H8    S    
C56   H33   S    
C59   C60   S    
C29   C33   A    
C33   C36   A    
C60   C61   S    
C34   C35   A    
C66   H55   S    
C48   C62   S    
C38   H4    S    
C11   C15   A    
C39   H1    S    
C12   C16   A    
C26   O9    S    
C40   H2    S    
C17   C65   S    
C41   C53   S    
C57   H32   S    
Cu1   O8    S    
C32   C38   A    
C53   H27   S    
C28   N6    A    
C21   H7    S    
C46   O12   S    
Cu2   N5    S    
C68   H63   S    
C40   C42   A    
C55   H22   S    
C41   C43   A    
C42   C44   A    
C10   C12   A    
C44   C46   A    
C54   H24   S    
Cu2   O2    S    
C45   C47   A    
C24   C50   S    
C67   H53   S    
C46   C48   A    
C59   H42   S    
C60   H40   S    
C30   C34   A    
C14   C20   A    
C70   H60   S    
C47   C49   A    
C52   N1    A    
C61   H39   S    
C53   C54   S    
C5    C7    A    
C13   C19   A    
C16   C17   A    
C6    C8    A    
C27   N5    A    
C56   H34   S    
Cu1   Cu2   S    
C65   H56   S    
C31   C37   A    
Cu1   O4    S    
C1    C3    S    
C6    H18   S    
C64   H45   S    
C66   H54   S    
C3    C9    A    
C6    C14   A    
C21   C31   A    
C63   H48   S    
C33   C34   A    
C57   H31   S    
C58   H29   S    
C26   N6    A    
C43   C45   A    
C9    C11   A    
C23   O5    A    
C69   H62   S    
C68   H64   S    
C44   C51   S    
C65   H57   S    
C39   C49   A    
C12   C14   A    
C55   H23   S    
C23   O7    A    
C62   C63   S    
C1    O1    A    
C2    O4    A    
N2    N4    A    
C4    C10   A    
C64   H44   S    
C42   C56   S    
C35   C37   A    
O12   H36   S    
C60   H41   S    
C28   H5    S    
C62   H49   S    
C21   C25   A    
C59   H43   S    
O11   H35   S    
C70   H59   S    
C5    C13   A    
C66   C67   S    
C52   N4    A    
Cu2   O7    S    
C45   O11   S    
C67   H51   S    
C25   O10   S    
Cu1   O5    S    
C28   C30   A    
Cu1   N6    S    
C24   O6    A    
C9    H14   S    
C29   C31   A    
C61   H37   S    
C36   C38   A    
C30   C32   A    
C11   C13   A    
C24   O8    A    
C63   H47   S    
C63   C64   S    
C40   C50   A    
C48   C50   A    
C54   C55   S    
C17   C19   A    
C19   H11   S    
C58   H30   S    
C18   C20   A    
C57   C58   S    
C64   H46   S    
C2    O2    A    
C69   H61   S    
C5    H17   S    
C22   C26   A    
C58   H28   S    
C35   H9    S    
C53   H26   S    
O10   H20   S    
C36   H10   S    
C1    O3    A    
Cu2   O3    S    
C37   H3    S    
C15   C16   A    
