data_mof_unit_19110.cif
_audit_creation_date              2012-12-10T17:18:53-0500
_audit_creation_method            fapswitch 2.2
_symmetry_space_group_name_H-M    P1
_symmetry_Int_Tables_number       1
_space_group_crystal_system       triclinic
_cell_length_a                    10.259277
_cell_length_b                    10.856538
_cell_length_c                    13.464314
_cell_angle_alpha                 92.009925
_cell_angle_beta                  99.513794
_cell_angle_gamma                 96.332244
_cell_volume                      1467.83338269

loop_
_atom_site_label
_atom_site_type_symbol
_atom_type_description
_atom_site_fract_x
_atom_site_fract_y
_atom_site_fract_z
_atom_type_partial_charge
C1    C     C_R   0.052714 0.731549 0.490804 0.918440
C2    C     C_2   0.008521 0.062330 0.525545 -0.030412
C3    C     C_2   0.430371 0.512087 0.506240 -0.102003
C4    C     C_2   0.569622 0.488055 0.493611 -0.102583
C5    C     C_R   0.092493 0.513161 0.686061 0.871074
C6    C     C_R   0.907504 0.486831 0.313938 0.871061
C7    C     C_R   0.141650 0.525761 0.794083 -0.044871
C8    C     C_R   0.858329 0.474178 0.205919 -0.044799
C9    C     C_R   0.147946 0.622215 0.958873 -0.146379
C10   C     C_R   0.852027 0.377661 0.041149 -0.146392
C11   C     C_R   0.085020 0.598098 0.859221 -0.127826
C12   C     C_R   0.947251 0.268454 0.509126 0.918029
C13   C     C_R   0.914975 0.401839 0.140791 -0.127920
C14   C     C_R   0.257364 0.474672 0.829292 -0.195226
C15   C     C_R   0.742572 0.525197 0.170709 -0.195284
C16   C     C_R   0.331766 0.510445 0.924493 0.088234
C17   C     C_R   0.668148 0.489341 0.075532 0.088156
C18   C     C_R   0.271918 0.579260 0.993159 0.065052
C19   C     C_R   0.728011 0.420538 0.006872 0.065147
C20   C     C_R   0.464923 0.482474 0.951039 0.046573
C21   C     C_R   0.534972 0.517256 0.048996 0.046522
C22   C     C_2   0.278878 0.665696 0.172490 0.933198
C23   C     C_R   0.468030 0.574071 0.119138 -0.226460
C24   C     C_2   0.721044 0.334045 0.827567 0.933210
C25   C     C_2   0.133642 0.108461 0.597072 0.957681
C26   C     C_2   0.865635 0.891204 0.403237 0.958190
C27   C     C_2   0.674912 0.636297 0.623259 1.039713
C28   C     C_2   0.325116 0.363410 0.376938 1.039639
C29   C     C_R   0.531855 0.425615 0.880911 -0.226766
C30   C     C_R   0.339412 0.606381 0.092626 -0.056372
C31   C     C_R   0.660495 0.393354 0.907421 -0.056463
C32   C     C_2   0.088085 0.863770 0.493596 -0.368644
C33   C     C_2   0.911722 0.136263 0.506043 -0.367853
C34   C     C_2   0.991106 0.937571 0.474325 -0.031045
H1    H     H_    0.005459 0.361444 0.167467 0.182104
H2    H     H_    0.288639 0.409367 0.778736 0.171735
H3    H     H_    0.102360 0.680904 0.006173 0.188141
H4    H     H_    0.897633 0.318990 0.993849 0.188105
H5    H     H_    0.511489 0.591501 0.197384 0.196129
H6    H     H_    0.488380 0.408110 0.802677 0.196115
H7    H     H_    0.333031 0.151548 0.619265 0.356625
H8    H     H_    0.666229 0.848288 0.381774 0.356609
H9    H     H_    0.611121 0.665329 0.755307 0.342404
H10   H     H_    0.388609 0.334018 0.244824 0.342396
H11   H     H_    0.994569 0.638546 0.832544 0.182227
H12   H     H_    0.812602 0.103220 0.466865 0.190824
H13   H     H_    0.187370 0.897017 0.532370 0.191427
H14   H     H_    0.582095 0.414091 0.441243 0.191093
H15   H     H_    0.417902 0.586196 0.558478 0.191058
H16   H     H_    0.117196 0.677940 0.237889 0.358403
H17   H     H_    0.882692 0.321941 0.762099 0.358515
H18   H     H_    0.711281 0.590520 0.221244 0.172053
N1    N     N_2   0.322180 0.446120 0.460900 -0.165486
N2    N     N_2   0.677820 0.553880 0.539100 -0.165612
O1    O     O_R   0.935190 0.693030 0.507870 -0.567639
O2    O     O_R   0.145823 0.631015 0.180272 -0.811205
O3    O     O_2   0.652658 0.257662 0.766078 -0.605685
O4    O     O_R   0.854046 0.368866 0.819706 -0.811151
O5    O     O_2   0.127018 0.145604 0.682697 -0.637204
O6    O     O_R   0.256754 0.115686 0.564610 -0.760909
O7    O     O_2   0.871723 0.853521 0.317638 -0.637458
O8    O     O_R   0.742797 0.884384 0.436123 -0.760916
O9    O     O_2   0.745238 0.735821 0.633583 -0.572140
O10   O     O_R   0.601365 0.599782 0.698209 -0.860109
O11   O     O_2   0.255169 0.263701 0.367019 -0.572095
O12   O     O_R   0.064810 0.306970 0.492130 -0.567640
O13   O     O_R   0.398270 0.399799 0.301733 -0.860205
O14   O     O_R   0.142080 0.658430 0.482770 -0.611154
O15   O     O_R   0.857920 0.341570 0.517230 -0.611085
O16   O     O_R   0.969700 0.527180 0.651960 -0.604165
O17   O     O_R   0.030300 0.472820 0.348040 -0.604363
O18   O     O_R   0.176600 0.492580 0.626860 -0.618433
O19   O     O_R   0.823400 0.507420 0.373140 -0.618498
O20   O     O_2   0.347321 0.741957 0.234059 -0.605939
Zn1   Zn    Zn3+2 0.861850 0.523100 0.516760 1.015267
Zn2   Zn    Zn3+2 0.138150 0.476900 0.483240 1.015238

loop_
_geom_bond_atom_site_label_1
_geom_bond_atom_site_label_2
_ccdc_geom_bond_type
C10   H4    S    
C6    C8    S    
C28   N1    S    
C13   H1    S    
C5    O16   A    
C18   C30   A    
C25   O6    S    
C5    O18   A    
C9    C11   A    
H8    O8    S    
C1    O14   A    
C16   C20   A    
C10   C19   A    
O18   Zn2   S    
C19   C31   A    
C25   O5    D    
C2    C34   S    
C9    H3    S    
C28   O11   D    
C26   O8    S    
C27   N2    S    
O1    Zn1   S    
C29   C31   A    
H17   O4    S    
C15   H18   S    
C7    C11   A    
C33   H12   S    
C3    N1    D    
C2    C25   S    
C8    C13   A    
C27   O9    D    
C23   H5    S    
C29   H6    S    
C24   O4    S    
C17   C19   A    
C12   O15   A    
C26   C34   S    
H9    O10   S    
O15   Zn1   S    
C8    C15   A    
C5    C7    S    
C20   C29   A    
C21   C23   A    
C14   H2    S    
O17   Zn2   S    
C32   H13   S    
C14   C16   A    
C1    O1    A    
C11   H11   S    
N1    Zn2   S    
O14   Zn2   S    
C27   O10   S    
O19   Zn1   S    
C3    C4    S    
C3    H15   S    
C23   C30   A    
C9    C18   A    
C7    C14   A    
C28   O13   S    
C20   C21   A    
C2    C33   D    
C6    O19   A    
C16   C18   A    
C4    H14   S    
O16   Zn1   S    
C15   C17   A    
C22   O20   D    
C24   O3    D    
H10   O13   S    
C22   O2    S    
C22   C30   S    
C24   C31   S    
C12   C33   S    
C4    N2    D    
C12   O12   A    
C26   O7    D    
C1    C32   S    
H16   O2    S    
O12   Zn2   S    
N2    Zn1   S    
H7    O6    S    
C32   C34   D    
C6    O17   A    
C10   C13   A    
C17   C21   A    
