data_mof_unit_57025.cif
_audit_creation_date              2012-10-26T18:50:28-0400
_audit_creation_method            fapswitch 2.2
_symmetry_space_group_name_H-M    P1
_symmetry_Int_Tables_number       1
_space_group_crystal_system       triclinic
_cell_length_a                    9.646563
_cell_length_b                    10.769207
_cell_length_c                    15.549859
_cell_angle_alpha                 88.198768
_cell_angle_beta                  73.402785
_cell_angle_gamma                 90.576883
_cell_volume                      1547.0354854

loop_
_atom_site_label
_atom_site_type_symbol
_atom_type_description
_atom_site_fract_x
_atom_site_fract_y
_atom_site_fract_z
_atom_type_partial_charge
Br1   Br    Br    0.012461 0.158696 0.148215 -0.500946
Br2   Br    Br    0.997223 0.848951 0.685217 -0.478452
Br3   Br    Br    0.593066 0.300770 0.634167 -0.457612
C1    C     C_R   0.000330 0.263050 0.497941 0.540108
C2    C     C_R   0.219236 0.452497 0.043403 0.014170
C3    C     C_R   0.321843 0.460280 0.092367 0.054335
C4    C     C_R   0.917387 0.501745 0.671795 0.585778
C5    C     C_R   0.072313 0.469041 0.089129 -0.102295
C6    C     C_R   0.029991 0.489442 0.180941 -0.113147
C7    C     C_R   0.272670 0.441816 0.186532 -0.003007
C8    C     C_R   0.005542 0.133797 0.334446 -0.065892
C9    C     C_R   0.013918 0.070285 0.256148 0.193884
C10   C     C_R   0.024171 0.941472 0.256191 -0.088750
C11   C     C_R   0.023232 0.875161 0.334643 -0.156082
C12   C     C_R   0.666731 0.499560 0.906706 0.039430
C13   C     C_R   0.010017 0.936975 0.415307 -0.011162
C14   C     C_R   0.004483 0.068085 0.414757 -0.011545
C15   C     C_R   0.000738 0.129380 0.494376 -0.011677
C16   C     C_R   0.000677 0.737061 0.500257 0.566467
C17   C     C_R   0.001637 0.062779 0.572467 -0.081576
C18   C     C_R   0.002290 0.934325 0.574155 0.147178
C19   C     C_R   0.004791 0.871206 0.496255 0.027435
C20   C     C_R   0.700269 0.662513 0.380060 -0.080384
C21   C     C_R   0.656634 0.741975 0.321193 -0.159031
C22   C     C_R   0.513497 0.743290 0.321932 -0.161609
C23   C     C_R   0.757920 0.552820 0.953508 0.048407
C24   C     C_R   0.413280 0.664742 0.381234 -0.073667
C25   C     C_R   0.453141 0.580881 0.441707 0.149929
C26   C     C_R   0.602450 0.580421 0.441480 0.137236
C27   C     C_R   0.545841 0.421605 0.554768 0.266276
C28   C     C_R   0.082585 0.492434 0.328541 0.481901
C29   C     C_R   0.398908 0.422675 0.554750 0.050948
C30   C     C_R   0.868965 0.512162 0.769644 0.023047
C31   C     C_R   0.129279 0.475057 0.230980 -0.035824
C32   C     C_R   0.901313 0.587562 0.907584 -0.125430
C33   C     C_R   0.956313 0.567874 0.816014 -0.063601
C34   C     C_R   0.518075 0.474467 0.952141 0.008682
C35   C     C_R   0.727144 0.475833 0.815501 -0.112047
C36   C     C_2   0.355456 0.359537 0.233116 0.238215
C37   C     C_2   0.167190 0.389517 0.899792 0.238861
C38   C     C_R   0.468535 0.487751 0.046177 0.066439
C39   C     C_R   0.562374 0.539792 0.091004 -0.066815
C40   C     C_R   0.704294 0.572960 0.045104 -0.113473
C41   C     C_R   0.416154 0.441125 0.906540 -0.086913
C42   C     C_R   0.267615 0.431083 0.950673 0.019089
Cu1   Cu    Cu3+1 0.140660 0.499990 0.500010 0.963793
Cu2   Cu    Cu3+1 0.859340 0.500010 0.499990 1.010760
H1    H     H_    0.772153 0.614944 0.081508 0.103198
H2    H     H_    0.306382 0.673979 0.376421 0.181272
H3    H     H_    0.321594 0.359140 0.599436 0.177201
H4    H     H_    0.918042 0.510711 0.213279 0.143232
H5    H     H_    0.970490 0.631439 0.942238 0.116583
H6    H     H_    0.065896 0.598323 0.781228 0.190005
H7    H     H_    0.666615 0.428077 0.778103 0.159215
H8    H     H_    0.524697 0.560108 0.161552 0.128479
H9    H     H_    0.447832 0.428289 0.835341 0.180323
H10   H     H_    0.311558 0.330788 0.303026 0.151163
H11   H     H_    0.056701 0.361216 0.934265 0.141935
H12   H     H_    0.990329 0.472697 0.054398 0.107532
H13   H     H_    0.999791 0.111193 0.632879 0.166415
H14   H     H_    0.999977 0.233965 0.331780 0.138344
H15   H     H_    0.032925 0.892330 0.195237 0.142464
H16   H     H_    0.034667 0.775531 0.331176 0.098355
H17   H     H_    0.811926 0.669020 0.374340 0.175590
H18   H     H_    0.734687 0.803247 0.274789 0.138546
H19   H     H_    0.479507 0.805719 0.276186 0.140278
N1    N     N_R   0.648320 0.501210 0.499140 -0.238158
N2    N     N_R   0.352470 0.501290 0.499110 -0.273413
O1    O     O_R   0.118810 0.319640 0.500010 -0.513210
O2    O     O_2   0.207977 0.382719 0.818161 -0.504948
O3    O     O_R   0.881240 0.319660 0.500000 -0.448766
O4    O     O_R   0.055570 0.499980 0.629840 -0.477182
O5    O     O_R   0.818000 0.500010 0.629830 -0.462898
O6    O     O_R   0.118760 0.680340 0.500000 -0.498341
O7    O     O_R   0.881190 0.680360 0.499990 -0.509903
O8    O     O_R   0.182000 0.499990 0.370170 -0.554884
O9    O     O_R   0.944430 0.500020 0.370160 -0.530765
O10   O     O_2   0.469405 0.313516 0.192076 -0.479091

loop_
_geom_bond_atom_site_label_1
_geom_bond_atom_site_label_2
_ccdc_geom_bond_type
C38   C39   A    
C32   C33   A    
C6    H4    S    
Cu1   O8    S    
C4    O5    A    
C37   O2    D    
C20   C26   A    
C25   C26   A    
C25   N2    A    
C5    H12   S    
C2    C3    A    
C36   H10   S    
C30   C33   A    
C12   C34   A    
Cu1   O1    S    
C33   H6    S    
C26   N1    A    
C10   H15   S    
C13   C14   A    
C3    C38   A    
C20   C21   A    
C17   H13   S    
C40   H1    S    
Cu1   O4    S    
C27   N1    A    
C29   N2    A    
C1    C15   S    
C10   C11   A    
C4    C30   S    
Br1   C9    S    
Cu2   N1    S    
C1    O1    A    
C23   C40   A    
C28   O9    A    
C37   C42   S    
C37   H11   S    
C36   O10   D    
C16   C19   S    
C21   C22   A    
Cu2   O5    S    
C4    O4    A    
C5    C6    A    
C12   C23   A    
C2    C42   A    
C7    C36   S    
Br3   C27   S    
C12   C35   A    
Cu1   N2    S    
C39   H8    S    
C41   H9    S    
C35   H7    S    
C29   H3    S    
Br2   C18   S    
C14   C15   A    
C28   C31   S    
C7    C31   A    
C9    C10   A    
Cu2   O3    S    
C21   H18   S    
C20   H17   S    
C6    C31   A    
C11   C13   A    
C39   C40   A    
Cu2   O9    S    
Cu1   O6    S    
C41   C42   A    
Cu1   Cu2   S    
C8    C14   A    
C13   C19   A    
C16   O6    A    
C22   H19   S    
C8    H14   S    
C3    C7    A    
C2    C5    A    
C8    C9    A    
C22   C24   A    
C30   C35   A    
C34   C41   A    
C16   O7    A    
Cu2   O7    S    
C27   C29   A    
C28   O8    A    
C11   H16   S    
C15   C17   A    
C34   C38   A    
C23   C32   A    
C17   C18   A    
C32   H5    S    
C18   C19   A    
C1    O3    A    
C24   H2    S    
C24   C25   A    
