data_mof_unit_65390.cif
_audit_creation_date              2012-12-10T18:23:15-0500
_audit_creation_method            fapswitch 2.2
_symmetry_space_group_name_H-M    P1
_symmetry_Int_Tables_number       1
_space_group_crystal_system       triclinic
_cell_length_a                    21.52182
_cell_length_b                    21.477117
_cell_length_c                    22.022229
_cell_angle_alpha                 60.90252
_cell_angle_beta                  119.27909
_cell_angle_gamma                 89.669239
_cell_volume                      7351.31749025

loop_
_atom_site_label
_atom_site_type_symbol
_atom_type_description
_atom_site_fract_x
_atom_site_fract_y
_atom_site_fract_z
_atom_type_partial_charge
C1    C     C_R   0.623852 0.497230 0.505165 0.897370
C2    C     C_3   0.814606 0.416517 0.552805 -0.427294
C3    C     C_3   0.668676 0.535121 0.414217 -0.516853
C4    C     C_R   0.419906 0.581269 0.337555 0.945187
C5    C     C_3   0.735383 0.541786 0.540445 -0.372502
C6    C     C_3   0.692758 0.496065 0.506437 -0.036232
C7    C     C_3   0.810691 0.499163 0.500674 -0.015753
C8    C     C_3   0.738075 0.538950 0.410441 -0.481872
C9    C     C_3   0.807028 0.540323 0.541053 0.498338
C10   C     C_3   0.707805 0.215028 0.027196 -0.277061
C11   C     C_3   0.689097 0.301601 0.971225 -0.156371
C12   C     C_3   0.292024 0.709544 0.082367 0.062936
C13   C     C_1   0.625550 0.374230 0.751427 -0.015145
C14   C     C_1   0.873862 0.125232 0.248631 -0.113472
C15   C     C_3   0.725860 0.205414 0.971410 -0.161429
C16   C     C_R   0.378606 0.500190 0.500022 0.996893
C17   C     C_3   0.708326 0.291103 0.917354 0.012476
C18   C     C_3   0.808208 0.198930 0.027499 0.458398
C19   C     C_3   0.790481 0.208030 0.082564 -0.083034
C20   C     C_3   0.790947 0.284596 0.972001 -0.261871
C21   C     C_3   0.772204 0.293137 0.027329 0.455321
C22   C     C_1   0.662984 0.336643 0.826481 0.095187
C23   C     C_3   0.189351 0.728977 0.972046 -0.217594
C24   C     C_1   0.836059 0.162549 0.173567 0.125303
C25   C     C_3   0.324387 0.422206 0.576428 0.201440
C26   C     C_3   0.255852 0.425395 0.581799 -0.428078
C27   C     C_3   0.284816 0.565051 0.504580 -0.305812
C28   C     C_R   0.581075 0.418772 0.662424 1.027344
C29   C     C_3   0.244595 0.509666 0.417265 0.264198
C30   C     C_3   0.310213 0.500141 0.499896 -0.129323
C31   C     C_3   0.189531 0.496733 0.500363 0.016891
C32   C     C_3   0.210117 0.566543 0.497357 -0.405172
C33   C     C_3   0.176539 0.498692 0.423356 -0.423348
C34   C     C_3   0.209410 0.791207 0.917667 0.094061
C35   C     C_R   0.001895 0.876890 0.503572 0.885867
C36   C     C_R   0.081326 0.918710 0.662429 0.911085
C37   C     C_R   0.000608 0.120485 0.501545 0.821634
C38   C     C_R   0.918688 0.081027 0.337623 0.892297
C39   C     C_R   0.002444 0.378373 0.500076 0.819112
C40   C     C_3   0.291210 0.740643 0.972242 -0.225013
C41   C     C_R   0.878288 0.499947 0.499769 0.880485
C42   C     C_R   0.999797 0.621732 0.499754 0.866350
C43   C     C_R   0.121525 0.496683 0.500168 0.876486
C44   C     C_3   0.083520 0.760722 0.547141 0.506128
C45   C     C_3   0.210233 0.760152 0.027556 -0.202433
C46   C     C_3   0.082136 0.690059 0.545321 -0.440964
C47   C     C_3   0.967156 0.760124 0.549918 -0.348613
C48   C     C_3   0.954420 0.832302 0.411352 -0.520188
C49   C     C_3   0.002080 0.808719 0.503537 0.038676
C50   C     C_3   0.000118 0.689669 0.500074 0.063559
C51   C     C_3   0.966231 0.689657 0.547963 -0.382140
C52   C     C_3   0.311827 0.771800 0.027735 -0.253242
C53   C     C_3   0.953259 0.762017 0.409074 -0.373026
C54   C     C_3   0.079465 0.176967 0.572826 -0.395068
C55   C     C_3   0.080906 0.249459 0.570791 -0.388923
C56   C     C_3   0.229293 0.823238 0.971458 -0.129951
C57   C     C_3   0.982598 0.254686 0.416035 -0.381300
C58   C     C_3   0.941172 0.208702 0.515475 -0.357817
C59   C     C_3   0.000747 0.188651 0.501643 0.146057
C60   C     C_3   0.002271 0.310129 0.500301 0.157713
C61   C     C_3   0.981846 0.326949 0.414405 -0.363709
C62   C     C_3   0.943392 0.279624 0.516518 -0.411806
C63   C     C_1   0.375464 0.625961 0.248471 -0.095452
C64   C     C_1   0.126112 0.874172 0.751524 -0.157181
C65   C     C_3   0.271657 0.678835 0.027872 0.712714
C66   C     C_1   0.337774 0.663735 0.173356 0.032737
C67   C     C_1   0.163793 0.836636 0.826658 -0.006555
C68   C     C_3   0.746014 0.413676 0.558649 0.289249
F1    F     F_    0.869523 0.505448 0.622925 -0.638297
F2    F     F_    0.128385 0.740188 0.629590 -0.656904
F3    F     F_    0.294366 0.603575 0.058705 -0.636515
H1    H     H_    0.362532 0.788757 0.051977 0.167875
H2    H     H_    0.639695 0.345102 0.946769 0.198847
H3    H     H_    0.323567 0.732642 0.948444 0.172083
H4    H     H_    0.674461 0.186004 0.050939 0.195750
H5    H     H_    0.824666 0.313409 0.948736 0.216275
H6    H     H_    0.706746 0.169674 0.947119 0.189838
H7    H     H_    0.328051 0.379262 0.562743 0.083666
H8    H     H_    0.239858 0.373818 0.591032 0.146241
H9    H     H_    0.269337 0.427286 0.636374 0.251116
H10   H     H_    0.327800 0.557721 0.564656 0.223502
H11   H     H_    0.210970 0.883710 0.946516 0.154669
H12   H     H_    0.815511 0.387728 0.522521 0.129077
H13   H     H_    0.215473 0.567541 0.549787 0.170789
H14   H     H_    0.263322 0.464711 0.412531 0.094781
H15   H     H_    0.169103 0.444710 0.430754 0.123007
H16   H     H_    0.123763 0.543516 0.364193 0.259837
H17   H     H_    0.277931 0.620522 0.453637 0.237815
H18   H     H_    0.164793 0.618817 0.437772 0.230735
H19   H     H_    0.108901 0.793890 0.513581 0.102175
H20   H     H_    0.107518 0.689227 0.512031 0.119152
H21   H     H_    0.177961 0.767544 0.051705 0.187635
H22   H     H_    0.116919 0.638841 0.610709 0.229730
H23   H     H_    0.638687 0.503640 0.387508 0.199250
H24   H     H_    0.999937 0.743420 0.616232 0.213081
H25   H     H_    0.999010 0.638738 0.613610 0.217382
H26   H     H_    0.895859 0.866795 0.378805 0.206030
H27   H     H_    0.978212 0.867419 0.376702 0.193956
H28   H     H_    0.976679 0.763207 0.373402 0.198522
H29   H     H_    0.894032 0.762756 0.375181 0.194116
H30   H     H_    0.908433 0.792684 0.519347 0.187535
H31   H     H_    0.907458 0.688464 0.516721 0.163611
H32   H     H_    0.123710 0.161801 0.565434 0.191372
H33   H     H_    0.138977 0.711503 0.948091 0.174848
H34   H     H_    0.740035 0.511592 0.379244 0.214146
H35   H     H_    0.093055 0.129916 0.634971 0.160703
H36   H     H_    0.097778 0.236427 0.633270 0.194455
H37   H     H_    0.123858 0.270539 0.559579 0.155731
H38   H     H_    0.025341 0.242392 0.405377 0.195574
H39   H     H_    0.022704 0.350713 0.400702 0.171078
H40   H     H_    0.883836 0.218795 0.464253 0.190597
H41   H     H_    0.952307 0.161193 0.576075 0.178815
H42   H     H_    0.957709 0.265923 0.578468 0.184042
H43   H     H_    0.886767 0.322993 0.467449 0.163796
H44   H     H_    0.926878 0.262906 0.363942 0.185910
H45   H     H_    0.699037 0.601431 0.499343 0.141192
H46   H     H_    0.924910 0.369227 0.362631 0.200007
H47   H     H_    0.714760 0.384433 0.529270 0.115186
H48   H     H_    0.868095 0.385482 0.616386 0.238524
H49   H     H_    0.789263 0.469624 0.008490 0.390094
H50   H     H_    0.930121 0.101636 0.008349 0.391781
H51   H     H_    0.456713 0.283107 0.697035 0.355685
H52   H     H_    0.138290 0.710062 0.243888 0.391375
H53   H     H_    0.881495 0.366723 0.744749 0.397627
H54   H     H_    0.748738 0.520085 0.604035 0.254340
H55   H     H_    0.806236 0.599119 0.504504 0.039489
H56   H     H_    0.629045 0.593097 0.374354 0.196932
H57   H     H_    0.733238 0.598884 0.371633 0.194662
O1    O     O_R   0.592630 0.447740 0.499990 -0.619444
O2    O     O_R   0.965300 0.442140 0.430470 -0.628919
O3    O     O_R   0.942170 0.465260 0.569550 -0.565066
O4    O     O_R   0.592590 0.552250 0.500040 -0.642973
O5    O     O_R   0.872610 0.534760 0.430420 -0.641147
O6    O     O_R   0.034700 0.557860 0.569530 -0.610672
O7    O     O_R   0.965140 0.627350 0.430400 -0.629614
O8    O     O_R   0.127390 0.465250 0.569580 -0.625651
O9    O     O_R   0.057830 0.534740 0.430450 -0.619850
O10   O     O_R   0.438420 0.509360 0.376750 -0.613101
O11   O     O_R   0.438370 0.613870 0.376810 -0.605533
O12   O     O_R   0.947670 0.907410 0.499960 -0.634202
O13   O     O_R   0.407410 0.447750 0.499960 -0.635778
O14   O     O_R   0.407370 0.552260 0.500010 -0.593458
O15   O     O_R   0.561630 0.386130 0.623190 -0.557805
O16   O     O_R   0.561580 0.490640 0.623250 -0.626921
O17   O     O_R   0.052240 0.907300 0.499970 -0.612219
O18   O     O_2   0.774635 0.344675 0.117424 -0.304012
O19   O     O_2   0.887768 0.325735 0.118217 -0.273490
O20   O     O_3   0.769940 0.440775 0.983127 -0.531315
O21   O     O_2   0.958274 0.140985 0.118446 -0.265310
O22   O     O_2   0.885862 0.053084 0.117263 -0.305916
O23   O     O_R   0.113890 0.938270 0.623230 -0.601404
O24   O     O_3   0.884568 0.140847 0.983083 -0.506285
O25   O     O_2   0.441108 0.448234 0.681470 -0.301300
O26   O     O_2   0.400871 0.344173 0.747805 -0.285599
O27   O     O_3   0.475689 0.326128 0.691860 -0.552121
O28   O     O_2   0.281747 0.624025 0.325660 -0.332427
O29   O     O_2   0.179918 0.586727 0.249950 -0.277893
O30   O     O_3   0.152974 0.665327 0.298915 -0.576732
O31   O     O_2   0.710734 0.347976 0.673916 -0.286850
O32   O     O_2   0.823404 0.277826 0.705950 -0.287928
O33   O     O_3   0.828947 0.389467 0.722819 -0.500511
O34   O     O_R   0.009320 0.938380 0.623210 -0.617717
O35   O     O_R   0.052330 0.092440 0.500040 -0.627567
O36   O     O_R   0.947760 0.092550 0.500030 -0.628120
O37   O     O_R   0.990680 0.061470 0.376790 -0.591019
O38   O     O_R   0.886110 0.061580 0.376770 -0.617965
O39   O     O_R   0.034860 0.372650 0.569600 -0.630800
S1    S     S_3+6 0.803308 0.351055 0.065298 0.036940
S2    S     S_3+6 0.887582 0.130334 0.065362 0.047001
S3    S     S_3+6 0.411547 0.386235 0.677396 0.000879
S4    S     S_3+6 0.215843 0.598044 0.320390 -0.004635
S5    S     S_3+6 0.776851 0.355118 0.667569 0.029658
Zn1   Zn    Zn3+2 0.500030 0.430220 0.499960 1.057981
Zn2   Zn    Zn3+2 0.499970 0.569780 0.500040 1.030596
Zn3   Zn    Zn3+2 0.069820 0.999850 0.500010 1.020800
Zn4   Zn    Zn3+2 0.930180 0.000000 0.499990 0.978225
Zn5   Zn    Zn3+2 0.046440 0.453600 0.592900 1.013985
Zn6   Zn    Zn3+2 0.953560 0.546400 0.407100 0.968994

loop_
_geom_bond_atom_site_label_1
_geom_bond_atom_site_label_2
_ccdc_geom_bond_type
C25   S3    S    
C44   C49   S    
C38   O37   A    
O13   Zn1   S    
C58   C62   S    
C23   C45   S    
C15   C18   S    
H51   O27   S    
C36   C64   S    
C2    C7    S    
C3    C6    S    
O35   Zn3   S    
C8    H34   S    
C41   O5    A    
O3    Zn5   S    
C7    C8    S    
O14   Zn2   S    
C53   H28   S    
C51   H31   S    
C34   C56   S    
C48   H26   S    
C4    C63   S    
O26   S3    D    
C21   S1    S    
C31   C43   S    
C60   C61   S    
C47   H30   S    
C19   C21   S    
C9    F1    S    
C62   H43   S    
C1    O1    A    
C10   C15   S    
C5    C6    S    
C3    H56   S    
O5    Zn6   S    
C57   C59   S    
O22   S2    D    
O34   Zn4   S    
C16   C30   S    
C29   C33   S    
C17   C20   S    
C20   H5    S    
C60   C62   S    
C18   C19   S    
C35   O17   A    
C14   C24   T    
C45   H21   S    
O2    Zn6   S    
C68   H47   S    
O33   S5    S    
C8    H57   S    
C57   H38   S    
O9    Zn6   S    
O17   Zn3   S    
C45   C56   S    
O25   S3    D    
C35   C49   S    
C31   C33   S    
C13   C28   S    
C44   F2    S    
C28   O16   A    
C17   C22   S    
C29   H14   S    
C51   H25   S    
C37   O35   A    
C1    O4    A    
C6    C68   S    
C63   C66   T    
C16   O13   A    
C26   C31   S    
O6    Zn5   S    
C55   C60   S    
C27   C30   S    
C36   O34   A    
O1    Zn1   S    
C2    H12   S    
C43   O8    A    
C61   H39   S    
C12   C52   S    
C44   C46   S    
C54   C59   S    
C53   H29   S    
C48   C53   S    
C32   H13   S    
C50   C53   S    
O23   Zn3   S    
O31   S5    D    
C54   H35   S    
C61   H46   S    
C25   H7    S    
C64   C67   T    
C54   H32   S    
C27   H10   S    
C62   H42   S    
C47   C49   S    
C3    C8    S    
C11   H2    S    
C41   O3    A    
C47   C51   S    
C46   H20   S    
C57   H44   S    
C25   C26   S    
C40   C52   S    
C12   C66   S    
O8    Zn5   S    
C11   C21   S    
C26   H9    S    
C1    C6    S    
C55   H36   S    
C42   O7    A    
C16   O14   A    
C33   H15   S    
C5    C9    S    
C29   C30   S    
C52   H1    S    
C35   O12   A    
C14   C38   S    
C10   H4    S    
C32   H18   S    
C10   C19   S    
O12   Zn4   S    
C23   C34   S    
O10   Zn1   S    
C50   C51   S    
O32   S5    D    
C28   O15   A    
O4    Zn2   S    
C29   S4    S    
C56   H11   S    
O21   S2    D    
C37   C59   S    
C42   C50   S    
C37   O36   A    
C48   C49   S    
O39   Zn5   S    
O19   S1    D    
H49   O20   S    
C40   C65   S    
C5    H45   S    
O20   S1    S    
C58   H41   S    
C58   C59   S    
O15   Zn1   S    
C5    H54   S    
C43   O9    A    
C44   H19   S    
H53   O33   S    
C18   S2    S    
C25   C30   S    
C38   O38   A    
O18   S1    D    
C54   C55   S    
C11   C17   S    
C27   C32   S    
O38   Zn4   S    
C31   C32   S    
C9    H55   S    
O7    Zn6   S    
C12   C45   S    
C34   C67   S    
C2    H48   S    
C36   O23   A    
C57   C61   S    
H52   O30   S    
O37   Zn3   S    
C48   H27   S    
C12   C65   S    
C46   C50   S    
O28   S4    D    
C2    C68   S    
C26   H8    S    
H50   O24   S    
C55   H37   S    
C42   O6    A    
C58   H40   S    
C23   C65   S    
C19   C24   S    
C33   H16   S    
C65   F3    S    
O29   S4    D    
C4    O11   A    
O24   S2    S    
C68   S5    S    
O27   S3    S    
C15   H6    S    
C46   H22   S    
C39   C60   S    
C40   H3    S    
C13   C22   T    
O36   Zn4   S    
C3    H23   S    
C18   C20   S    
C7    C41   S    
C23   H33   S    
C39   O39   A    
C27   H17   S    
O30   S4    S    
C10   C11   S    
C4    O10   A    
C7    C9    S    
C20   C21   S    
O16   Zn2   S    
C47   H24   S    
C34   C40   S    
O11   Zn2   S    
C39   O2    A    
C15   C17   S    
C52   C56   S    
