data_mof_unit_17775.cif
_audit_creation_date              2012-12-10T17:15:52-0500
_audit_creation_method            fapswitch 2.2
_symmetry_space_group_name_H-M    P1
_symmetry_Int_Tables_number       1
_space_group_crystal_system       triclinic
_cell_length_a                    10.191617
_cell_length_b                    10.609193
_cell_length_c                    10.795902
_cell_angle_alpha                 90.646939
_cell_angle_beta                  95.443947
_cell_angle_gamma                 81.845325
_cell_volume                      1150.28748969

loop_
_atom_site_label
_atom_site_type_symbol
_atom_type_description
_atom_site_fract_x
_atom_site_fract_y
_atom_site_fract_z
_atom_type_partial_charge
C1    C     C_R   0.444058 0.504411 0.267459 0.937658
C2    C     C_R   0.568139 0.058049 0.611504 0.093168
C3    C     C_R   0.500566 0.128466 0.508981 -0.084503
C4    C     C_R   0.432908 0.072528 0.410036 -0.207704
C5    C     C_R   0.434633 0.943339 0.409280 -0.189596
C6    C     C_R   0.502996 0.871269 0.508003 -0.077814
C7    C     C_2   0.412417 0.494510 0.135077 -0.378879
C8    C     C_2   0.511464 0.454377 0.065686 -0.151075
C9    C     C_2   0.587178 0.469264 0.864452 -0.390084
C10   C     C_2   0.487581 0.457890 0.933173 -0.138241
C11   C     C_2   0.069784 0.500156 0.480100 -0.119417
C12   C     C_R   0.499823 0.260793 0.501673 0.858255
C13   C     C_2   0.924672 0.521831 0.499850 -0.005425
C14   C     C_R   0.555846 0.488316 0.732473 0.903065
C15   C     C_R   0.500900 0.739135 0.501473 0.861686
C16   C     C_R   0.632900 0.115814 0.714145 -0.170378
C17   C     C_R   0.695081 0.042704 0.815383 -0.123796
C18   C     C_R   0.692745 0.911818 0.816506 -0.115616
C19   C     C_R   0.629089 0.853572 0.715983 -0.147643
C20   C     C_R   0.567820 0.926074 0.611733 0.108873
H1    H     H_    0.380927 0.128913 0.332482 0.143213
H2    H     H_    0.310678 0.521311 0.094268 0.152058
H3    H     H_    0.103093 0.438654 0.404898 0.151109
H4    H     H_    0.882592 0.374378 0.395359 0.159984
H5    H     H_    0.126848 0.603290 0.626908 0.194273
H6    H     H_    0.634991 0.217330 0.717526 0.140639
H7    H     H_    0.744053 0.087915 0.893649 0.137857
H8    H     H_    0.739653 0.855374 0.895748 0.134677
H9    H     H_    0.626751 0.752264 0.721302 0.110433
H10   H     H_    0.383621 0.899088 0.331299 0.147874
H11   H     H_    0.385251 0.460940 0.892631 0.189613
H12   H     H_    0.613549 0.427763 0.105906 0.189711
H13   H     H_    0.689215 0.466355 0.905498 0.148194
N1    N     N_2   0.157290 0.551390 0.551110 -0.184520
N2    N     N_2   0.842740 0.448550 0.448960 -0.238084
O1    O     O_R   0.568950 0.489660 0.307530 -0.606168
O2    O     O_R   0.348880 0.522640 0.340350 -0.611692
O3    O     O_R   0.610060 0.300270 0.483590 -0.607983
O4    O     O_R   0.389990 0.333260 0.516410 -0.613700
O5    O     O_R   0.651120 0.477360 0.659650 -0.651256
O6    O     O_R   0.431050 0.510340 0.692470 -0.607746
O7    O     O_R   0.610010 0.666740 0.483590 -0.612271
O8    O     O_R   0.389940 0.699730 0.516410 -0.595176
Zn1   Zn    Zn3+2 0.646940 0.477980 0.478090 0.937159
Zn2   Zn    Zn3+2 0.353060 0.522020 0.521910 0.955062
C21   C     C_2   0.874944 0.630138 0.577806 0.474047
H14   H     H_    0.811496 0.617489 0.649646 0.081915
O9    O     O_2   0.905943 0.735494 0.562427 -0.581756

loop_
_geom_bond_atom_site_label_1
_geom_bond_atom_site_label_2
_ccdc_geom_bond_type
C9    C14   S    
C18   H8    S    
O3    Zn1   S    
C4    H1    S    
C11   C13   S    
C7    H2    S    
C2    C16   A    
C9    C10   D    
C19   C20   A    
C1    O2    A    
H5    N1    S    
O4    Zn2   S    
C12   O4    A    
C17   C18   A    
C15   O8    A    
C7    C8    D    
N1    Zn2   S    
C9    H13   S    
N2    Zn1   S    
O8    Zn2   S    
C13   C21   S    
C8    H12   S    
O7    Zn1   S    
C14   O6    A    
C13   N2    D    
C11   H3    S    
C14   O5    A    
C2    C3    A    
C16   H6    S    
C5    C6    A    
C21   O9    D    
O1    Zn1   S    
H4    N2    S    
O2    Zn2   S    
C3    C4    A    
C17   H7    S    
C12   O3    A    
O5    Zn1   S    
C6    C20   A    
C15   O7    A    
C8    C10   S    
C18   C19   A    
C5    H10   S    
O6    Zn2   S    
C21   H14   S    
C4    C5    A    
C3    C12   S    
C6    C15   S    
C1    C7    S    
C2    C20   A    
C10   H11   S    
C11   N1    D    
C1    O1    A    
C16   C17   A    
C19   H9    S    
