data_mof_unit_18633.cif
_audit_creation_date              2012-12-10T20:41:52-0500
_audit_creation_method            fapswitch 2.2
_symmetry_space_group_name_H-M    P1
_symmetry_Int_Tables_number       1
_space_group_crystal_system       triclinic
_cell_length_a                    14.948604
_cell_length_b                    15.229166
_cell_length_c                    9.952721
_cell_angle_alpha                 89.915146
_cell_angle_beta                  88.903851
_cell_angle_gamma                 89.948434
_cell_volume                      2265.36644448

loop_
_atom_site_label
_atom_site_type_symbol
_atom_type_description
_atom_site_fract_x
_atom_site_fract_y
_atom_site_fract_z
_atom_type_partial_charge
C1    C     C_R   0.383984 0.876228 0.500190 0.871742
C2    C     C_R   0.921554 0.492382 0.072253 0.178220
C3    C     C_R   0.575042 0.021672 0.068013 0.020025
C4    C     C_R   0.078465 0.498906 0.068253 -0.029062
C5    C     C_R   0.573341 0.024416 0.924721 -0.012739
C6    C     C_R   0.077359 0.499678 0.924644 -0.069533
C7    C     C_R   0.429652 0.966169 0.931786 0.124676
C8    C     C_R   0.922290 0.489936 0.930895 0.121203
C9    C     C_3   0.334603 0.995763 0.933690 -0.711880
C10   C     C_3   0.841885 0.545735 0.920707 -0.701024
C11   C     C_3   0.332538 0.986436 0.087721 0.882300
C12   C     C_R   0.384257 0.123797 0.500695 0.864259
C13   C     C_3   0.840557 0.551634 0.075734 0.861151
C14   C     C_R   0.619870 0.119771 0.499478 0.895969
C15   C     C_R   0.617473 0.878306 0.499505 0.894723
C16   C     C_R   0.124478 0.615440 0.499533 0.858751
C17   C     C_R   0.122368 0.382513 0.499144 0.868710
C18   C     C_R   0.292625 0.230620 0.622859 0.237554
C19   C     C_R   0.303207 0.760412 0.619950 0.147971
C20   C     C_R   0.831995 0.768410 0.554082 0.023722
C21   C     C_R   0.767281 0.294856 0.617424 0.156650
C22   C     C_R   0.332526 0.202655 0.503192 -0.124629
C23   C     C_R   0.881617 0.378979 0.500988 0.880621
C24   C     C_R   0.333838 0.796059 0.499837 -0.122173
C25   C     C_R   0.814586 0.686025 0.500033 -0.067394
C26   C     C_R   0.822175 0.306999 0.504735 -0.090060
C27   C     C_R   0.321010 0.252834 0.386049 -0.195506
C28   C     C_R   0.317622 0.750189 0.380178 -0.194180
C29   C     C_R   0.734155 0.668664 0.435649 -0.204291
C30   C     C_R   0.820151 0.247692 0.397545 -0.183239
C31   C     C_R   0.668384 0.732788 0.432532 -0.278292
C32   C     C_R   0.754063 0.184191 0.396360 -0.139824
C33   C     C_R   0.252785 0.315039 0.383528 -0.208041
C34   C     C_R   0.880983 0.620374 0.500636 0.889373
C35   C     C_R   0.253495 0.683680 0.381039 -0.229530
C36   C     C_R   0.683160 0.812075 0.498456 -0.102252
C37   C     C_R   0.690169 0.181798 0.500936 -0.104735
C38   C     C_R   0.199333 0.327645 0.499435 -0.172965
C39   C     C_R   0.205549 0.665712 0.500595 -0.154052
C40   C     C_R   0.763692 0.828825 0.560420 0.117024
C41   C     C_R   0.700421 0.233885 0.614677 0.009484
C42   C     C_R   0.225423 0.290899 0.620235 0.136836
C43   C     C_R   0.240381 0.695439 0.621670 0.154723
C44   C     C_3   0.780223 0.849472 0.705320 -0.050949
C45   C     C_3   0.250142 0.181438 0.737217 -0.624933
C46   C     C_3   0.635419 0.293311 0.688003 -0.097816
C47   C     C_3   0.173355 0.247304 0.732114 -0.075693
C48   C     C_3   0.200158 0.728040 0.752551 -0.054998
C49   C     C_3   0.230601 0.083039 0.199523 0.105204
C50   C     C_3   0.180879 0.135330 0.092944 -0.424856
C51   C     C_3   0.086119 0.158102 0.141178 -0.906194
C52   C     C_3   0.208794 0.888245 0.086093 -0.007526
C53   C     C_3   0.149365 0.841315 0.189858 -0.325197
C54   C     C_3   0.051137 0.846691 0.155555 -0.938782
C55   C     C_3   0.836854 0.708612 0.066761 0.013373
C56   C     C_3   0.268083 0.802468 0.744429 -0.651850
C57   C     C_3   0.818507 0.783514 0.166055 -0.295688
C58   C     C_3   0.827943 0.874273 0.102193 -0.926335
C59   C     C_3   0.686383 0.551178 0.120716 0.062780
C60   C     C_3   0.611049 0.498171 0.187854 -0.333838
C61   C     C_3   0.520850 0.544250 0.175181 -0.860722
C62   C     C_2   0.802597 0.944456 0.732352 0.485312
C63   C     C_2   0.605533 0.255460 0.822203 0.599284
C64   C     C_2   0.165426 0.304558 0.855853 0.476944
C65   C     C_2   0.217841 0.667701 0.869939 0.482034
C66   C     C_2   0.708979 0.810380 0.797950 0.371065
C67   C     C_3   0.861840 0.790307 0.692600 -0.610558
C68   C     C_2   0.558982 0.323759 0.601831 0.352199
C69   C     C_2   0.086689 0.206233 0.686539 0.335259
C70   C     C_2   0.104709 0.759731 0.743177 0.338212
C71   C     C_2   0.661559 0.035989 0.132441 0.402277
C72   C     C_2   0.166460 0.497769 0.134250 0.385584
C73   C     C_3   0.711545 0.360308 0.693154 -0.510513
C74   C     C_R   0.429778 0.965559 0.072906 0.159990
H1    H     H_    0.357769 0.238167 0.293929 0.205505
H2    H     H_    0.319397 0.801953 0.823929 0.230766
H3    H     H_    0.926255 0.826577 0.689125 0.220755
H4    H     H_    0.739084 0.371806 0.794388 0.246342
H5    H     H_    0.232289 0.112748 0.710672 0.177212
H6    H     H_    0.238121 0.867531 0.721587 0.180545
H7    H     H_    0.861498 0.733182 0.760969 0.215027
H8    H     H_    0.700381 0.421473 0.634354 0.164904
H9    H     H_    0.632441 0.043307 0.867214 0.193334
H10   H     H_    0.139077 0.500273 0.866380 0.221903
H11   H     H_    0.330645 0.064448 0.901027 0.211237
H12   H     H_    0.348516 0.769686 0.285508 0.209056
H13   H     H_    0.290593 0.951980 0.878222 0.178749
H14   H     H_    0.857626 0.606365 0.864850 0.202328
H15   H     H_    0.785669 0.508024 0.878431 0.196713
H16   H     H_    0.231874 0.123242 0.291552 0.162026
H17   H     H_    0.193012 0.024359 0.233213 0.157453
H18   H     H_    0.218180 0.196969 0.071804 0.258027
H19   H     H_    0.177117 0.097098 0.998446 0.220324
H20   H     H_    0.047964 0.097263 0.164803 0.263113
H21   H     H_    0.050838 0.194343 0.061170 0.283495
H22   H     H_    0.088167 0.200150 0.232236 0.260446
H23   H     H_    0.721907 0.604918 0.392129 0.173069
H24   H     H_    0.222933 0.841720 0.003243 0.150404
H25   H     H_    0.172574 0.945550 0.044098 0.153058
H26   H     H_    0.168405 0.771213 0.192359 0.218619
H27   H     H_    0.158557 0.869938 0.291400 0.235274
H28   H     H_    0.028234 0.916100 0.157133 0.262629
H29   H     H_    0.012267 0.809071 0.231943 0.275058
H30   H     H_    0.039916 0.817798 0.055034 0.298576
H31   H     H_    0.775490 0.698769 0.007275 0.103332
H32   H     H_    0.893427 0.726919 0.998445 0.197947
H33   H     H_    0.749333 0.777145 0.206381 0.225354
H34   H     H_    0.866852 0.252619 0.313238 0.178478
H35   H     H_    0.864781 0.778661 0.251468 0.243768
H36   H     H_    0.888012 0.878656 0.035544 0.263396
H37   H     H_    0.833203 0.924544 0.182350 0.268416
H38   H     H_    0.768325 0.889552 0.042896 0.297640
H39   H     H_    0.671476 0.557865 0.012166 0.139801
H40   H     H_    0.687574 0.617535 0.166600 0.158034
H41   H     H_    0.607380 0.432384 0.140028 0.273021
H42   H     H_    0.625455 0.488761 0.296089 0.212649
H43   H     H_    0.522392 0.609513 0.224789 0.244188
H44   H     H_    0.467746 0.503950 0.224551 0.282130
H45   H     H_    0.605734 0.719824 0.383340 0.158598
H46   H     H_    0.504208 0.552912 0.067662 0.290853
H47   H     H_    0.833005 0.962312 0.826491 0.086400
H48   H     H_    0.562942 0.197926 0.824432 0.062550
H49   H     H_    0.101564 0.312905 0.907738 0.090402
H50   H     H_    0.180098 0.675358 0.963443 0.075186
H51   H     H_    0.698163 0.739859 0.798743 0.071986
H52   H     H_    0.571892 0.342681 0.498001 0.075725
H53   H     H_    0.086848 0.165646 0.596892 0.068666
H54   H     H_    0.087079 0.806354 0.665420 0.058828
H55   H     H_    0.675508 0.005893 0.227996 0.119148
H56   H     H_    0.751447 0.139406 0.312791 0.192196
H57   H     H_    0.172097 0.501266 0.241006 0.124445
H58   H     H_    0.238471 0.348150 0.290077 0.192960
H59   H     H_    0.236458 0.652476 0.287368 0.168676
H60   H     H_    0.291347 0.188910 0.827871 0.241974
N1    N     N_R   0.499140 0.000000 0.142800 -0.164980
N2    N     N_R   0.999140 0.500000 0.142800 -0.162407
N3    N     N_R   0.499160 0.000000 0.857150 -0.111656
N4    N     N_R   0.999160 0.500000 0.857150 -0.109827
O1    O     O_R   0.408400 0.908380 0.614690 -0.606701
O2    O     O_R   0.591610 0.908390 0.614650 -0.564234
O3    O     O_R   0.091610 0.591610 0.614650 -0.592514
O4    O     O_R   0.091610 0.408390 0.614650 -0.610923
O5    O     O_R   0.591590 0.091600 0.385310 -0.651642
O6    O     O_R   0.591590 0.908400 0.385310 -0.657478
O7    O     O_R   0.091590 0.591600 0.385310 -0.652501
O8    O     O_R   0.091590 0.408400 0.385310 -0.661004
O9    O     O_3   0.320473 0.066642 0.158778 -0.634837
O10   O     O_3   0.289996 0.911817 0.147388 -0.669588
O11   O     O_3   0.862026 0.632699 0.139050 -0.624286
O12   O     O_R   0.408400 0.091620 0.614690 -0.613404
O13   O     O_3   0.768392 0.507000 0.140154 -0.638977
O14   O     O_2   0.786670 0.001763 0.650225 -0.579976
O15   O     O_2   0.626215 0.289520 0.928173 -0.570995
O16   O     O_2   0.230966 0.342008 0.899495 -0.526352
O17   O     O_2   0.277349 0.612745 0.863424 -0.517414
O18   O     O_2   0.660901 0.856518 0.868520 -0.603167
O19   O     O_2   0.482713 0.328532 0.647401 -0.544091
O20   O     O_2   0.016243 0.217918 0.748116 -0.562675
O21   O     O_2   0.046626 0.732925 0.820761 -0.623703
O22   O     O_2   0.720503 0.078524 0.076005 -0.597773
O23   O     O_R   0.908400 0.408380 0.614690 -0.591660
O24   O     O_2   0.236007 0.492155 0.068634 -0.509621
O25   O     O_R   0.908400 0.591620 0.614690 -0.614142
O26   O     O_R   0.408370 0.908370 0.385350 -0.592113
O27   O     O_R   0.408370 0.091630 0.385350 -0.571556
O28   O     O_R   0.908370 0.408370 0.385350 -0.610191
O29   O     O_R   0.908370 0.591630 0.385350 -0.552700
O30   O     O_R   0.591610 0.091610 0.614650 -0.624239
Zn1   Zn    Zn3+2 0.500010 0.000000 0.653130 0.994536
Zn2   Zn    Zn3+2 0.000010 0.500000 0.653130 1.000303
Zn3   Zn    Zn3+2 0.499980 0.000000 0.346870 0.982794
Zn4   Zn    Zn3+2 0.999980 0.500000 0.346870 0.975641

loop_
_geom_bond_atom_site_label_1
_geom_bond_atom_site_label_2
_ccdc_geom_bond_type
C19   C56   S    
O27   Zn3   S    
C30   C32   A    
C21   C26   A    
O28   Zn4   S    
O2    Zn1   S    
C56   H2    S    
O8    Zn4   S    
N4    Zn2   S    
C15   C36   S    
C20   C67   S    
C44   C66   S    
C67   H3    S    
C48   C56   S    
C49   H16   S    
C35   H59   S    
C32   H56   S    
C16   O7    A    
C53   C54   S    
C27   C33   A    
C71   O22   D    
O6    Zn3   S    
C10   H14   S    
C45   H60   S    
C60   H41   S    
C62   O14   D    
C55   H31   S    
C58   H38   S    
C54   H30   S    
C38   C42   A    
C18   C42   A    
C5    H9    S    
C11   O10   S    
C65   H50   S    
O12   Zn1   S    
C20   C25   A    
C64   O16   D    
C49   O9    S    
C8    N4    A    
C70   O21   D    
C23   C26   S    
C2    C13   S    
O25   Zn2   S    
C47   C69   S    
C9    H11   S    
C57   H35   S    
N2    Zn4   S    
C1    O26   A    
C53   H27   S    
C41   C46   S    
O1    Zn1   S    
N1    Zn3   S    
C48   C65   S    
C43   C48   S    
N3    Zn1   S    
C1    O1    A    
C25   C34   S    
C4    N2    A    
O7    Zn4   S    
C16   O3    A    
C59   C60   S    
C52   O10   S    
C18   C22   A    
C61   H46   S    
C49   H17   S    
C27   H1    S    
C19   C43   A    
C55   O11   S    
C7    C74   A    
C45   C47   S    
C53   H26   S    
C25   C29   A    
C21   C73   S    
C6    H10   S    
C55   H32   S    
C61   H43   S    
C58   H37   S    
C12   O12   A    
C54   H29   S    
C36   C40   A    
C13   O13   S    
C4    C6    A    
C34   O25   A    
C12   O27   A    
C7    N3    A    
C39   C43   A    
C51   H20   S    
C44   C62   S    
C73   H4    S    
C10   C13   S    
C2    N2    A    
C60   C61   S    
C6    N4    A    
C35   C39   A    
C46   C68   S    
C71   H55   S    
C23   O28   A    
C59   H39   S    
C31   H45   S    
C74   N1    A    
C50   C51   S    
C45   H5    S    
C32   C37   A    
C5    N3    A    
C9    C11   S    
C63   O15   D    
O29   Zn4   S    
C21   C41   A    
O23   Zn2   S    
C33   H58   S    
C50   H18   S    
O30   Zn1   S    
C57   H33   S    
C67   H7    S    
C22   C27   A    
C55   C57   S    
C28   H12   S    
C12   C22   S    
C60   H42   S    
C14   O30   A    
C68   O19   D    
C18   C45   S    
C68   H52   S    
C73   H8    S    
C4    C72   S    
C63   H48   S    
C52   C53   S    
C72   H57   S    
C15   O2    A    
C70   H54   S    
C7    C9    S    
C14   O5    A    
C30   H34   S    
C61   H44   S    
C58   H36   S    
C54   H28   S    
C8    C10   S    
C2    C8    A    
C24   C28   A    
C48   C70   S    
C3    C5    A    
C11   C74   S    
C47   C64   S    
C50   H19   S    
C26   C30   A    
C3    C71   S    
C59   O13   S    
C64   H49   S    
C51   H22   S    
C52   H25   S    
C33   C38   A    
C56   H6    S    
C66   H51   S    
C29   H23   S    
C46   C63   S    
C17   O8    A    
C13   O11   S    
C65   O17   D    
C9    H13   S    
C14   C37   S    
C66   O18   D    
C11   O9    S    
C57   C58   S    
C59   H40   S    
C20   C40   A    
C10   H15   S    
C52   H24   S    
O3    Zn2   S    
C69   O20   D    
C19   C24   A    
C3    N1    A    
C42   C47   S    
C46   C73   S    
C37   C41   A    
C16   C39   S    
O5    Zn3   S    
C15   O6    A    
C40   C44   S    
C17   C38   S    
C69   H53   S    
C1    C24   S    
C29   C31   A    
C49   C50   S    
C72   O24   D    
C31   C36   A    
C17   O4    A    
C44   C67   S    
O26   Zn3   S    
C28   C35   A    
C62   H47   S    
O4    Zn2   S    
C34   O29   A    
C51   H21   S    
C23   O23   A    
