data_mof_unit_32101.cif
_audit_creation_date              2012-12-10T18:50:01-0500
_audit_creation_method            fapswitch 2.2
_symmetry_space_group_name_H-M    P1
_symmetry_Int_Tables_number       1
_space_group_crystal_system       triclinic
_cell_length_a                    10.698578
_cell_length_b                    9.834978
_cell_length_c                    10.625961
_cell_angle_alpha                 90.227181
_cell_angle_beta                  90.03164
_cell_angle_gamma                 90.002914
_cell_volume                      1118.05762286

loop_
_atom_site_label
_atom_site_type_symbol
_atom_type_description
_atom_site_fract_x
_atom_site_fract_y
_atom_site_fract_z
_atom_type_partial_charge
C1    C     C_R   0.259884 0.499974 0.499637 0.958996
C2    C     C_R   0.575931 0.928373 0.579899 -0.077556
C3    C     C_R   0.423848 0.927652 0.420188 -0.070571
C4    C     C_R   0.423815 0.071586 0.420248 -0.069722
C5    C     C_R   0.491204 0.499823 0.258191 0.954576
C6    C     C_R   0.740083 0.500008 0.500109 0.871267
C7    C     C_R   0.489501 0.500376 0.741521 0.901782
C8    C     C_3   0.414425 0.631815 0.074557 0.175313
C9    C     C_3   0.413915 0.368568 0.072162 0.266424
C10   C     C_3   0.425110 0.640244 0.929499 -0.218340
C11   C     C_3   0.402286 0.376000 0.926679 -0.252347
C12   C     C_3   0.615313 0.487846 0.927363 -0.472211
C13   C     C_3   0.617110 0.499128 0.070947 -0.564727
C14   C     C_3   0.481443 0.499737 0.121957 -0.018091
C15   C     C_3   0.479108 0.501536 0.877806 0.006052
C16   C     C_2   0.309086 0.699032 0.867074 0.564427
C17   C     C_2   0.270617 0.368005 0.873939 0.593131
C18   C     C_R   0.064108 0.382426 0.536175 -0.153636
C19   C     C_R   0.064048 0.617526 0.463490 -0.097636
C20   C     C_R   0.936047 0.382464 0.536379 -0.167395
C21   C     C_R   0.935989 0.617594 0.463756 -0.182448
C22   C     C_R   0.872537 0.500036 0.500126 -0.024722
C23   C     C_R   0.127516 0.499944 0.499698 0.022746
C24   C     C_R   0.575966 0.072323 0.579868 -0.079816
Cl1   Cl    Cl    0.257681 0.647927 0.135498 -0.568145
Cl2   Cl    Cl    0.272504 0.324113 0.155217 -0.551873
H1    H     H_    0.464352 0.722498 0.112653 0.110203
H2    H     H_    0.655796 0.388150 0.898394 0.199908
H3    H     H_    0.113158 0.291461 0.565440 0.149195
H4    H     H_    0.113064 0.708451 0.434069 0.167829
H5    H     H_    0.887063 0.291509 0.565757 0.153000
H6    H     H_    0.886963 0.708595 0.434551 0.160875
H7    H     H_    0.636723 0.127207 0.643691 0.126359
H8    H     H_    0.636631 0.874040 0.643771 0.128281
H9    H     H_    0.272446 0.795222 0.901259 0.074267
H10   H     H_    0.253812 0.308230 0.789516 0.005102
H11   H     H_    0.476526 0.280886 0.093126 0.101497
H12   H     H_    0.363010 0.872764 0.356437 0.160542
H13   H     H_    0.362866 0.125823 0.356653 0.179045
H14   H     H_    0.497763 0.718729 0.910016 0.086969
H15   H     H_    0.448657 0.282141 0.890539 0.085330
H16   H     H_    0.666313 0.594246 0.099405 0.209166
H17   H     H_    0.671278 0.412424 0.110417 0.209002
H18   H     H_    0.676497 0.568411 0.887126 0.200543
N1    N     N_R   0.499970 0.857200 0.499970 -0.083789
N2    N     N_R   0.499970 0.142800 0.499970 -0.086634
O1    O     O_R   0.316750 0.614620 0.499990 -0.600578
O2    O     O_2   0.183642 0.430378 0.920952 -0.444372
O3    O     O_R   0.316750 0.385380 0.499990 -0.631353
O4    O     O_R   0.499970 0.614670 0.314790 -0.628478
O5    O     O_R   0.499970 0.385330 0.314790 -0.611360
O6    O     O_R   0.683220 0.614710 0.500010 -0.630486
O7    O     O_R   0.683220 0.385290 0.500010 -0.624871
O8    O     O_R   0.500010 0.614660 0.685200 -0.612553
O9    O     O_R   0.500010 0.385340 0.685200 -0.655799
O10   O     O_2   0.257870 0.644616 0.777499 -0.578342
Zn1   Zn    Zn3+2 0.499980 0.653120 0.500000 0.975951
Zn2   Zn    Zn3+2 0.499980 0.346880 0.500000 0.960070

loop_
_geom_bond_atom_site_label_1
_geom_bond_atom_site_label_2
_ccdc_geom_bond_type
C19   C23   A    
C9    C14   S    
C4    H13   S    
C1    C23   S    
C20   H5    S    
C17   H10   S    
O1    Zn1   S    
C16   H9    S    
C24   H7    S    
C12   C15   S    
C7    O9    A    
O7    Zn2   S    
C17   O2    D    
C24   N2    A    
C2    H8    S    
C9    H11   S    
C12   H18   S    
C18   H3    S    
C10   C16   S    
C21   C22   A    
N2    Zn2   S    
C8    Cl1   S    
C9    C11   S    
N1    Zn1   S    
C5    C14   S    
C11   C15   S    
C16   O10   D    
C12   H2    S    
C10   H14   S    
C13   H16   S    
C19   C21   A    
C20   C22   A    
C9    Cl2   S    
C11   H15   S    
C18   C20   A    
C10   C15   S    
C2    N1    A    
C2    C24   A    
C4    N2    A    
C21   H6    S    
C5    O4    A    
O6    Zn1   S    
C6    O7    A    
C18   C23   A    
C6    C22   S    
C13   H17   S    
O4    Zn1   S    
C12   C13   S    
C8    C10   S    
O9    Zn2   S    
C5    O5    A    
O5    Zn2   S    
C8    H1    S    
C1    O1    A    
C8    C14   S    
C7    C15   S    
C7    O8    A    
C6    O6    A    
C13   C14   S    
C19   H4    S    
C1    O3    A    
C3    N1    A    
C11   C17   S    
O3    Zn2   S    
C3    C4    A    
C3    H12   S    
O8    Zn1   S    
