data_mof_unit_59715.cif
_audit_creation_date              2012-12-10T17:55:51-0500
_audit_creation_method            fapswitch 2.2
_symmetry_space_group_name_H-M    P1
_symmetry_Int_Tables_number       1
_space_group_crystal_system       triclinic
_cell_length_a                    18.318035
_cell_length_b                    18.366119
_cell_length_c                    26.030926
_cell_angle_alpha                 90.51866
_cell_angle_beta                  90.009762
_cell_angle_gamma                 90.125778
_cell_volume                      8757.23587209

loop_
_atom_site_label
_atom_site_type_symbol
_atom_type_description
_atom_site_fract_x
_atom_site_fract_y
_atom_site_fract_z
_atom_type_partial_charge
C1    C     C_R   0.140712 0.860390 0.250196 0.847999
C2    C     C_R   0.267951 0.820949 0.229952 0.361996
C3    C     C_3   0.302082 0.640636 0.935563 -0.777425
C4    C     C_3   0.104954 0.905769 0.557819 0.147001
C5    C     C_3   0.164054 0.964059 0.568193 -0.389187
C6    C     C_3   0.233410 0.929507 0.589284 -1.021698
C7    C     C_3   0.143681 0.016937 0.426208 0.044409
C8    C     C_3   0.167324 0.937651 0.417315 -0.354011
C9    C     C_3   0.223395 0.931968 0.374109 -0.930574
C10   C     C_3   0.384606 0.415697 0.049428 0.059544
C11   C     C_3   0.356140 0.353039 0.016003 -0.286734
C12   C     C_3   0.278077 0.332493 0.030456 -0.994352
C13   C     C_R   0.783015 0.771837 0.800527 0.415844
C14   C     C_3   0.627178 0.447897 0.942484 0.072711
C15   C     C_3   0.637591 0.367969 0.926986 -0.274737
C16   C     C_3   0.708592 0.356555 0.897417 -0.978189
C17   C     C_3   0.294428 0.941028 0.727530 0.074750
C18   C     C_3   0.329933 0.013747 0.741886 -0.275270
C19   C     C_3   0.333049 0.064544 0.695927 -0.999389
C20   C     C_3   0.283369 0.886543 0.156811 0.143615
C21   C     C_3   0.286341 0.964177 0.136267 -0.308061
C22   C     C_3   0.286757 0.964682 0.077650 -0.993665
C23   C     C_3   0.886332 0.787206 0.854431 0.072437
C24   C     C_R   0.759116 0.792946 0.204275 0.386087
C25   C     C_3   0.920200 0.716745 0.831735 -0.469624
C26   C     C_3   0.001342 0.712003 0.844633 -0.914871
C27   C     C_3   0.722314 0.895749 0.161678 0.167902
C28   C     C_3   0.654370 0.883227 0.128456 -0.361167
C29   C     C_3   0.610669 0.953233 0.122333 -0.987519
C30   C     C_3   0.794236 0.413084 0.317985 0.154936
C31   C     C_3   0.871179 0.403510 0.339922 -0.362777
C32   C     C_3   0.915661 0.473571 0.336020 -0.987058
C33   C     C_3   0.750972 0.347763 0.635168 0.137161
C34   C     C_3   0.760159 0.411646 0.598556 -0.305476
C35   C     C_R   0.749119 0.302318 0.291231 0.396042
C36   C     C_3   0.745005 0.388689 0.543027 -1.014365
C37   C     C_3   0.334297 0.289218 0.370298 0.116183
C38   C     C_3   0.348950 0.330875 0.420293 -0.316346
C39   C     C_3   0.409979 0.295916 0.451338 -0.977355
C40   C     C_3   0.188470 0.404555 0.684097 0.124133
C41   C     C_3   0.193298 0.471003 0.649410 -0.307342
C42   C     C_3   0.127770 0.521134 0.657268 -1.003685
C43   C     C_3   0.805215 0.190100 0.373055 0.128541
C44   C     C_3   0.787820 0.233126 0.422195 -0.339347
C45   C     C_3   0.748510 0.185960 0.461493 -0.982615
C46   C     C_R   0.760061 0.312623 0.718354 0.362368
C47   C     C_3   0.934234 0.307100 0.730413 0.135265
C48   C     C_3   0.933348 0.390411 0.727745 -0.332595
C49   C     C_3   0.994191 0.423990 0.760319 -1.003570
C50   C     C_3   0.120122 0.271293 0.353027 0.140338
C51   C     C_3   0.080295 0.249080 0.402091 -0.321857
C52   C     C_3   0.013419 0.296434 0.412035 -0.987351
C53   C     C_3   0.187881 0.211824 0.623138 0.119936
C54   C     C_3   0.132789 0.198560 0.580001 -0.322450
C55   C     C_3   0.170540 0.171750 0.531120 -1.005877
C56   C     C_3   0.434306 0.820994 0.731687 0.084344
C57   C     C_R   0.266054 0.288572 0.297343 0.363582
C58   C     C_3   0.512273 0.791985 0.729283 -0.278239
C59   C     C_3   0.557188 0.832193 0.689066 -1.006693
C60   C     C_3   0.435617 0.809657 0.255247 0.126180
C61   C     C_3   0.511465 0.828007 0.234553 -0.306858
C62   C     C_3   0.564663 0.846363 0.277903 -0.989138
C63   C     C_3   0.734310 0.652743 0.874887 0.104875
C64   C     C_3   0.752261 0.580163 0.847639 -0.427806
C65   C     C_3   0.798937 0.531739 0.881771 -0.971685
C66   C     C_3   0.703062 0.658647 0.132296 0.107389
C67   C     C_3   0.746056 0.684015 0.085309 -0.316138
C68   C     C_R   0.249322 0.303308 0.709868 0.350814
C69   C     C_3   0.770344 0.619714 0.051948 -1.014961
C70   C     C_R   0.797349 0.243877 0.293939 0.384170
C71   C     C_R   0.817227 0.263201 0.723090 0.385344
C72   C     C_R   0.209904 0.236756 0.296959 0.349866
C73   C     C_R   0.140671 0.860248 0.749474 0.815831
C74   C     C_R   0.199948 0.245257 0.707189 0.343826
C75   C     C_R   0.325900 0.771649 0.759063 0.411258
C76   C     C_R   0.322841 0.768362 0.232735 0.359698
C77   C     C_R   0.725534 0.720450 0.799975 0.421095
C78   C     C_R   0.710379 0.734454 0.202998 0.399933
C79   C     C_R   0.802236 0.194612 0.252280 -0.181087
C80   C     C_R   0.806509 0.198954 0.751702 -0.177304
C81   C     C_R   0.197174 0.195380 0.251915 -0.146604
C82   C     C_R   0.197757 0.194496 0.747530 -0.142613
C83   C     C_R   0.306353 0.698991 0.747601 -0.160791
C84   C     C_R   0.859768 0.859878 0.249560 0.852335
C85   C     C_R   0.306230 0.698604 0.251990 -0.162989
C86   C     C_R   0.699233 0.693608 0.752496 -0.154112
C87   C     C_R   0.698292 0.693841 0.247918 -0.168889
C88   C     C_R   0.933915 0.996825 0.026777 -0.182995
C89   C     C_R   0.933931 0.996762 0.973166 -0.187576
C90   C     C_R   0.066056 0.002502 0.026840 -0.196968
C91   C     C_R   0.066081 0.002364 0.973234 -0.183159
C92   C     C_R   0.433982 0.503556 0.526840 -0.185947
C93   C     C_R   0.434029 0.503948 0.473251 -0.197989
C94   C     C_R   0.565988 0.496239 0.526803 -0.199327
C95   C     C_R   0.860453 0.859216 0.750427 0.834687
C96   C     C_R   0.566013 0.495986 0.473199 -0.180016
C97   C     C_R   0.000009 0.999618 0.945874 -0.000582
C98   C     C_R   0.999983 0.999757 0.054130 0.001679
C99   C     C_R   0.500011 0.499873 0.445889 0.005971
C100  C     C_R   0.499983 0.499834 0.554138 0.002877
C101  C     C_R   0.859179 0.139518 0.250825 0.840597
C102  C     C_R   0.860648 0.140878 0.750673 0.831885
C103  C     C_R   0.140544 0.139814 0.250617 0.854412
C104  C     C_R   0.140773 0.139354 0.749238 0.824012
C105  C     C_R   0.360378 0.640840 0.749555 0.837292
C106  C     C_R   0.640177 0.359842 0.749601 0.836346
C107  C     C_R   0.360392 0.640604 0.250509 0.822094
C108  C     C_R   0.640647 0.639833 0.750503 0.833101
C109  C     C_R   0.640665 0.639421 0.249508 0.819528
C110  C     C_R   0.999994 0.999945 0.110800 0.784667
C111  C     C_R   0.000004 0.999838 0.889201 0.766201
C112  C     C_R   0.499996 0.499944 0.610802 0.777309
C113  C     C_R   0.500003 0.499918 0.389208 0.776378
C114  C     C_R   0.002204 0.001061 0.387964 0.807130
C115  C     C_R   0.002456 0.998856 0.611662 0.763845
C116  C     C_R   0.501163 0.500457 0.888444 0.776596
C117  C     C_R   0.640542 0.359991 0.250020 0.844462
C118  C     C_R   0.496258 0.499642 0.111489 0.753234
C119  C     C_2   0.967602 0.037525 0.527179 0.281970
C120  C     C_2   0.956934 0.018370 0.472222 0.285787
C121  C     C_2   0.482992 0.557415 0.027451 0.257756
C122  C     C_2   0.470158 0.549896 0.971490 0.273205
C123  C     C_2   0.007987 0.992739 0.556170 0.279092
C124  C     C_2   0.015849 0.007676 0.442295 0.318082
C125  C     C_2   0.478461 0.497349 0.056854 0.266564
C126  C     C_2   0.511417 0.502973 0.943851 0.261128
C127  C     C_R   0.752667 0.198764 0.211476 -0.264917
C128  C     C_R   0.359609 0.360079 0.749807 0.846460
C129  C     C_R   0.742718 0.189960 0.780551 -0.260885
C130  C     C_R   0.238699 0.207299 0.207641 -0.264280
C131  C     C_R   0.250049 0.197100 0.786652 -0.268481
C132  C     C_R   0.234867 0.681724 0.733094 -0.275200
C133  C     C_R   0.237183 0.684357 0.272554 -0.263283
C134  C     C_R   0.731102 0.715431 0.706427 -0.283940
C135  C     C_R   0.741070 0.706070 0.291624 -0.265897
C136  C     C_R   0.181689 0.735135 0.732738 -0.257707
C137  C     C_R   0.183978 0.737764 0.272418 -0.266211
C138  C     C_R   0.784332 0.768927 0.706611 -0.264392
C139  C     C_R   0.360160 0.359487 0.250346 0.830647
C140  C     C_R   0.794057 0.759902 0.291502 -0.258867
C141  C     C_R   0.699637 0.252347 0.211335 -0.260545
C142  C     C_R   0.689174 0.242998 0.780086 -0.268913
C143  C     C_R   0.292083 0.260746 0.207482 -0.264223
C144  C     C_R   0.303322 0.250508 0.786578 -0.269813
C145  C     C_R   0.199281 0.806855 0.746559 -0.170641
C146  C     C_R   0.198481 0.805846 0.250833 -0.159182
C147  C     C_R   0.808339 0.799543 0.752996 -0.166104
C148  C     C_R   0.803351 0.803808 0.248286 -0.181741
C149  C     C_R   0.697343 0.304454 0.250866 -0.184752
C150  C     C_R   0.272407 0.826281 0.757839 0.375651
C151  C     C_R   0.697163 0.304490 0.749127 -0.167236
C152  C     C_R   0.305214 0.302327 0.251792 -0.154726
C153  C     C_R   0.303298 0.303993 0.748597 -0.156136
C154  C     C_3   0.938225 0.158624 0.523457 0.098675
C155  C     C_3   0.905551 0.221002 0.554556 -0.793797
C156  C     C_3   0.836958 0.981121 0.480668 0.104680
C157  C     C_3   0.769677 0.963596 0.448574 -0.855907
C158  C     C_3   0.540203 0.669578 0.024495 0.126272
C159  C     C_3   0.547041 0.742157 0.052680 -0.779238
C160  C     C_3   0.353404 0.594896 0.967884 0.093508
H1    H     H_    0.754892 0.160599 0.179539 0.189909
H2    H     H_    0.130828 0.725174 0.288319 0.193115
H3    H     H_    0.644022 0.995198 0.102692 0.269092
H4    H     H_    0.769554 0.462506 0.335698 0.180655
H5    H     H_    0.797181 0.423567 0.275817 0.101238
H6    H     H_    0.867564 0.387425 0.380916 0.246642
H7    H     H_    0.900012 0.360095 0.318078 0.240946
H8    H     H_    0.920259 0.490488 0.295281 0.267061
H9    H     H_    0.971382 0.464350 0.351430 0.270255
H10   H     H_    0.889497 0.517868 0.358725 0.269271
H11   H     H_    0.788031 0.303121 0.622421 0.159749
H12   H     H_    0.693338 0.328271 0.633056 0.120100
H13   H     H_    0.805466 0.787987 0.670231 0.182951
H14   H     H_    0.721932 0.455925 0.609811 0.238083
H15   H     H_    0.816881 0.432964 0.601399 0.224316
H16   H     H_    0.784556 0.346402 0.530420 0.271514
H17   H     H_    0.750698 0.436534 0.517555 0.269381
H18   H     H_    0.688646 0.366840 0.539212 0.270946
H19   H     H_    0.315090 0.233330 0.379924 0.155686
H20   H     H_    0.386155 0.285484 0.348030 0.116067
H21   H     H_    0.364697 0.387662 0.411145 0.243445
H22   H     H_    0.298282 0.332349 0.443787 0.218675
H23   H     H_    0.395119 0.239138 0.461406 0.263183
H24   H     H_    0.826829 0.768231 0.325716 0.189384
H25   H     H_    0.418812 0.327564 0.487371 0.277713
H26   H     H_    0.461652 0.295752 0.429001 0.265113
H27   H     H_    0.190400 0.423787 0.724888 0.114847
H28   H     H_    0.135427 0.376732 0.676760 0.173306
H29   H     H_    0.244297 0.501625 0.658135 0.247466
H30   H     H_    0.195081 0.452944 0.608552 0.223058
H31   H     H_    0.076599 0.492668 0.645904 0.274840
H32   H     H_    0.134179 0.570355 0.633215 0.272319
H33   H     H_    0.123541 0.538384 0.698162 0.262518
H34   H     H_    0.843550 0.145467 0.382779 0.191725
H35   H     H_    0.661215 0.253762 0.179720 0.195559
H36   H     H_    0.754221 0.163529 0.358338 0.102587
H37   H     H_    0.839266 0.254575 0.439231 0.215434
H38   H     H_    0.752260 0.280040 0.413000 0.267784
H39   H     H_    0.695802 0.165961 0.445606 0.265710
H40   H     H_    0.737187 0.218649 0.496664 0.265923
H41   H     H_    0.782694 0.138678 0.472104 0.292019
H42   H     H_    0.988703 0.287646 0.717510 0.191819
H43   H     H_    0.928060 0.289132 0.771076 0.093380
H44   H     H_    0.940237 0.407553 0.687180 0.236088
H45   H     H_    0.880235 0.411280 0.742122 0.246810
H46   H     H_    0.640958 0.235229 0.803508 0.197698
H47   H     H_    0.986552 0.409824 0.801367 0.268765
H48   H     H_    0.993034 0.484180 0.756724 0.275857
H49   H     H_    0.048250 0.404017 0.747207 0.256844
H50   H     H_    0.080075 0.273813 0.320856 0.151182
H51   H     H_    0.144037 0.326445 0.359186 0.162351
H52   H     H_    0.062620 0.191275 0.398892 0.253497
H53   H     H_    0.118337 0.254289 0.435166 0.217182
H54   H     H_    0.029150 0.354817 0.414256 0.265535
H55   H     H_    0.987802 0.280771 0.448957 0.255235
H56   H     H_    0.972863 0.288284 0.380841 0.298758
H57   H     H_    0.322427 0.270338 0.172444 0.182489
H58   H     H_    0.214132 0.158899 0.632315 0.110180
H59   H     H_    0.230190 0.250579 0.609307 0.177926
H60   H     H_    0.092422 0.157104 0.592441 0.247343
H61   H     H_    0.103157 0.249885 0.571676 0.227231
H62   H     H_    0.206981 0.214815 0.515783 0.267474
H63   H     H_    0.129015 0.157925 0.501573 0.281433
H64   H     H_    0.203343 0.122377 0.539029 0.268259
H65   H     H_    0.436740 0.880646 0.738706 0.174629
H66   H     H_    0.408320 0.810589 0.693420 0.084448
H67   H     H_    0.538869 0.798601 0.767441 0.256595
H68   H     H_    0.343665 0.250772 0.817011 0.194648
H69   H     H_    0.510682 0.733155 0.719087 0.210227
H70   H     H_    0.532362 0.825078 0.650404 0.262815
H71   H     H_    0.613417 0.810054 0.688067 0.279712
H72   H     H_    0.560263 0.891164 0.698703 0.271838
H73   H     H_    0.441052 0.766671 0.284958 0.114609
H74   H     H_    0.411949 0.859622 0.273231 0.146873
H75   H     H_    0.532939 0.780821 0.212315 0.265278
H76   H     H_    0.507426 0.875177 0.208261 0.220015
H77   H     H_    0.544750 0.893959 0.300438 0.265715
H78   H     H_    0.618884 0.859835 0.261526 0.260265
H79   H     H_    0.882120 0.994527 0.046766 0.159231
H80   H     H_    0.571070 0.798990 0.303743 0.264612
H81   H     H_    0.702688 0.639886 0.910100 0.157012
H82   H     H_    0.784333 0.680382 0.888789 0.172085
H83   H     H_    0.700741 0.551217 0.837737 0.216292
H84   H     H_    0.783059 0.590080 0.811618 0.215420
H85   H     H_    0.851518 0.558966 0.891088 0.265441
H86   H     H_    0.810896 0.479845 0.861296 0.276004
H87   H     H_    0.769925 0.519596 0.918106 0.259342
H88   H     H_    0.657176 0.623474 0.119109 0.175202
H89   H     H_    0.738610 0.623904 0.156862 0.092701
H90   H     H_    0.882149 0.994431 0.953128 0.166796
H91   H     H_    0.711527 0.720666 0.061890 0.229316
H92   H     H_    0.795008 0.714988 0.098175 0.245395
H93   H     H_    0.806289 0.583022 0.074255 0.270890
H94   H     H_    0.801178 0.640012 0.018233 0.270455
H95   H     H_    0.722220 0.588508 0.037846 0.255543
H96   H     H_    0.117800 0.005005 0.046888 0.160981
H97   H     H_    0.734020 0.141832 0.803523 0.197561
H98   H     H_    0.117883 0.004632 0.953260 0.164274
H99   H     H_    0.382234 0.506572 0.546857 0.159088
H100  H     H_    0.382319 0.507638 0.453303 0.154695
H101  H     H_    0.617681 0.493643 0.546822 0.165033
H102  H     H_    0.617767 0.492839 0.453196 0.161323
H103  H     H_    0.911298 0.156789 0.485232 0.174492
H104  H     H_    0.997448 0.170049 0.518130 0.139680
H105  H     H_    0.933091 0.225341 0.592491 0.290834
H106  H     H_    0.912869 0.273013 0.533753 0.191079
H107  H     H_    0.846342 0.211342 0.560607 0.252199
H108  H     H_    0.228985 0.176025 0.172796 0.182485
H109  H     H_    0.819771 0.015424 0.513899 0.184834
H110  H     H_    0.859858 0.928738 0.494793 0.145634
H111  H     H_    0.784937 0.928329 0.415401 0.258301
H112  H     H_    0.728812 0.934576 0.472386 0.211661
H113  H     H_    0.744932 0.014571 0.434033 0.254893
H114  H     H_    0.522907 0.681303 0.984491 0.192203
H115  H     H_    0.594592 0.642612 0.024017 0.118547
H116  H     H_    0.589421 0.776200 0.034046 0.194999
H117  H     H_    0.494132 0.771527 0.051612 0.254360
H118  H     H_    0.562363 0.733137 0.093343 0.291375
H119  H     H_    0.249727 0.157937 0.817515 0.189759
H120  H     H_    0.352930 0.617119 0.007788 0.171025
H121  H     H_    0.332474 0.537876 0.967639 0.118463
H122  H     H_    0.300887 0.619560 0.895428 0.251661
H123  H     H_    0.246048 0.638275 0.951744 0.192903
H124  H     H_    0.320800 0.698202 0.935461 0.268457
H125  H     H_    0.129139 0.864265 0.531651 0.153558
H126  H     H_    0.091606 0.875264 0.593129 0.167634
H127  H     H_    0.177823 0.992456 0.532174 0.262321
H128  H     H_    0.144827 0.005152 0.596562 0.193535
H129  H     H_    0.221111 0.899015 0.624911 0.256974
H130  H     H_    0.219639 0.626247 0.723563 0.190738
H131  H     H_    0.274085 0.972662 0.598333 0.271753
H132  H     H_    0.257356 0.891632 0.560395 0.270407
H133  H     H_    0.191030 0.046891 0.442749 0.167049
H134  H     H_    0.131787 0.045332 0.389647 0.151225
H135  H     H_    0.191727 0.916091 0.453127 0.218891
H136  H     H_    0.119685 0.902975 0.407372 0.244662
H137  H     H_    0.199930 0.952490 0.337659 0.260524
H138  H     H_    0.239290 0.874150 0.368339 0.263043
H139  H     H_    0.272954 0.964145 0.383949 0.258475
H140  H     H_    0.348428 0.463755 0.043827 0.088378
H141  H     H_    0.223877 0.631452 0.288113 0.192661
H142  H     H_    0.382130 0.399041 0.090383 0.161485
H143  H     H_    0.357630 0.369336 0.974979 0.219381
H144  H     H_    0.391918 0.304762 0.020813 0.234396
H145  H     H_    0.275619 0.314736 0.071113 0.263821
H146  H     H_    0.259055 0.286955 0.005464 0.269376
H147  H     H_    0.241074 0.379665 0.025111 0.264059
H148  H     H_    0.671210 0.463191 0.969903 0.145932
H149  H     H_    0.634389 0.483897 0.908644 0.103095
H150  H     H_    0.638393 0.333980 0.962098 0.223064
H151  H     H_    0.591327 0.349390 0.902620 0.250176
H152  H     H_    0.712225 0.693448 0.669991 0.183469
H153  H     H_    0.707532 0.387620 0.861012 0.269751
H154  H     H_    0.715153 0.297869 0.887982 0.272075
H155  H     H_    0.755964 0.374448 0.921017 0.265125
H156  H     H_    0.238706 0.952137 0.712817 0.141160
H157  H     H_    0.326547 0.915142 0.696006 0.097467
H158  H     H_    0.297904 0.040128 0.773114 0.242832
H159  H     H_    0.386228 0.004341 0.756232 0.213003
H160  H     H_    0.367557 0.040601 0.665057 0.262779
H161  H     H_    0.356751 0.117755 0.707883 0.277704
H162  H     H_    0.277243 0.073730 0.680836 0.252636
H163  H     H_    0.733026 0.674463 0.326115 0.184891
H164  H     H_    0.331549 0.856076 0.142053 0.174345
H165  H     H_    0.232505 0.859977 0.142138 0.123599
H166  H     H_    0.238095 0.995065 0.150355 0.257131
H167  H     H_    0.336459 0.991781 0.150727 0.223582
H168  H     H_    0.336028 0.936379 0.062734 0.272492
H169  H     H_    0.287450 0.021777 0.063984 0.268934
H170  H     H_    0.237158 0.937199 0.062319 0.264413
H171  H     H_    0.916509 0.835488 0.840598 0.159140
H172  H     H_    0.896306 0.786735 0.896523 0.167542
H173  H     H_    0.892408 0.668223 0.847354 0.226705
H174  H     H_    0.126104 0.719826 0.723229 0.191126
H175  H     H_    0.915047 0.715229 0.789284 0.227734
H176  H     H_    0.031173 0.759209 0.828327 0.258569
H177  H     H_    0.024413 0.661205 0.827886 0.265525
H178  H     H_    0.009393 0.711193 0.886918 0.260450
H179  H     H_    0.753598 0.941999 0.145340 0.180050
H180  H     H_    0.705990 0.913099 0.201267 0.103065
H181  H     H_    0.670955 0.862748 0.089896 0.238624
H182  H     H_    0.618563 0.842193 0.146655 0.251329
H183  H     H_    0.593262 0.974418 0.160511 0.267872
H184  H     H_    0.561230 0.941975 0.098850 0.276021
O1    O     O_3   1.000000 0.000000 0.250030 -0.482990
O2    O     O_R   0.585480 0.353820 0.219950 -0.646738
O3    O     O_R   0.414520 0.353820 0.780050 -0.656214
O4    O     O_R   0.414520 0.353820 0.219950 -0.658990
O5    O     O_R   0.914530 0.146170 0.280090 -0.607835
O6    O     O_R   0.914530 0.146170 0.719910 -0.600980
O7    O     O_R   0.085470 0.146170 0.280090 -0.631018
O8    O     O_R   0.085470 0.146170 0.719910 -0.608851
O9    O     O_R   0.414530 0.646170 0.780090 -0.587515
O10   O     O_R   0.414530 0.646170 0.219910 -0.593472
O11   O     O_R   0.585470 0.646170 0.780090 -0.610323
O12   O     O_3   0.000000 0.000000 0.749970 -0.490927
O13   O     O_R   0.585470 0.646170 0.219910 -0.615788
O14   O     O_R   0.146180 0.085440 0.219990 -0.659556
O15   O     O_R   0.146180 0.085440 0.780010 -0.659324
O16   O     O_R   0.853820 0.085440 0.219990 -0.664787
O17   O     O_R   0.853820 0.085440 0.780010 -0.651810
O18   O     O_R   0.646180 0.585440 0.719990 -0.652505
O19   O     O_R   0.646180 0.585440 0.280010 -0.666690
O20   O     O_R   0.353820 0.585440 0.719990 -0.671438
O21   O     O_R   0.353820 0.585440 0.280010 -0.656876
O22   O     O_R   0.853820 0.914550 0.219980 -0.635616
O23   O     O_3   0.500000 0.500000 0.750030 -0.493589
O24   O     O_R   0.853820 0.914550 0.780020 -0.618133
O25   O     O_R   0.146180 0.914550 0.219980 -0.618949
O26   O     O_R   0.146180 0.914550 0.780020 -0.600656
O27   O     O_R   0.353820 0.414550 0.719980 -0.603401
O28   O     O_R   0.353820 0.414550 0.280020 -0.599261
O29   O     O_R   0.646180 0.414550 0.719980 -0.601356
O30   O     O_R   0.646180 0.414550 0.280020 -0.623074
O31   O     O_R   0.060720 0.999990 0.135450 -0.655477
O32   O     O_R   0.060720 0.999990 0.864550 -0.642109
O33   O     O_R   0.939280 0.999990 0.135450 -0.645487
O34   O     O_3   0.500000 0.500000 0.249970 -0.491483
O35   O     O_R   0.939280 0.999990 0.864550 -0.647675
O36   O     O_R   0.560720 0.499990 0.635450 -0.654839
O37   O     O_R   0.560720 0.499990 0.364550 -0.641582
O38   O     O_R   0.439280 0.499990 0.635450 -0.644117
O39   O     O_R   0.439280 0.499990 0.364550 -0.649905
O40   O     O_R   1.000000 0.939270 0.364600 -0.650380
O41   O     O_R   0.000000 0.939270 0.635400 -0.658781
O42   O     O_R   0.500000 0.439270 0.864600 -0.652197
O43   O     O_R   0.500000 0.439270 0.135400 -0.633505
O44   O     O_R   0.000000 0.060730 0.364620 -0.667370
O45   O     O_R   0.085480 0.853820 0.280050 -0.651434
O46   O     O_R   0.000000 0.060730 0.635380 -0.615368
O47   O     O_R   0.500000 0.560730 0.864620 -0.605026
O48   O     O_R   0.500000 0.560730 0.135380 -0.605713
O49   O     O_3   0.926949 0.092869 0.550028 -0.627985
O50   O     O_3   0.887659 0.019051 0.449969 -0.664273
O51   O     O_3   0.488474 0.626074 0.050281 -0.603659
O52   O     O_3   0.424086 0.598275 0.946531 -0.607751
O53   O     O_3   0.041085 0.931940 0.532883 -0.658222
O54   O     O_3   0.085747 0.021916 0.462278 -0.683607
O55   O     O_3   0.457441 0.431081 0.035217 -0.608114
O56   O     O_R   0.085480 0.853820 0.719950 -0.661469
O57   O     O_3   0.559754 0.456066 0.968544 -0.634317
O58   O     O_3   0.291673 0.896776 0.771755 -0.601598
O59   O     O_3   0.284384 0.889328 0.211108 -0.625241
O60   O     O_3   0.809423 0.796257 0.847784 -0.632298
O61   O     O_3   0.768644 0.833930 0.160317 -0.638092
O62   O     O_3   0.748896 0.353233 0.330811 -0.636713
O63   O     O_3   0.768140 0.371105 0.685646 -0.621413
O64   O     O_3   0.280840 0.327044 0.342085 -0.631412
O65   O     O_3   0.247118 0.357067 0.672899 -0.626777
O66   O     O_3   0.840454 0.236197 0.337283 -0.642921
O67   O     O_R   0.914520 0.853820 0.280050 -0.645235
O68   O     O_3   0.881474 0.276565 0.696618 -0.628179
O69   O     O_3   0.174983 0.219316 0.342428 -0.646249
O70   O     O_3   0.151264 0.240676 0.666513 -0.631949
O71   O     O_3   0.396952 0.788431 0.773228 -0.592305
O72   O     O_3   0.391604 0.784868 0.214108 -0.623146
O73   O     O_3   0.690494 0.699669 0.844916 -0.608885
O74   O     O_3   0.672440 0.719580 0.158109 -0.651973
O75   O     O_R   0.914520 0.853820 0.719950 -0.649162
O76   O     O_R   0.585480 0.353820 0.780050 -0.656856
Zn1   Zn    Zn3+2 0.000000 0.086760 0.292960 0.972470
Zn2   Zn    Zn3+2 0.586770 0.499990 0.292890 0.949460
Zn3   Zn    Zn3+2 0.413230 0.499990 0.707110 0.955243
Zn4   Zn    Zn3+2 0.413230 0.499990 0.292890 0.965696
Zn5   Zn    Zn3+2 1.000000 0.913240 0.292940 0.964922
Zn6   Zn    Zn3+2 0.000000 0.913240 0.707060 0.943730
Zn7   Zn    Zn3+2 0.500000 0.413240 0.792940 0.944345
Zn8   Zn    Zn3+2 0.500000 0.413240 0.207060 0.955561
Zn9   Zn    Zn3+2 0.000000 0.086760 0.707040 0.989099
Zn10  Zn    Zn3+2 0.500000 0.586760 0.792960 1.014103
Zn11  Zn    Zn3+2 0.500000 0.586760 0.207040 0.989691
Zn12  Zn    Zn3+2 0.086770 0.999990 0.207110 0.952756
Zn13  Zn    Zn3+2 0.086770 0.999990 0.792890 0.961819
Zn14  Zn    Zn3+2 0.913230 0.999990 0.207110 0.953965
Zn15  Zn    Zn3+2 0.913230 0.999990 0.792890 0.970218
Zn16  Zn    Zn3+2 0.586770 0.499990 0.707110 0.955470

loop_
_geom_bond_atom_site_label_1
_geom_bond_atom_site_label_2
_ccdc_geom_bond_type
C133  C137  A    
O34   Zn2   S    
O46   Zn9   S    
O23   Zn10  S    
C29   H3    S    
C30   H4    S    
C19   H160  S    
C7    H133  S    
C40   H27   S    
C66   H88   S    
C44   C45   S    
C45   H40   S    
C38   H21   S    
C43   H34   S    
C101  O16   A    
C28   H182  S    
C5    C6    S    
C40   O65   S    
C22   H170  S    
C75   C150  A    
O34   Zn11  S    
C63   H81   S    
C57   C152  A    
C139  C152  S    
C156  O50   S    
O45   Zn5   S    
C79   C127  A    
C154  H103  S    
C86   C134  A    
O16   Zn14  S    
O39   Zn4   S    
C12   H146  S    
C121  O51   S    
C27   H179  S    
O48   Zn11  S    
C122  O52   S    
C21   C22   S    
C128  O3    A    
O7    Zn1   S    
C6    H132  S    
C19   H161  S    
C16   H153  S    
O43   Zn8   S    
C29   H183  S    
C115  C123  S    
C89   H90   S    
C51   C52   S    
C137  C146  A    
C14   H149  S    
O8    Zn9   S    
C156  H109  S    
C50   C51   S    
C88   H79   S    
C109  O13   A    
C52   H55   S    
C83   C105  S    
C142  C151  A    
C43   C44   S    
C37   C38   S    
C34   H14   S    
C108  O11   A    
C105  O9    A    
O26   Zn13  S    
C95   C147  S    
C94   C96   A    
C14   O57   S    
O1    Zn1   S    
C9    H138  S    
C155  H105  S    
C21   H167  S    
O24   Zn15  S    
C25   H173  S    
O20   Zn3   S    
C31   H7    S    
C56   O71   S    
C119  C123  D    
C32   H8    S    
O23   Zn16  S    
C84   O67   A    
C111  O32   A    
C30   O62   S    
C47   O68   S    
O27   Zn3   S    
C66   O74   S    
C37   H20   S    
C90   H96   S    
C104  O15   A    
C96   H102  S    
C70   C79   A    
C86   C108  S    
C60   H73   S    
C4    C5    S    
C62   H78   S    
C10   H142  S    
O33   Zn14  S    
C8    H135  S    
C106  O76   A    
C112  O38   A    
C4    H125  S    
C41   H29   S    
C5    H128  S    
C71   O68   S    
C117  O2    A    
C27   O61   S    
C91   H98   S    
C107  O21   A    
C160  O52   S    
C142  H46   S    
C50   O69   S    
O36   Zn16  S    
C74   O70   S    
C119  O49   S    
C156  H110  S    
C88   C89   A    
C73   C145  S    
C4    O53   S    
C82   C104  S    
C117  C149  S    
C37   O64   S    
C103  O7    A    
C82   C131  A    
C33   H12   S    
C76   C85   A    
C84   O22   A    
C55   H64   S    
C16   H155  S    
C78   C87   A    
C65   H86   S    
C96   C99   A    
C44   H38   S    
C160  H120  S    
C59   H71   S    
C103  O14   A    
C81   C130  A    
C118  O48   A    
C158  H115  S    
C64   H83   S    
C53   C54   S    
C62   H77   S    
C78   O74   S    
C129  H97   S    
C106  O29   A    
C141  H35   S    
C38   C39   S    
C68   C74   A    
C127  C141  A    
C75   O71   S    
C76   O72   S    
C25   H175  S    
C104  O8    A    
C60   O72   S    
C23   H171  S    
C69   H93   S    
C145  C150  A    
O29   Zn16  S    
C46   C151  A    
O5    Zn1   S    
O12   Zn13  S    
C51   H52   S    
C69   H94   S    
C10   O55   S    
C24   O61   S    
C36   H18   S    
C102  O6    A    
C68   C153  A    
C54   H61   S    
C25   C26   S    
O30   Zn2   S    
C47   H42   S    
C80   C102  S    
O15   Zn13  S    
C42   H33   S    
C121  C125  D    
C31   C32   S    
C49   H48   S    
C94   C100  A    
C132  C136  A    
C52   H54   S    
C17   C18   S    
C20   C21   S    
C150  O58   S    
C55   H62   S    
C113  O39   A    
C3    H124  S    
C61   H75   S    
C113  O37   A    
C13   C147  A    
C101  O5    A    
C92   H99   S    
C81   C103  S    
C54   C55   S    
C80   C129  A    
C17   H157  S    
C133  H141  S    
C129  C142  A    
C30   H5    S    
C77   C86   A    
C40   H28   S    
C45   H39   S    
C48   H44   S    
C38   H22   S    
O3    Zn7   S    
O37   Zn2   S    
O1    Zn5   S    
O10   Zn11  S    
C124  O54   S    
C11   H144  S    
O11   Zn10  S    
C1    O25   A    
C159  H117  S    
C56   C58   S    
C34   C36   S    
C61   C62   S    
C105  O20   A    
O19   Zn2   S    
C154  H104  S    
C10   C11   S    
C131  C144  A    
C63   C64   S    
C107  O10   A    
C50   H50   S    
O12   Zn9   S    
C14   C15   S    
O28   Zn4   S    
O76   Zn7   S    
O1    Zn12  S    
O12   Zn15  S    
C26   H176  S    
C58   H67   S    
C53   H59   S    
C32   H9    S    
C98   C110  S    
C95   O75   A    
C41   C42   S    
C20   O59   S    
C16   H154  S    
C92   C100  A    
C140  H24   S    
C56   H65   S    
C27   H180  S    
C159  H116  S    
C28   C29   S    
O17   Zn15  S    
C26   H177  S    
C157  H113  S    
C30   C31   S    
C97   C111  S    
C20   H165  S    
C120  O50   S    
O22   Zn14  S    
C135  H163  S    
C157  H111  S    
C52   H56   S    
C62   H80   S    
C18   C19   S    
C115  O41   A    
C34   H15   S    
C39   H26   S    
C114  O44   A    
C42   H31   S    
C3    H122  S    
C48   H45   S    
C118  O43   A    
C118  C125  S    
C93   C99   A    
C9    H137  S    
C72   C81   A    
C21   H166  S    
C130  H108  S    
C67   H92   S    
C17   O58   S    
C140  C148  A    
C74   C82   A    
O18   Zn16  S    
C7    H134  S    
C84   C148  S    
C135  C140  A    
C37   H19   S    
O12   Zn6   S    
C160  H121  S    
C87   C135  A    
O41   Zn6   S    
C7    C8    S    
C60   H74   S    
O35   Zn15  S    
O38   Zn3   S    
C28   H181  S    
C158  O51   S    
C8    H136  S    
C22   H169  S    
C58   C59   S    
C63   H82   S    
C139  O4    A    
C7    O54   S    
C4    H126  S    
C60   C61   S    
C5    H127  S    
O32   Zn13  S    
O31   Zn12  S    
C143  H57   S    
O67   Zn5   S    
O42   Zn7   S    
C138  H13   S    
C12   H145  S    
C47   H43   S    
O1    Zn14  S    
C91   C97   A    
C54   H60   S    
C121  C122  S    
C128  C153  S    
C24   C78   A    
C48   C49   S    
C100  C112  S    
C110  O33   A    
C132  H130  S    
C36   H16   S    
O23   Zn3   S    
C33   H11   S    
C57   O64   S    
C2    C76   A    
C6    H131  S    
C19   H162  S    
C55   H63   S    
C65   H85   S    
C29   H184  S    
C106  C151  S    
C14   H148  S    
C64   H84   S    
C99   C113  S    
C119  C120  S    
C87   C109  S    
C35   O62   S    
C43   O66   S    
C13   O60   S    
C154  O49   S    
C64   C65   S    
C83   C132  A    
C157  H112  S    
C75   C83   A    
C90   C91   A    
O4    Zn8   S    
C1    O45   A    
C92   C93   A    
C126  O57   S    
C57   C72   A    
C9    H139  S    
C155  H106  S    
C10   H140  S    
C15   H150  S    
C94   H101  S    
C68   O65   S    
C33   O63   S    
C49   H49   S    
C18   H158  S    
C35   C149  A    
C2    O59   S    
O14   Zn12  S    
C39   H23   S    
C73   O26   A    
C85   C133  A    
C139  O28   A    
C114  O40   A    
C131  H119  S    
C123  O53   S    
C141  C149  A    
C41   H30   S    
C156  C157  S    
C137  H2    S    
C108  O18   A    
C15   C16   S    
O56   Zn6   S    
C12   H147  S    
C144  C153  A    
C63   O73   S    
O75   Zn6   S    
C20   H164  S    
C49   H47   S    
C35   C70   A    
C8    C9    S    
C110  O31   A    
C115  O46   A    
C23   O60   S    
C136  C145  A    
C6    H129  S    
C114  C124  S    
C51   H53   S    
C3    H123  S    
C65   H87   S    
C66   H89   S    
O40   Zn5   S    
C127  H1    S    
C70   O66   S    
C117  O30   A    
C1    C146  S    
C125  O55   S    
C59   H72   S    
C71   C80   A    
C158  H114  S    
C13   C77   A    
C23   H172  S    
O34   Zn4   S    
C17   H156  S    
O47   Zn10  S    
C116  O42   A    
O44   Zn1   S    
C24   C148  A    
C67   H91   S    
C89   C97   A    
C43   H36   S    
C67   C69   S    
C73   O56   A    
C122  C126  D    
O21   Zn4   S    
C93   H100  S    
C11   H143  S    
C47   C48   S    
C31   H6    S    
C138  C147  A    
C33   C34   S    
C46   C71   A    
C116  O47   A    
C136  H174  S    
C130  C143  A    
C53   O70   S    
O25   Zn12  S    
C40   C41   S    
C50   H51   S    
C95   O24   A    
C3    C160  S    
O13   Zn11  S    
C69   H95   S    
C102  O17   A    
C53   H58   S    
C159  H118  S    
C128  O27   A    
C32   H10   S    
C143  C152  A    
O9    Zn10  S    
C79   C101  S    
C36   H17   S    
C134  C138  A    
C11   C12   S    
C112  O36   A    
C2    C146  A    
O34   Zn8   S    
C56   H66   S    
C46   O63   S    
C26   H178  S    
C58   H69   S    
C158  C159  S    
C109  O19   A    
C22   H168  S    
C66   C67   S    
O23   Zn7   S    
C23   C25   S    
C77   O73   S    
C18   H159  S    
C88   C98   A    
O6    Zn9   S    
C111  O35   A    
C39   H25   S    
C42   H32   S    
C154  C155  S    
C44   H37   S    
C45   H41   S    
O2    Zn8   S    
C27   C28   S    
C61   H76   S    
C144  H68   S    
C116  C126  S    
C85   C107  S    
C59   H70   S    
C90   C98   A    
C155  H107  S    
C72   O69   S    
C120  C124  D    
C134  H152  S    
C15   H151  S    
