data_mof_unit_26564.cif
_audit_creation_date              2012-12-10T18:28:05-0500
_audit_creation_method            fapswitch 2.2
_symmetry_space_group_name_H-M    P1
_symmetry_Int_Tables_number       1
_space_group_crystal_system       triclinic
_cell_length_a                    23.577051
_cell_length_b                    20.110866
_cell_length_c                    14.90181
_cell_angle_alpha                 90.014439
_cell_angle_beta                  99.493608
_cell_angle_gamma                 89.971578
_cell_volume                      6968.99278989

loop_
_atom_site_label
_atom_site_type_symbol
_atom_type_description
_atom_site_fract_x
_atom_site_fract_y
_atom_site_fract_z
_atom_type_partial_charge
C1    C     C_R   0.575495 0.087644 0.554335 0.875531
C2    C     C_R   0.424907 0.912036 0.445870 0.916935
C3    C     C_R   0.424519 0.087590 0.445599 0.881692
C4    C     C_R   0.574924 0.911807 0.553914 0.914057
C5    C     C_R   0.075479 0.587537 0.554437 0.881778
C6    C     C_R   0.925067 0.411829 0.446051 0.911845
C7    C     C_R   0.924532 0.587707 0.445715 0.876686
C8    C     C_R   0.075058 0.411972 0.554080 0.915476
C9    C     C_R   0.209745 0.178893 0.630247 0.108119
C10   C     C_R   0.734283 0.754940 0.313572 0.104807
C11   C     C_R   0.794376 0.175315 0.375492 0.097002
C12   C     C_R   0.267679 0.751965 0.684278 0.095428
C13   C     C_R   0.703633 0.673955 0.622070 0.107947
C14   C     C_R   0.232235 0.251617 0.314743 0.104541
C15   C     C_R   0.288196 0.681021 0.367692 0.098719
C16   C     C_R   0.766332 0.254366 0.685580 0.095444
C17   C     C_R   0.627639 0.005710 0.203601 -0.328847
C18   C     C_R   0.372502 0.007216 0.796492 -0.324282
C19   C     C_R   0.127558 0.506417 0.203529 -0.338761
C20   C     C_R   0.872415 0.507121 0.796392 -0.322796
C21   C     C_R   0.606637 0.998893 0.284464 0.079749
C22   C     C_R   0.393373 0.999594 0.715646 0.078722
C23   C     C_R   0.106624 0.499036 0.284355 0.072805
C24   C     C_R   0.893353 0.499773 0.715533 0.083848
C25   C     C_R   0.510308 0.008479 0.208488 -0.107431
C26   C     C_R   0.489825 0.008655 0.791356 -0.094615
C27   C     C_R   0.010244 0.509088 0.208639 -0.092568
C28   C     C_R   0.989765 0.507989 0.791536 -0.108195
C29   C     C_R   0.528515 0.014510 0.124085 -0.007244
C30   C     C_R   0.471756 0.014961 0.875825 -0.005160
C31   C     C_R   0.028372 0.515189 0.124181 -0.004083
C32   C     C_R   0.971612 0.514631 0.875916 -0.009907
C33   C     C_R   0.588623 0.013148 0.122852 0.183513
C34   C     C_R   0.411641 0.014484 0.877134 0.192038
C35   C     C_R   0.088480 0.514005 0.122879 0.192724
C36   C     C_R   0.911496 0.514222 0.877140 0.187236
C37   C     C_R   0.489314 0.019419 0.041679 0.091132
C38   C     C_R   0.511053 0.019216 0.958234 0.083243
C39   C     C_R   0.989118 0.519795 0.041753 0.080119
C40   C     C_R   0.010854 0.519358 0.958307 0.090250
C41   C     C_R   0.571261 0.021123 0.960053 -0.282027
C42   C     C_R   0.429160 0.022481 0.039886 -0.272333
C43   C     C_R   0.071025 0.521688 0.960093 -0.267322
C44   C     C_R   0.928938 0.522704 0.039920 -0.283316
C45   C     C_R   0.609217 0.018590 0.041209 -0.218273
C46   C     C_R   0.391153 0.020558 0.958769 -0.221440
C47   C     C_R   0.109014 0.519617 0.041227 -0.225843
C48   C     C_R   0.890957 0.520381 0.958761 -0.214500
C49   C     C_R   0.613199 0.855424 0.583055 -0.290502
C50   C     C_R   0.378156 0.134095 0.409368 -0.286070
C51   C     C_R   0.385547 0.856877 0.415451 -0.288085
C52   C     C_R   0.621966 0.134158 0.590397 -0.286792
C53   C     C_R   0.114139 0.356473 0.584235 -0.289893
C54   C     C_R   0.878153 0.634407 0.409736 -0.285739
C55   C     C_R   0.886664 0.355614 0.416671 -0.291071
C56   C     C_R   0.121782 0.634008 0.590711 -0.287104
C57   C     C_R   0.634854 0.752915 0.667970 -0.285506
C58   C     C_R   0.315634 0.187955 0.284104 -0.289151
C59   C     C_R   0.360122 0.757159 0.325576 -0.280305
C60   C     C_R   0.682046 0.191264 0.715392 -0.311981
C61   C     C_R   0.138667 0.256180 0.673166 -0.286679
C62   C     C_R   0.819000 0.692803 0.284967 -0.287368
C63   C     C_R   0.864364 0.253698 0.330554 -0.309485
C64   C     C_R   0.184906 0.687005 0.716010 -0.313246
C65   C     C_R   0.604857 0.813020 0.655551 0.424296
C66   C     C_R   0.363770 0.148539 0.315361 0.418552
C67   C     C_R   0.392345 0.815612 0.340861 0.419351
C68   C     C_R   0.634361 0.151286 0.683706 0.434115
C69   C     C_R   0.107048 0.315106 0.658509 0.425328
C70   C     C_R   0.866510 0.652535 0.316728 0.415006
C71   C     C_R   0.894770 0.313472 0.343748 0.442814
C72   C     C_R   0.136791 0.647574 0.684863 0.437091
C73   C     C_R   0.654900 0.839340 0.529690 0.386256
C74   C     C_R   0.345317 0.161810 0.470174 0.370133
C75   C     C_R   0.343618 0.841214 0.468539 0.382020
C76   C     C_R   0.656641 0.159494 0.530432 0.367254
C77   C     C_R   0.155913 0.340482 0.530999 0.385186
C78   C     C_R   0.842890 0.659039 0.469372 0.369056
C79   C     C_R   0.844934 0.339529 0.469934 0.384419
C80   C     C_R   0.153942 0.662553 0.529685 0.371488
C81   C     C_R   0.677934 0.774856 0.533397 -0.064496
C82   C     C_R   0.291820 0.190339 0.436435 -0.069852
C83   C     C_R   0.318667 0.777781 0.461876 -0.069660
C84   C     C_R   0.709558 0.189010 0.565414 -0.056030
C85   C     C_R   0.180343 0.276723 0.537077 -0.065276
C86   C     C_R   0.790130 0.688815 0.433951 -0.070674
C87   C     C_R   0.821497 0.275256 0.465411 -0.050084
C88   C     C_R   0.207463 0.691087 0.562985 -0.055615
C89   C     C_R   0.672003 0.733513 0.608319 0.020363
C90   C     C_R   0.279745 0.210090 0.344194 0.017534
C91   C     C_R   0.322353 0.738335 0.384344 0.038489
C92   C     C_R   0.719462 0.211583 0.656580 -0.010354
C93   C     C_R   0.176171 0.236895 0.614096 0.021322
C94   C     C_R   0.780913 0.712154 0.343196 0.018241
C95   C     C_R   0.826877 0.234378 0.389731 -0.005667
C96   C     C_R   0.220095 0.710207 0.655489 -0.015147
C97   C     C_R   0.709042 0.751824 0.466547 0.050610
C98   C     C_R   0.251447 0.202596 0.493992 0.048264
C99   C     C_R   0.288212 0.753873 0.528878 0.028251
C100  C     C_R   0.751082 0.200401 0.509403 0.027140
C101  C     C_R   0.210860 0.252918 0.470084 0.050501
C102  C     C_R   0.748172 0.699857 0.489264 0.049010
C103  C     C_R   0.790561 0.251999 0.532345 0.027855
C104  C     C_R   0.247405 0.703768 0.504839 0.055761
C105  C     C_R   0.248945 0.163913 0.572206 -0.205154
C106  C     C_R   0.700321 0.776740 0.376697 -0.190282
C107  C     C_R   0.755412 0.160255 0.433221 -0.151733
C108  C     C_R   0.299649 0.775616 0.620195 -0.138073
C109  C     C_R   0.743155 0.659075 0.564546 -0.205046
C110  C     C_R   0.199792 0.275117 0.378935 -0.191086
C111  C     C_R   0.249363 0.665665 0.425893 -0.218791
C112  C     C_R   0.799830 0.276265 0.622515 -0.136538
H1    H     H_    0.590912 0.024264 0.899968 0.168241
H2    H     H_    0.409549 0.025888 0.099975 0.167855
H3    H     H_    0.090653 0.524630 0.899986 0.167561
H4    H     H_    0.909350 0.526554 0.100009 0.168925
H5    H     H_    0.627511 0.720759 0.723153 0.181594
H6    H     H_    0.305596 0.199253 0.212305 0.177260
H7    H     H_    0.366309 0.725512 0.269209 0.188532
H8    H     H_    0.689916 0.204980 0.786493 0.157976
H9    H     H_    0.132232 0.224670 0.729483 0.180429
H10   H     H_    0.811750 0.707753 0.214257 0.178679
H11   H     H_    0.871818 0.221848 0.275173 0.162093
H12   H     H_    0.195434 0.697208 0.788014 0.158119
H13   H     H_    0.274946 0.119530 0.585516 0.183576
H14   H     H_    0.664914 0.810024 0.353388 0.195317
H15   H     H_    0.730547 0.114999 0.420369 0.195271
H16   H     H_    0.335792 0.807742 0.644073 0.208541
H17   H     H_    0.767774 0.613564 0.576186 0.183766
H18   H     H_    0.163535 0.307219 0.355643 0.195152
H19   H     H_    0.223199 0.621513 0.411429 0.186912
H20   H     H_    0.835212 0.309446 0.646420 0.207716
H21   H     H_    0.655052 0.018983 0.039782 0.149816
H22   H     H_    0.345333 0.021764 0.960246 0.147665
H23   H     H_    0.154841 0.520274 0.039750 0.146977
H24   H     H_    0.845130 0.521547 0.960174 0.149287
H25   H     H_    0.534028 0.010013 0.782078 0.151341
H26   H     H_    0.466094 0.010012 0.217644 0.153320
H27   H     H_    0.033991 0.508885 0.782388 0.152518
H28   H     H_    0.966030 0.510772 0.217841 0.151060
H29   H     H_    0.363930 0.994868 0.652169 0.159311
H30   H     H_    0.636000 0.994049 0.348015 0.164153
H31   H     H_    0.863943 0.495312 0.651969 0.160898
H32   H     H_    0.136030 0.493984 0.347811 0.160182
H33   H     H_    0.673658 0.004947 0.204085 0.151969
H34   H     H_    0.326486 0.007127 0.796095 0.139334
H35   H     H_    0.173574 0.505832 0.203940 0.141738
H36   H     H_    0.826389 0.507123 0.795887 0.140594
N1    N     N_R   0.549130 0.000000 0.284090 -0.103803
N2    N     N_R   0.450870 0.000000 0.715910 -0.103287
N3    N     N_R   0.049130 0.500000 0.284090 -0.102625
N4    N     N_R   0.950870 0.500000 0.715910 -0.103191
O1    O     O_R   0.541320 0.066090 0.608930 -0.597184
O2    O     O_R   0.458680 0.933910 0.391070 -0.595259
O3    O     O_R   0.458680 0.066090 0.391070 -0.600825
O4    O     O_R   0.541320 0.933910 0.608930 -0.596772
O5    O     O_R   0.041320 0.566090 0.608930 -0.602483
O6    O     O_R   0.958680 0.433910 0.391070 -0.598037
O7    O     O_R   0.958680 0.566090 0.391070 -0.594972
O8    O     O_R   0.041320 0.433910 0.608930 -0.594130
O9    O     O_R   0.572880 0.066110 0.470280 -0.574357
O10   O     O_R   0.427120 0.933890 0.529720 -0.564395
O11   O     O_R   0.427120 0.066110 0.529720 -0.576077
O12   O     O_R   0.572880 0.933890 0.470280 -0.566190
O13   O     O_R   0.072880 0.566110 0.470280 -0.575449
O14   O     O_R   0.927120 0.433890 0.529720 -0.563830
O15   O     O_R   0.927120 0.566110 0.529720 -0.575971
O16   O     O_R   0.072880 0.433890 0.470280 -0.565955
Zn1   Zn    Zn3+2 0.478910 0.000000 0.592580 0.977981
Zn2   Zn    Zn3+2 0.521090 0.000000 0.407420 0.975065
Zn3   Zn    Zn3+2 0.978910 0.500000 0.592580 0.975639
Zn4   Zn    Zn3+2 0.021090 0.500000 0.407420 0.976912
N5    N     N_3   0.205792 0.137126 0.707315 -0.470842
H37   H     H_    0.237729 0.100501 0.714554 0.174435
H38   H     H_    0.166400 0.112215 0.693705 0.179579
N6    N     N_3   0.723262 0.778554 0.221223 -0.469233
H39   H     H_    0.690845 0.814614 0.213062 0.185446
H40   H     H_    0.707458 0.738420 0.179950 0.180538
N7    N     N_3   0.798124 0.131149 0.301181 -0.476142
H41   H     H_    0.787319 0.157446 0.240241 0.179858
H42   H     H_    0.840511 0.114294 0.306786 0.187467
N8    N     N_3   0.283319 0.773198 0.776889 -0.467473
H43   H     H_    0.292526 0.731166 0.817977 0.186370
H44   H     H_    0.248398 0.798251 0.796268 0.179442
N9    N     N_3   0.697512 0.630456 0.696481 -0.471255
H45   H     H_    0.728164 0.592415 0.702345 0.173998
H46   H     H_    0.657322 0.607511 0.680694 0.180908
N10   N     N_3   0.218614 0.272037 0.221158 -0.470903
H47   H     H_    0.186075 0.307949 0.212909 0.185485
H48   H     H_    0.201971 0.230593 0.183367 0.180691
N11   N     N_3   0.291104 0.639747 0.290144 -0.478700
H49   H     H_    0.250190 0.638256 0.250403 0.184118
H50   H     H_    0.301517 0.591511 0.313412 0.181649
N12   N     N_3   0.779535 0.278644 0.777094 -0.468240
H51   H     H_    0.787666 0.237995 0.821054 0.185222
H52   H     H_    0.743873 0.304573 0.792337 0.180245
O17   O     O_3   0.366314 0.161442 0.562961 -0.635529
C113  C     C_3   0.385528 0.225819 0.592232 0.118438
H53   H     H_    0.388956 0.227065 0.667470 0.163735
H54   H     H_    0.354386 0.265593 0.565290 0.125131
C114  C     C_3   0.444947 0.240644 0.567787 -0.389404
H55   H     H_    0.475160 0.199873 0.593055 0.222034
H56   H     H_    0.441739 0.243472 0.492741 0.208283
C115  C     C_3   0.468595 0.306504 0.608822 -0.988035
H57   H     H_    0.439765 0.348059 0.581574 0.271672
H58   H     H_    0.511857 0.315579 0.591126 0.268449
H59   H     H_    0.472402 0.305217 0.684058 0.264036
O18   O     O_3   0.673195 0.887341 0.473975 -0.644517
C116  C     C_3   0.725228 0.916299 0.517723 0.069593
H60   H     H_    0.751295 0.928404 0.464225 0.167016
H61   H     H_    0.752106 0.882223 0.566560 0.123423
C117  C     C_3   0.712874 0.980876 0.565580 -0.358322
H62   H     H_    0.686554 0.014329 0.515934 0.239455
H63   H     H_    0.688256 0.969659 0.621204 0.200397
C118  C     C_3   0.768331 0.016568 0.605823 -0.951924
H64   H     H_    0.795632 0.983862 0.655291 0.263296
H65   H     H_    0.757877 0.062129 0.641866 0.274179
H66   H     H_    0.792597 0.031122 0.551037 0.265353
O19   O     O_3   0.637961 0.156172 0.437091 -0.636816
C119  C     C_3   0.619061 0.219543 0.402906 0.117507
H67   H     H_    0.619732 0.219213 0.328537 0.163517
H68   H     H_    0.648198 0.260623 0.431845 0.121783
C120  C     C_3   0.557421 0.233440 0.418086 -0.382099
H69   H     H_    0.529004 0.191882 0.389733 0.229393
H70   H     H_    0.556379 0.236927 0.492113 0.206064
C121  C     C_3   0.534861 0.298492 0.373011 -0.990204
H71   H     H_    0.562111 0.340753 0.402343 0.270831
H72   H     H_    0.490184 0.307285 0.384729 0.267808
H73   H     H_    0.534796 0.296177 0.298546 0.262549
O20   O     O_3   0.327064 0.888488 0.527029 -0.643235
C122  C     C_3   0.274736 0.918680 0.486756 0.066059
H74   H     H_    0.250718 0.931720 0.542499 0.160587
H75   H     H_    0.246060 0.885069 0.439800 0.125157
C123  C     C_3   0.286652 0.982706 0.437349 -0.358223
H76   H     H_    0.314479 0.015897 0.485352 0.236951
H77   H     H_    0.309508 0.970652 0.379901 0.202356
C124  C     C_3   0.231051 0.019312 0.400211 -0.955554
H78   H     H_    0.202148 0.986821 0.352700 0.263216
H79   H     H_    0.241070 0.064300 0.362656 0.274226
H80   H     H_    0.208701 0.034890 0.456826 0.262600
O21   O     O_3   0.860749 0.654658 0.562829 -0.636658
C125  C     C_3   0.879493 0.717612 0.598766 0.120770
H81   H     H_    0.877363 0.716755 0.672679 0.164465
H82   H     H_    0.851116 0.759201 0.569232 0.122738
C126  C     C_3   0.941808 0.730991 0.586900 -0.380539
H83   H     H_    0.969503 0.689017 0.615991 0.231433
H84   H     H_    0.944301 0.734862 0.513379 0.206235
C127  C     C_3   0.964080 0.795560 0.633694 -0.992872
H85   H     H_    0.937346 0.838205 0.604229 0.271741
H86   H     H_    0.009109 0.804230 0.623733 0.265939
H87   H     H_    0.963092 0.792610 0.707838 0.262962
O22   O     O_3   0.172801 0.387742 0.472855 -0.643328
C128  C     C_3   0.225011 0.417840 0.513744 0.068121
H88   H     H_    0.249585 0.430233 0.458453 0.162509
H89   H     H_    0.253246 0.384409 0.561661 0.125339
C129  C     C_3   0.212865 0.482360 0.561937 -0.360720
H90   H     H_    0.185154 0.515192 0.513222 0.237008
H91   H     H_    0.189803 0.470879 0.619328 0.202853
C130  C     C_3   0.268346 0.519206 0.598890 -0.949691
H92   H     H_    0.297227 0.487048 0.646947 0.263466
H93   H     H_    0.258150 0.564466 0.635781 0.275587
H94   H     H_    0.290788 0.534389 0.542220 0.262809
O23   O     O_3   0.132191 0.663045 0.437149 -0.636315
C131  C     C_3   0.112748 0.727669 0.409416 0.112592
H95   H     H_    0.108064 0.729407 0.334035 0.161410
H96   H     H_    0.144349 0.767130 0.435666 0.124826
C132  C     C_3   0.054069 0.742588 0.436676 -0.389457
H97   H     H_    0.023446 0.702052 0.412187 0.220184
H98   H     H_    0.058534 0.745048 0.511924 0.207984
C133  C     C_3   0.030023 0.808742 0.397213 -0.985353
H99   H     H_    0.059245 0.850064 0.423946 0.270501
H100  H     H_    0.987246 0.817784 0.416801 0.270056
H101  H     H_    0.025055 0.807944 0.321830 0.263514
O24   O     O_3   0.826941 0.387351 0.526276 -0.644812
C134  C     C_3   0.774726 0.416411 0.483345 0.065406
H102  H     H_    0.749190 0.428879 0.537417 0.161055
H103  H     H_    0.747433 0.382254 0.435212 0.123973
C135  C     C_3   0.786770 0.480725 0.434700 -0.356806
H104  H     H_    0.813254 0.514396 0.483802 0.239357
H105  H     H_    0.811110 0.469214 0.378819 0.200401
C136  C     C_3   0.731142 0.516238 0.394724 -0.957443
H106  H     H_    0.703838 0.483408 0.345454 0.263679
H107  H     H_    0.741364 0.561799 0.358518 0.273652
H108  H     H_    0.706967 0.530756 0.449655 0.262385
O25   O     O_3   0.394725 0.121795 0.252868 -0.640331
C137  C     C_3   0.434121 0.169377 0.229400 0.092706
H109  H     H_    0.476478 0.144336 0.233703 0.181279
H110  H     H_    0.441113 0.213099 0.276169 0.122662
C138  C     C_3   0.414705 0.193714 0.131802 -0.356240
H111  H     H_    0.400344 0.150984 0.086657 0.245186
H112  H     H_    0.377893 0.228400 0.129822 0.209010
C139  C     C_3   0.463122 0.229634 0.095375 -0.957277
H113  H     H_    0.478403 0.272702 0.139432 0.260989
H114  H     H_    0.446980 0.248127 0.025661 0.270524
H115  H     H_    0.499579 0.195098 0.092413 0.272117
O26   O     O_3   0.563689 0.826253 0.709418 -0.614207
C140  C     C_3   0.588345 0.863680 0.786598 0.137146
H116  H     H_    0.552704 0.890905 0.810389 0.174848
H117  H     H_    0.619397 0.902071 0.770607 0.108928
C141  C     C_3   0.616586 0.818417 0.864240 -0.405318
H118  H     H_    0.587217 0.776528 0.872851 0.241130
H119  H     H_    0.657306 0.797779 0.847661 0.214870
C142  C     C_3   0.630294 0.856409 0.953852 -0.934246
H120  H     H_    0.658998 0.899166 0.946595 0.263107
H121  H     H_    0.652364 0.822891 0.007791 0.264826
H122  H     H_    0.590040 0.874763 0.974950 0.277249
O27   O     O_3   0.600953 0.128084 0.745133 -0.636651
C143  C     C_3   0.561289 0.177767 0.761793 0.087334
H123  H     H_    0.517396 0.156136 0.746414 0.179231
H124  H     H_    0.561238 0.223305 0.718718 0.127174
C144  C     C_3   0.573061 0.197809 0.862125 -0.346241
H125  H     H_    0.570274 0.153359 0.905238 0.241252
H126  H     H_    0.617081 0.218730 0.879333 0.212219
C145  C     C_3   0.529891 0.249562 0.883432 -0.978377
H127  H     H_    0.532597 0.295164 0.842343 0.263513
H128  H     H_    0.539808 0.263135 0.956538 0.273420
H129  H     H_    0.485501 0.229283 0.868677 0.268015
O28   O     O_3   0.433972 0.828154 0.287602 -0.614127
C146  C     C_3   0.410175 0.866143 0.210465 0.135928
H130  H     H_    0.446407 0.892472 0.187189 0.174878
H131  H     H_    0.379736 0.905274 0.226464 0.110811
C147  C     C_3   0.381425 0.821649 0.132247 -0.413213
H132  H     H_    0.409817 0.778651 0.124282 0.242788
H133  H     H_    0.339882 0.802672 0.147665 0.211935
C148  C     C_3   0.369481 0.859738 0.042579 -0.924929
H134  H     H_    0.341601 0.903404 0.049175 0.260720
H135  H     H_    0.347121 0.826765 0.988214 0.268668
H136  H     H_    0.410454 0.876681 0.022550 0.278337
O29   O     O_3   0.900488 0.630059 0.255650 -0.635578
C149  C     C_3   0.940195 0.680071 0.240515 0.085368
H137  H     H_    0.984210 0.659041 0.258300 0.179441
H138  H     H_    0.938840 0.725902 0.282641 0.130145
C150  C     C_3   0.930176 0.699343 0.139910 -0.341557
H139  H     H_    0.934950 0.654781 0.097891 0.239759
H140  H     H_    0.885838 0.718941 0.120111 0.218158
C151  C     C_3   0.972903 0.752176 0.120418 -0.978236
H141  H     H_    0.968234 0.797886 0.160394 0.264705
H142  H     H_    0.964324 0.765124 0.047028 0.274692
H143  H     H_    0.017628 0.733205 0.137934 0.265302
O30   O     O_3   0.065624 0.328010 0.712036 -0.614205
C152  C     C_3   0.089811 0.365656 0.789288 0.136054
H144  H     H_    0.053788 0.392084 0.813087 0.175647
H145  H     H_    0.120296 0.404672 0.773236 0.111151
C153  C     C_3   0.118648 0.320822 0.867063 -0.407636
H146  H     H_    0.090169 0.277934 0.874990 0.241136
H147  H     H_    0.160045 0.301694 0.851172 0.215312
C154  C     C_3   0.130976 0.358621 0.956956 -0.932754
H148  H     H_    0.158948 0.402182 0.950428 0.263487
H149  H     H_    0.153373 0.325400 0.010986 0.265411
H150  H     H_    0.090154 0.375702 0.977427 0.276867
O31   O     O_3   0.106550 0.619801 0.747526 -0.641185
C155  C     C_3   0.067514 0.666906 0.773387 0.094975
H151  H     H_    0.025495 0.641472 0.770850 0.180975
H152  H     H_    0.059269 0.710676 0.726933 0.119348
C156  C     C_3   0.088525 0.691101 0.870664 -0.361440
H153  H     H_    0.105834 0.648717 0.914459 0.245244
H154  H     H_    0.123610 0.727870 0.870582 0.201026
C157  C     C_3   0.040144 0.723718 0.911324 -0.954714
H155  H     H_    0.021805 0.766218 0.868516 0.260128
H156  H     H_    0.057422 0.742457 0.980502 0.268655
H157  H     H_    0.005643 0.687012 0.916717 0.274252
O32   O     O_3   0.936023 0.326639 0.290033 -0.616571
C158  C     C_3   0.911570 0.364530 0.213181 0.138291
H158  H     H_    0.947366 0.391552 0.189609 0.173781
H159  H     H_    0.880751 0.403110 0.229529 0.108390
C159  C     C_3   0.883040 0.319789 0.135144 -0.414933
H160  H     H_    0.912149 0.277694 0.126128 0.240540
H161  H     H_    0.842196 0.299425 0.151546 0.208698
C160  C     C_3   0.869542 0.358241 0.045896 -0.925754
H162  H     H_    0.841116 0.401214 0.053582 0.260572
H163  H     H_    0.847242 0.325121 0.991663 0.267858
H164  H     H_    0.909901 0.376336 0.024934 0.278606

loop_
_geom_bond_atom_site_label_1
_geom_bond_atom_site_label_2
_ccdc_geom_bond_type
N12   H52   S    
C22   N2    A    
C33   C45   A    
C68   O27   S    
C147  H133  S    
C120  H69   S    
C53   C69   A    
C70   O29   S    
C88   C96   A    
C120  C121  S    
C142  H121  S    
C150  H139  S    
C136  H108  S    
C147  C148  S    
C7    O7    A    
C10   C94   A    
C129  C130  S    
C29   C33   A    
C30   C38   A    
C157  H157  S    
O24   C134  S    
C140  H117  S    
C37   C42   A    
N8    H43   S    
C14   C90   A    
C8    O16   A    
C6    O6    A    
C40   C43   A    
C56   C72   A    
C125  H82   S    
C143  C144  S    
C160  H164  S    
C60   C92   A    
C67   O28   S    
C35   C47   A    
C126  H83   S    
C82   C98   A    
C80   O23   S    
C123  H77   S    
C73   C81   A    
C127  H86   S    
C25   C29   A    
C125  C126  S    
C13   N9    S    
O7    Zn4   S    
C27   C31   A    
N11   H49   S    
C84   C100  A    
C28   C32   A    
O30   C152  S    
C12   C108  A    
O15   Zn3   S    
C145  H127  S    
C64   H12   S    
C17   C21   A    
C103  C112  A    
C123  C124  S    
C19   C23   A    
C118  H64   S    
C37   C38   A    
C46   H22   S    
C142  H120  S    
C54   C70   A    
C155  H151  S    
C59   C91   A    
C79   C87   A    
N5    H38   S    
C149  H138  S    
C87   C103  A    
O26   C140  S    
C73   O18   S    
C63   C71   A    
C79   O24   S    
C133  H100  S    
C11   N7    S    
C141  H118  S    
C150  C151  S    
C15   N11   S    
C137  C138  S    
C41   H1    S    
C151  H141  S    
C130  H93   S    
C83   C91   A    
C45   H21   S    
C105  H13   S    
C4    C49   S    
C61   C69   A    
C139  H114  S    
C153  C154  S    
C107  H15   S    
C80   C88   A    
C19   C35   A    
O5    Zn3   S    
C137  H110  S    
O6    Zn4   S    
O10   Zn1   S    
C122  C123  S    
C15   C91   A    
C117  H62   S    
C44   H4    S    
C126  C127  S    
C41   C45   A    
C102  C109  A    
C113  H54   S    
C43   C47   A    
C55   C71   A    
C44   C48   A    
O22   C128  S    
C146  H131  S    
O12   Zn2   S    
O31   C155  S    
O3    Zn2   S    
C26   H25   S    
C2    O10   A    
C99   C108  A    
O2    Zn2   S    
C32   C36   A    
C59   H7    S    
C21   H30   S    
C50   C74   A    
C42   C46   A    
C128  H88   S    
C132  C133  S    
N9    H46   S    
O32   C158  S    
C24   H31   S    
C9    C105  A    
C155  C156  S    
N10   H48   S    
O21   C125  S    
C148  H135  S    
C13   C109  A    
C59   C67   A    
C85   C93   A    
C42   H2    S    
C131  H95   S    
C87   C95   A    
C20   H36   S    
C9    N5    S    
C34   C46   A    
C21   N1    A    
C141  C142  S    
N6    H40   S    
C77   C85   A    
C2    O2    A    
C124  H78   S    
C114  H56   S    
C148  H134  S    
C28   H27   S    
C151  H143  S    
C119  H67   S    
C88   C104  A    
C3    C50   S    
C143  H124  S    
C138  H111  S    
C152  H145  S    
C78   O21   S    
C30   C34   A    
C134  C135  S    
C64   C96   A    
C38   C41   A    
C118  H66   S    
C39   C40   A    
C149  C150  S    
C146  H130  S    
C50   C66   A    
C117  C118  S    
C116  H60   S    
C77   O22   S    
C51   C67   A    
C108  H16   S    
C157  H156  S    
C159  C160  S    
C111  H19   S    
C156  H154  S    
C26   C30   A    
C144  H126  S    
C109  H17   S    
C158  C159  S    
C10   C106  A    
O1    Zn1   S    
C86   C102  A    
C62   H10   S    
C14   C110  A    
C156  H153  S    
C7    O15   A    
C47   H23   S    
C18   C22   A    
C72   O31   S    
C48   H24   S    
C25   N1    A    
C153  H147  S    
C52   C76   A    
C8    C53   S    
C128  C129  S    
C132  H97   S    
C120  H70   S    
C39   C44   A    
C136  H107  S    
C56   C80   A    
C114  H55   S    
C154  H150  S    
C131  C132  S    
C140  C141  S    
C99   C104  A    
O17   C113  S    
N8    H44   S    
C16   N12   S    
C153  H146  S    
C121  H71   S    
C124  H80   S    
C135  H104  S    
C84   C92   A    
C119  C120  S    
C160  H163  S    
C6    O14   A    
C5    C56   S    
C134  H102  S    
C66   O25   S    
C6    C55   S    
C76   C84   A    
O23   C131  S    
C57   C89   A    
C61   C93   A    
C145  H128  S    
C63   C95   A    
C116  C117  S    
O29   C149  S    
C159  H160  S    
C24   N4    A    
C138  C139  S    
C12   N8    S    
O18   C116  S    
C135  C136  S    
C155  H152  S    
C158  H158  S    
C97   C102  A    
C3    O11   A    
C81   C89   A    
C145  H129  S    
C147  H132  S    
C1    O9    A    
C83   C99   A    
C133  H101  S    
C17   C33   A    
C74   C82   A    
C141  H119  S    
C142  H122  S    
C150  H140  S    
O27   C143  S    
C26   N2    A    
C151  H142  S    
C149  H137  S    
O19   C119  S    
N5    H37   S    
C100  C103  A    
C19   H35   S    
C75   O20   S    
C53   C77   A    
N11   H50   S    
O25   C137  S    
C55   C79   A    
C115  H59   S    
C3    O3    A    
C125  H81   S    
C122  H75   S    
C112  H20   S    
C1    O1    A    
C58   C90   A    
C97   C106  A    
C4    O4    A    
C117  H63   S    
C16   C92   A    
C5    O5    A    
C62   C94   A    
C31   C35   A    
C23   H32   S    
C123  H76   S    
C8    O8    A    
C154  H148  S    
C127  H85   S    
C16   C112  A    
C57   H5    S    
C27   N3    A    
C57   C65   A    
C63   H11   S    
C98   C101  A    
C106  H14   S    
C82   C90   A    
C101  C110  A    
N12   H51   S    
C132  H98   S    
C65   O26   S    
C75   C83   A    
N9    H45   S    
O8    Zn3   S    
C110  H18   S    
O20   C122  S    
O11   Zn1   S    
C1    C52   S    
C2    C51   S    
C60   H8    S    
N7    H41   S    
C20   C36   A    
O16   Zn4   S    
C60   C68   A    
C131  H96   S    
C29   C37   A    
C133  H99   S    
C12   C96   A    
C76   O19   S    
C7    C54   S    
C54   C78   A    
C144  H125  S    
C140  H116  S    
C17   H33   S    
C130  H94   S    
C119  H68   S    
C152  H144  S    
C98   C105  A    
C49   C65   A    
C61   H9    S    
C139  H113  S    
C134  H103  S    
C51   C75   A    
C118  H65   S    
C137  H109  S    
N2    Zn1   S    
O4    Zn1   S    
C58   H6    S    
C14   N10   S    
C86   C94   A    
C43   H3    S    
C58   C66   A    
C20   C24   A    
C4    O12   A    
C36   C48   A    
C113  H53   S    
C5    O13   A    
C52   C68   A    
C127  H87   S    
C78   C86   A    
O13   Zn4   S    
C32   C40   A    
C146  C147  S    
O14   Zn3   S    
C69   O30   S    
C158  H159  S    
C62   C70   A    
C138  H112  S    
C10   N6    S    
N1    Zn2   S    
C15   C111  A    
C71   O32   S    
C128  H89   S    
N4    Zn3   S    
C136  H106  S    
N3    Zn4   S    
C129  H91   S    
N10   H47   S    
C148  H136  S    
O28   C146  S    
C154  H149  S    
C74   O17   S    
C129  H90   S    
C113  C114  S    
C115  H57   S    
C18   C34   A    
O9    Zn2   S    
N6    H39   S    
C115  H58   S    
C28   N4    A    
C121  H72   S    
C124  H79   S    
C11   C107  A    
C114  C115  S    
C135  H105  S    
C130  H92   S    
C9    C93   A    
C85   C101  A    
C143  H123  S    
C160  H162  S    
C152  C153  S    
C11   C95   A    
C23   N3    A    
C100  C107  A    
C13   C89   A    
C139  H115  S    
C18   H34   S    
C104  C111  A    
C121  H73   S    
C27   H28   S    
C126  H84   S    
C25   H26   S    
C81   C97   A    
C22   H29   S    
C116  H61   S    
C31   C39   A    
C49   C73   A    
C64   C72   A    
C157  H155  S    
C159  H161  S    
C156  C157  S    
C144  C145  S    
C122  H74   S    
N7    H42   S    
