data_mof_unit_47354.cif
_audit_creation_date              2013-03-05T15:52:30-0500
_audit_creation_method            fapswitch 2.2
_symmetry_space_group_name_H-M    P1
_symmetry_Int_Tables_number       1
_space_group_crystal_system       triclinic
_cell_length_a                    27.776453
_cell_length_b                    10.771457
_cell_length_c                    9.595294
_cell_angle_alpha                 89.951516
_cell_angle_beta                  90.075315
_cell_angle_gamma                 92.778191
_cell_volume                      2867.46596464

loop_
_atom_site_label
_atom_site_type_symbol
_atom_site_description
_atom_site_fract_x
_atom_site_fract_y
_atom_site_fract_z
_atom_type_partial_charge
O1    O     O_R   0.500000 0.319640 0.618810 -0.574527
O2    O     O_R   0.500000 0.319660 0.381240 -0.572957
C1    C     C_R   0.497941 0.262523 0.500111 0.796825
O3    O     O_R   0.430260 0.500010 0.618770 -0.592113
O4    O     O_R   0.430270 0.500030 0.381200 -0.581344
C2    C     C_R   0.407526 0.500503 0.499875 0.786898
Cu1   Cu    Cu3+1 0.500000 0.499990 0.640660 0.941709
Cu2   Cu    Cu3+1 0.500000 0.500010 0.359340 0.946727
O5    O     O_R   0.500000 0.680340 0.618760 -0.602076
O6    O     O_R   0.500000 0.680360 0.381190 -0.592352
O7    O     O_R   0.569730 0.499970 0.618800 -0.596195
O8    O     O_R   0.569740 0.499990 0.381230 -0.595583
C3    C     C_R   0.498257 0.737055 0.499961 0.781188
C4    C     C_R   0.592513 0.500985 0.500178 0.811060
C5    C     C_R   0.176061 0.396951 0.488740 0.543064
O9    O     O_2   0.199040 0.291060 0.467345 -0.523638
N1    N     N_R   0.202147 0.506964 0.504114 -0.473276
C6    C     C_R   0.180207 0.615740 0.528260 0.518990
C7    C     C_R   0.278964 0.529537 0.373698 0.133717
C8    C     C_R   0.329618 0.525932 0.375266 -0.203717
C9    C     C_R   0.328704 0.483660 0.623558 -0.190346
C10   C     C_R   0.278708 0.484464 0.623113 -0.118132
C11   C     C_R   0.253750 0.507324 0.499801 0.322079
C12   C     C_R   0.102039 0.504926 0.517130 -0.041530
C13   C     C_R   0.125511 0.393778 0.495467 -0.049367
C14   C     C_R   0.098422 0.281272 0.488060 -0.186859
C15   C     C_R   0.129750 0.616916 0.534751 -0.022499
C16   C     C_R   0.354567 0.503154 0.499567 -0.080701
H1    H     H_    0.347053 0.466660 0.720846 0.194053
H2    H     H_    0.259065 0.467007 0.719043 0.147264
H3    H     H_    0.116701 0.194689 0.483332 0.214952
C17   C     C_R   0.645583 0.502788 0.501174 -0.061271
C18   C     C_R   0.973047 0.397328 0.476042 0.063654
C19   C     C_R   0.976760 0.614765 0.556008 0.046580
C20   C     C_R   0.949643 0.506524 0.513396 0.073517
C21   C     C_R   0.945486 0.300854 0.409711 -0.141665
C22   C     C_R   0.895566 0.303066 0.401167 -0.131499
C23   C     C_R   0.871614 0.404354 0.453199 -0.024737
C24   C     C_R   0.898640 0.507816 0.506197 -0.041922
C25   C     C_R   0.874651 0.612725 0.551170 -0.017930
C26   C     C_R   0.824087 0.610403 0.547079 0.583801
N2    N     N_R   0.798474 0.506793 0.500608 -0.451083
C27   C     C_R   0.821131 0.405647 0.451630 0.597228
C28   C     C_R   0.721707 0.515733 0.377932 -0.093412
C29   C     C_R   0.671590 0.514725 0.376370 -0.148547
C30   C     C_R   0.670583 0.492031 0.627648 -0.252362
C31   C     C_R   0.721097 0.490858 0.630712 0.015906
C32   C     C_R   0.746759 0.503745 0.503691 0.276081
O10   O     O_2   0.794834 0.306052 0.403523 -0.521569
C33   C     C_R   0.023536 0.391221 0.498037 -0.026665
C34   C     C_R   0.050987 0.504183 0.521127 0.059841
C35   C     C_R   0.027833 0.616508 0.548463 0.042434
C36   C     C_R   0.048078 0.277630 0.496991 -0.029125
H4    H     H_    0.653274 0.523853 0.277439 0.174705
H5    H     H_    0.741328 0.526041 0.280811 0.164665
H6    H     H_    0.875853 0.225060 0.353146 0.191548
H7    H     H_    0.962143 0.223770 0.360445 0.152230
O11   O     O_2   0.207182 0.722201 0.545851 -0.530537
C37   C     C_R   0.106639 0.727301 0.558246 -0.125738
H8    H     H_    0.350111 0.541457 0.280730 0.155304
H9    H     H_    0.127110 0.814781 0.570873 0.200948
C38   C     C_R   0.951646 0.718179 0.602300 -0.190132
C39   C     C_R   0.901539 0.716720 0.600405 -0.135199
O12   O     O_2   0.800636 0.710330 0.589922 -0.520224
C40   C     C_R   0.056681 0.727301 0.565267 -0.183430
H10   H     H_    0.969738 0.800800 0.644035 0.142923
H11   H     H_    0.650600 0.481853 0.724236 0.196080
H12   H     H_    0.883950 0.798001 0.637421 0.192821
H13   H     H_    0.041607 0.816651 0.579814 0.179597
H14   H     H_    0.553794 0.119818 0.355641 0.166437
C41   C     C_R   0.422604 0.119243 0.653791 -0.243700
H15   H     H_    0.420545 0.219134 0.651305 0.169793
C42   C     C_R   0.387462 0.049951 0.729836 0.037499
C43   C     C_R   0.387906 0.920182 0.728159 -0.167793
H16   H     H_    0.360845 0.864161 0.784039 0.184898
C44   C     C_R   0.422788 0.860389 0.652774 -0.201344
H17   H     H_    0.420228 0.760017 0.651435 0.163486
C45   C     C_R   0.459060 0.929018 0.578691 0.106839
C46   C     C_R   0.458954 0.060189 0.579003 0.078183
C47   C     C_R   0.494350 0.128234 0.500067 -0.093954
C48   C     C_R   0.527211 0.067607 0.417635 -0.177955
H18   H     H_    0.553724 0.894560 0.355056 0.176713
C49   C     C_R   0.527236 0.939702 0.417383 -0.185114
C50   C     C_R   0.494512 0.870373 0.499748 -0.093292
H19   H     H_    0.444354 0.361704 0.129017 0.146235
C51   C     C_R   0.565516 0.662356 0.143801 -0.230167
H20   H     H_    0.566892 0.670680 0.253552 0.221926
C52   C     C_R   0.598958 0.739753 0.072060 -0.035479
C53   C     C_R   0.598009 0.739859 0.927625 -0.215398
H21   H     H_    0.622987 0.799760 0.868735 0.208277
C54   C     C_R   0.565037 0.662939 0.856018 -0.172560
H22   H     H_    0.567270 0.672524 0.746202 0.211041
C55   C     C_R   0.532033 0.580084 0.925233 0.215547
C56   C     C_R   0.532122 0.579975 0.074632 0.200042
N3    N     N_R   0.500460 0.501210 0.147910 -0.195621
C57   C     C_R   0.469415 0.424015 0.073860 -0.050369
H23   H     H_    0.444431 0.361640 0.870661 0.159602
C58   C     C_R   0.469454 0.423986 0.925937 -0.052031
N4    N     N_R   0.500480 0.501290 0.852040 -0.200491
C59   C     C_3   0.250581 0.556028 0.241899 -0.389201
C60   C     C_3   0.280835 0.586906 0.111174 -0.387645
C61   C     C_3   0.248832 0.618202 0.987825 -0.770359
H24   H     H_    0.224177 0.537370 0.961291 0.248155
H25   H     H_    0.227206 0.699364 0.012754 0.268756
H26   H     H_    0.271710 0.641940 0.895870 0.248326
H27   H     H_    0.305859 0.668491 0.132069 0.235351
H28   H     H_    0.302073 0.505914 0.082353 0.229138
H29   H     H_    0.226106 0.473770 0.219212 0.214671
H30   H     H_    0.227883 0.636074 0.263113 0.223431
C62   C     C_2   0.745816 0.473778 0.766726 0.887146
O13   O     O_2   0.725333 0.498146 0.875459 -0.592053
O14   O     O_R   0.791984 0.427650 0.771805 -0.752243
H31   H     H_    0.804632 0.420394 0.870489 0.344211
C63   C     C_2   0.349871 0.112572 0.809739 0.847326
O15   O     O_2   0.350049 0.226052 0.814488 -0.640541
O16   O     O_R   0.314105 0.041801 0.880536 -0.754839
H32   H     H_    0.290639 0.095076 0.931210 0.346167
C64   C     C_2   0.635102 0.820686 0.147807 0.850863
O17   O     O_2   0.639290 0.812423 0.274376 -0.619292
O18   O     O_R   0.664904 0.906085 0.074201 -0.737625
H33   H     H_    0.688065 0.955461 0.137166 0.355685
C65   C     C_2   0.023792 0.154578 0.527408 0.815747
O19   O     O_2   0.037848 0.060730 0.471995 -0.615530
O20   O     O_R   0.985807 0.145525 0.623008 -0.740508
H34   H     H_    0.972412 0.056962 0.635359 0.329480

loop_
_geom_bond_atom_site_label_1
_geom_bond_atom_site_label_2
_geom_bond_distance
_ccdc_geom_bond_type
C60   H28   1.111896 S    
C26   N2    1.368773 A    
C55   C56   1.433523 A    
C42   C43   1.398553 A    
C20   C24   1.419022 A    
N3    C57   1.367371 A    
C12   C15   1.409326 A    
C41   C46   1.415604 A    
H23   C58   1.081556 S    
Cu1   Cu2   2.699348 S    
C28   C29   1.391658 A    
Cu1   O7    1.948461 S    
C3    C50   1.444812 S    
C60   C61   1.526527 S    
C25   C39   1.398076 A    
C43   C44   1.392813 A    
C21   C22   1.390275 A    
C22   C23   1.397995 A    
C44   C45   1.412675 A    
C36   C65   1.486686 S    
C23   C24   1.408177 A    
H19   C57   1.081779 S    
C51   C52   1.399060 A    
C5    C13   1.404404 A    
C5    O9    1.349752 S    
C19   C38   1.414821 A    
C18   C21   1.411998 A    
O16   H32   1.013975 S    
C61   H26   1.110437 S    
Cu1   O5    1.953788 S    
C19   C20   1.417290 A    
C17   C29   1.401934 A    
H14   C48   1.084285 S    
O5    C3    1.294787 A    
C64   O17   1.223459 D    
C51   C56   1.416992 A    
C62   O13   1.223773 D    
C22   H6    1.083297 S    
C6    O11   1.349663 S    
C2    C16   1.472686 S    
C31   C32   1.416062 A    
C57   C58   1.419364 A    
C8    H8    1.080122 S    
C55   N4    1.381669 A    
C12   C34   1.418247 A    
C59   H30   1.111601 S    
O1    Cu1   1.954089 S    
C9    C10   1.389159 A    
C61   H24   1.110863 S    
Cu2   N3    2.028816 S    
O3    Cu1   1.948222 S    
C1    C47   1.445089 S    
O14   H31   1.013813 S    
C48   C49   1.377763 A    
C33   C34   1.421648 A    
C62   O14   1.398319 S    
C59   H29   1.111830 S    
C33   C36   1.429261 A    
C37   H9    1.083510 S    
C43   H16   1.083123 S    
C38   H10   1.077789 S    
C34   C35   1.422217 A    
C12   C13   1.406441 A    
O3    C2    1.303336 A    
C21   H7    1.079542 S    
C24   C25   1.407737 A    
C41   C42   1.404507 A    
C45   C46   1.413060 A    
C27   O10   1.349616 S    
C8    C16   1.405982 A    
C18   C33   1.422572 A    
C9    H1    1.082709 S    
C42   C63   1.484677 S    
C30   H11   1.083659 S    
O1    C1    1.294830 A    
C7    C11   1.413271 A    
C38   C39   1.391228 A    
C54   C55   1.413944 A    
C49   C50   1.394125 A    
N1    C11   1.433806 S    
Cu2   O8    1.948217 S    
N1    C6    1.366720 A    
O7    C4    1.302812 A    
N2    C32   1.435572 S    
C44   H17   1.080134 S    
C61   H25   1.110833 S    
Cu1   N4    2.028336 S    
C25   C26   1.404013 A    
C9    C16   1.401004 A    
O8    C4    1.303986 A    
C29   H4    1.083056 S    
C58   N4    1.367427 A    
C53   C54   1.386756 A    
N2    C27   1.368232 A    
C52   C64   1.486758 S    
C53   H21   1.083514 S    
C14   C36   1.399765 A    
C54   H22   1.060284 S    
O18   H33   1.013962 S    
C60   H27   1.111902 S    
C5    N1    1.366677 A    
C39   H12   1.083428 S    
C10   H2    1.082318 S    
C51   H20   1.057458 S    
C17   C30   1.404879 A    
O2    Cu2   1.953788 S    
C6    C15   1.403648 A    
C4    C17   1.473312 S    
C47   C48   1.394912 A    
O6    C3    1.295477 A    
O4    Cu2   1.948464 S    
C63   O16   1.398931 S    
C7    C59   1.523441 S    
C63   O15   1.223010 D    
C31   C62   1.489311 S    
C19   C35   1.419793 A    
C7    C8    1.409481 A    
O2    C1    1.295608 A    
C13   C14   1.396928 A    
C23   C27   1.403024 A    
C15   C37   1.396958 A    
C37   C40   1.389376 A    
C28   H5    1.083102 S    
O4    C2    1.303084 A    
C40   H13   1.077272 S    
C59   C60   1.537897 S    
C18   C20   1.417732 A    
C56   N3    1.384172 A    
C64   O18   1.398879 S    
C30   C31   1.404038 A    
C46   C47   1.417293 A    
C45   C50   1.416186 A    
C14   H3    1.084287 S    
C41   H15   1.080496 S    
C52   C53   1.386115 A    
Cu2   O6    1.954090 S    
H18   C49   1.082472 S    
C10   C11   1.398254 A    
C26   O12   1.349542 S    
C65   O19   1.223401 D    
C65   O20   1.398802 S    
C35   C40   1.414054 A    
C28   C32   1.401166 A    
O20   H34   1.013912 S    
