data_mof_unit_21843.cif
_audit_creation_date              2012-12-10T16:55:42-0500
_audit_creation_method            fapswitch 2.2
_symmetry_space_group_name_H-M    P1
_symmetry_Int_Tables_number       1
_space_group_crystal_system       triclinic
_cell_length_a                    7.759873
_cell_length_b                    8.604379
_cell_length_c                    10.519294
_cell_angle_alpha                 91.106872
_cell_angle_beta                  85.323972
_cell_angle_gamma                 94.020407
_cell_volume                      698.235801771

loop_
_atom_site_label
_atom_site_type_symbol
_atom_type_description
_atom_site_fract_x
_atom_site_fract_y
_atom_site_fract_z
_atom_type_partial_charge
C1    C     C_R   0.546178 0.794225 0.509404 0.911677
C2    C     C_3   0.504212 0.502215 0.876375 -0.159587
C3    C     C_3   0.335188 0.473328 0.047853 0.492850
C4    C     C_3   0.664928 0.526901 0.951971 0.489245
C5    C     C_2   0.571632 0.957588 0.534559 -0.111882
C6    C     C_2   0.430440 0.044355 0.544633 -0.111713
C7    C     C_R   0.454532 0.206295 0.515787 0.914339
C8    C     C_R   0.502017 0.502985 0.742223 0.897104
C9    C     C_R   0.498019 0.497135 0.257754 0.939904
C10   C     C_3   0.406647 0.612320 0.966668 0.062878
C11   C     C_3   0.593506 0.387901 0.033149 0.057754
C12   C     C_3   0.566848 0.640000 0.043301 -0.371876
C13   C     C_3   0.433287 0.360212 0.956532 -0.377399
C14   C     C_3   0.495909 0.497987 0.123506 -0.173350
Cl1   Cl    Cl    0.117567 0.437364 0.114018 -0.551100
Cl2   Cl    Cl    0.882463 0.563004 0.885621 -0.565780
H1    H     H_    0.618395 0.753542 0.081601 0.181022
H2    H     H_    0.753922 0.060772 0.641355 0.187317
H3    H     H_    0.162595 0.057016 0.573891 0.203231
H4    H     H_    0.253167 0.949032 0.677701 0.190674
H5    H     H_    0.381811 0.246713 0.918077 0.172727
H6    H     H_    0.013641 0.380837 0.405722 0.230185
H7    H     H_    0.986373 0.619185 0.594275 0.222901
H8    H     H_    0.256378 0.793339 0.007367 0.217335
H9    H     H_    0.387906 0.813954 0.873216 0.152309
H10   H     H_    0.744081 0.207218 0.992038 0.209825
H11   H     H_    0.612673 0.186032 0.126187 0.169971
H12   H     H_    0.839745 0.944876 0.526883 0.204235
N1    N     N_2   0.950320 0.457950 0.465730 -0.147272
N2    N     N_2   0.049680 0.542050 0.534270 -0.149416
N3    N     N_3   0.303632 0.734372 0.925489 -0.359352
N4    N     N_3   0.696752 0.265874 0.074053 -0.349741
N5    N     N_3   0.745999 0.025306 0.546227 -0.420014
N6    N     N_3   0.257201 0.977926 0.581350 -0.423905
O1    O     O_R   0.389250 0.738570 0.508410 -0.592000
O2    O     O_R   0.610750 0.261430 0.491590 -0.593380
O3    O     O_R   0.678390 0.711620 0.486450 -0.640037
O4    O     O_R   0.321610 0.288380 0.513550 -0.643266
O5    O     O_R   0.355460 0.513510 0.697030 -0.583720
O6    O     O_R   0.644540 0.486490 0.302970 -0.571279
O7    O     O_R   0.644600 0.486560 0.675070 -0.614935
O8    O     O_R   0.355400 0.513440 0.324930 -0.600760
Zn1   Zn    Zn3+2 0.306940 0.517990 0.514670 1.001099
Zn2   Zn    Zn3+2 0.693060 0.482010 0.485330 1.003181

loop_
_geom_bond_atom_site_label_1
_geom_bond_atom_site_label_2
_ccdc_geom_bond_type
C12   H1    S    
C4    Cl2   S    
C2    C4    S    
C9    C14   S    
H9    N3    S    
C6    C7    S    
C8    O5    A    
C4    C12   S    
O1    Zn1   S    
C7    O2    A    
C3    C13   S    
C1    O3    A    
H4    N6    S    
O3    Zn2   S    
H8    N3    S    
C13   H5    S    
O4    Zn1   S    
C3    C10   S    
C4    C11   S    
H10   N4    S    
C11   C13   S    
C9    O8    A    
N1    N2    D    
C3    C14   S    
C10   C12   S    
C1    C5    S    
O7    Zn2   S    
C7    O4    A    
C12   C14   S    
C11   N4    S    
N1    Zn2   S    
C5    C6    D    
H2    N5    S    
N2    Zn1   S    
O2    Zn2   S    
H12   N5    S    
C2    C10   S    
H7    N2    S    
O6    Zn2   S    
C3    Cl1   S    
C8    O7    A    
C1    O1    A    
O8    Zn1   S    
H6    N1    S    
C11   C14   S    
C2    C13   S    
O5    Zn1   S    
H11   N4    S    
C10   N3    S    
C9    O6    A    
C2    C8    S    
C6    N6    S    
H3    N6    S    
C5    N5    S    
