data_mof_unit_53396.cif
_audit_creation_date              2012-10-26T18:50:01-0400
_audit_creation_method            fapswitch 2.2
_symmetry_space_group_name_H-M    P1
_symmetry_Int_Tables_number       1
_space_group_crystal_system       triclinic
_cell_length_a                    11.065307
_cell_length_b                    13.025696
_cell_length_c                    11.779285
_cell_angle_alpha                 102.468193
_cell_angle_beta                  94.510697
_cell_angle_gamma                 95.928155
_cell_volume                      1639.95098405

loop_
_atom_site_label
_atom_site_type_symbol
_atom_type_description
_atom_site_fract_x
_atom_site_fract_y
_atom_site_fract_z
_atom_type_partial_charge
C1    C     C_R   0.508542 0.299583 0.477138 0.573859
C2    C     C_R   0.449679 0.856385 0.437594 0.088357
C3    C     C_R   0.521524 0.034333 0.554759 0.036545
C4    C     C_R   0.478474 0.965666 0.445242 0.036544
C5    C     C_R   0.426489 0.369554 0.009813 0.095743
C6    C     C_R   0.573507 0.630446 0.990188 0.095752
C7    C     C_R   0.423116 0.386892 0.133102 0.263314
C8    C     C_R   0.576881 0.613108 0.866899 0.263336
C9    C     C_R   0.529129 0.558646 0.162465 0.062636
C10   C     C_R   0.470870 0.441353 0.837534 0.062636
C11   C     C_R   0.525182 0.548069 0.038581 -0.003591
C12   C     C_R   0.491458 0.700417 0.522862 0.573850
C13   C     C_R   0.474815 0.451931 0.961419 -0.003596
C14   C     C_R   0.260601 0.488770 0.498226 0.538543
C15   C     C_R   0.739398 0.511235 0.501773 0.538546
C16   C     C_R   0.129957 0.494702 0.714355 -0.077583
C17   C     C_R   0.870041 0.505329 0.285641 -0.077596
C18   C     C_R   0.094996 0.549226 0.819571 0.129390
C19   C     C_R   0.905026 0.450847 0.180416 0.129378
C20   C     C_R   0.997652 0.608877 0.817686 0.150719
C21   C     C_R   0.002383 0.391222 0.182288 0.150716
C22   C     C_R   0.924173 0.597765 0.712378 -0.075782
C23   C     C_R   0.480687 0.814504 0.535970 0.006373
C24   C     C_R   0.075850 0.402306 0.287598 -0.075790
C25   C     C_R   0.954240 0.537907 0.606676 -0.011997
C26   C     C_R   0.045762 0.462120 0.393313 -0.012001
C27   C     C_R   0.070621 0.502427 0.605973 -0.008349
C28   C     C_R   0.929375 0.497587 0.394018 -0.008340
C29   C     C_R   0.876482 0.522466 0.501237 -0.016496
C30   C     C_R   0.123517 0.477547 0.498756 -0.016491
C31   C     C_R   0.519312 0.185496 0.464031 0.006375
C32   C     C_R   0.470044 0.007455 0.345156 -0.089300
C33   C     C_R   0.529952 0.992545 0.654845 -0.089301
C34   C     C_R   0.491462 0.115907 0.354746 -0.129481
C35   C     C_R   0.508534 0.884092 0.645256 -0.129482
C36   C     C_R   0.550320 0.143615 0.562406 0.088356
Cu1   Cu    Cu3+1 0.509250 0.507730 0.615930 1.020769
Cu2   Cu    Cu3+1 0.490750 0.492270 0.384070 1.020749
H1    H     H_    0.203064 0.446494 0.719208 0.160087
H2    H     H_    0.575549 0.628329 0.222409 0.168430
H3    H     H_    0.796924 0.553527 0.280796 0.160078
H4    H     H_    0.850639 0.643643 0.709383 0.167261
H5    H     H_    0.149406 0.356461 0.290572 0.167304
H6    H     H_    0.513219 0.855318 0.724056 0.180107
H7    H     H_    0.486774 0.144682 0.275946 0.180107
H8    H     H_    0.447615 0.957268 0.258573 0.186494
H9    H     H_    0.552380 0.042732 0.741430 0.186491
H10   H     H_    0.424450 0.371670 0.777591 0.168431
I1    I     I_    0.031609 0.278192 0.030517 -0.157589
I2    I     I_    0.324195 0.259557 0.185679 -0.265804
I3    I     I_    0.968480 0.721980 0.969427 -0.157520
I4    I     I_    0.362868 0.216766 0.894149 -0.275149
I5    I     I_    0.637135 0.783232 0.105854 -0.275144
I6    I     I_    0.196315 0.545494 0.977882 -0.259463
I7    I     I_    0.803755 0.454647 0.022094 -0.259464
I8    I     I_    0.334085 0.761693 0.288223 -0.242244
I9    I     I_    0.665914 0.238306 0.711779 -0.242245
I10   I     I_    0.675797 0.740442 0.814325 -0.265801
N1    N     N_R   0.523180 0.519350 0.790130 -0.244413
N2    N     N_R   0.476820 0.480650 0.209870 -0.244420
O1    O     O_R   0.506570 0.354460 0.582000 -0.490559
O2    O     O_R   0.493430 0.645540 0.418000 -0.490560
O3    O     O_R   0.490940 0.341410 0.386200 -0.488327
O4    O     O_R   0.509060 0.658590 0.613800 -0.488330
O5    O     O_R   0.327470 0.506520 0.597900 -0.519299
O6    O     O_R   0.672530 0.493480 0.402100 -0.519305
O7    O     O_R   0.311840 0.493460 0.402100 -0.473250
O8    O     O_R   0.688160 0.506540 0.597900 -0.473213

loop_
_geom_bond_atom_site_label_1
_geom_bond_atom_site_label_2
_ccdc_geom_bond_type
C19   C21   A    
C22   H4    S    
C1    O1    A    
Cu1   O1    S    
C14   O7    A    
C5    I4    S    
C15   C29   S    
Cu1   Cu2   S    
C25   C27   A    
C11   C13   A    
C2    C4    A    
C24   C26   A    
C9    N2    A    
C5    C13   A    
C2    C23   A    
C16   C27   A    
C21   I1    S    
C10   N1    A    
C31   C34   A    
C34   H7    S    
C2    I8    S    
C15   O6    A    
C27   C30   A    
C10   H10   S    
C35   H6    S    
C9    C11   A    
C12   C23   S    
Cu1   N1    S    
C32   H8    S    
C3    C36   A    
C14   C30   S    
Cu2   N2    S    
C15   O8    A    
C1    O3    A    
C28   C29   A    
C33   C35   A    
C14   O5    A    
C20   C22   A    
C26   C30   A    
C20   I3    S    
C23   C35   A    
C8    N1    A    
C25   C29   A    
C12   O4    A    
C17   H3    S    
C18   I6    S    
C6    I5    S    
C33   H9    S    
C4    C32   A    
Cu1   O8    S    
Cu2   O6    S    
C7    N2    A    
C1    C31   S    
Cu1   O4    S    
C12   O2    A    
Cu2   O7    S    
C18   C20   A    
C16   C18   A    
C36   I9    S    
C21   C24   A    
C19   I7    S    
C6    C11   A    
C5    C7    A    
C24   H5    S    
C3    C33   A    
C31   C36   A    
C17   C19   A    
C6    C8    A    
C16   H1    S    
C8    I10   S    
Cu2   O3    S    
C17   C28   A    
C26   C28   A    
C10   C13   A    
C9    H2    S    
C3    C4    A    
C7    I2    S    
C32   C34   A    
Cu2   O2    S    
C22   C25   A    
Cu1   O5    S    
