data_mof_unit_41923.cif
_audit_creation_date              2012-12-10T18:23:09-0500
_audit_creation_method            fapswitch 2.2
_symmetry_space_group_name_H-M    P1
_symmetry_Int_Tables_number       1
_space_group_crystal_system       triclinic
_cell_length_a                    14.937383
_cell_length_b                    14.055972
_cell_length_c                    10.489607
_cell_angle_alpha                 89.651967
_cell_angle_beta                  90.479736
_cell_angle_gamma                 90.367831
_cell_volume                      2202.22948039

loop_
_atom_site_label
_atom_site_type_symbol
_atom_type_description
_atom_site_fract_x
_atom_site_fract_y
_atom_site_fract_z
_atom_type_partial_charge
C1    C     C_R   0.327065 0.499758 0.494438 0.956240
C2    C     C_R   0.946375 0.584499 0.292814 -0.049677
C3    C     C_R   0.526565 0.798573 0.394047 -0.014086
C4    C     C_R   0.473505 0.201419 0.605986 -0.025236
C5    C     C_R   0.473415 0.797289 0.605921 -0.035597
C6    C     C_R   0.526598 0.202708 0.394082 -0.018184
C7    C     C_R   0.473106 0.898080 0.609746 -0.038414
C8    C     C_R   0.526971 0.101913 0.390286 -0.036535
C9    C     C_R   0.526972 0.899420 0.390263 -0.038758
C10   C     C_R   0.473144 0.100570 0.609789 -0.034836
C11   C     C_R   0.500035 0.949455 0.500007 0.059087
C12   C     C_R   0.672886 0.500388 0.504108 0.844609
C13   C     C_R   0.500051 0.050537 0.500029 0.061117
C14   C     C_R   0.446772 0.948260 0.719894 -0.040622
C15   C     C_R   0.553391 0.051728 0.280181 -0.044116
C16   C     C_R   0.553447 0.950968 0.280199 -0.042870
C17   C     C_R   0.446763 0.049019 0.719899 -0.039022
C18   C     C_R   0.500441 0.500336 0.257210 0.933529
C19   C     C_R   0.500078 0.499645 0.742777 0.860893
C20   C     C_3   0.500357 0.590858 0.039307 -0.106749
C21   C     C_3   0.500404 0.409050 0.960619 -0.153712
C22   C     C_3   0.574032 0.545345 0.957882 -0.189613
C23   C     C_R   0.953385 0.510604 0.506559 0.024147
C24   C     C_3   0.426734 0.454551 0.042028 -0.092349
C25   C     C_3   0.426606 0.544258 0.956395 -0.107392
C26   C     C_3   0.574150 0.455643 0.043557 -0.195996
C27   C     C_3   0.500270 0.498880 0.877697 -0.017069
C28   C     C_3   0.500478 0.501035 0.122250 -0.004437
C29   C     C_R   0.810948 0.549544 0.411290 -0.186418
C30   C     C_R   0.187292 0.453734 0.585294 -0.225471
C31   C     C_R   0.768376 0.502835 0.510143 -0.139594
C32   C     C_R   0.231450 0.499023 0.486666 -0.115371
C33   C     C_R   0.815653 0.460670 0.611224 -0.099776
C34   C     C_R   0.046588 0.507508 0.498977 0.031188
C35   C     C_R   0.185072 0.548524 0.390268 -0.048498
C36   C     C_R   0.909593 0.473237 0.616407 0.017222
C37   C     C_R   0.090607 0.542722 0.388106 0.027047
C38   C     C_2   0.766414 0.398088 0.702432 0.415317
C39   C     C_2   0.234133 0.612702 0.300914 0.480927
C40   C     C_2   0.917916 0.456277 0.855631 0.461335
C41   C     C_2   0.078145 0.579144 0.150629 0.407057
C42   C     C_2   0.108141 0.409550 0.829152 0.487024
C43   C     C_2   0.894665 0.627769 0.185268 0.347674
C44   C     C_1   0.419917 0.896785 0.833950 0.173983
C45   C     C_R   0.903584 0.550644 0.404108 0.102949
C46   C     C_1   0.580323 0.103198 0.166161 0.183238
C47   C     C_1   0.580686 0.900926 0.166323 0.191675
C48   C     C_1   0.419718 0.099054 0.833877 0.170068
C49   C     C_R   0.095975 0.466301 0.600794 0.073574
C50   C     C_R   0.960634 0.450782 0.727358 -0.058255
C51   C     C_R   0.038990 0.571990 0.280354 -0.129953
C52   C     C_R   0.054112 0.440778 0.716769 -0.084945
H1    H     H_    0.366615 0.580103 0.916032 0.176559
H2    H     H_    0.452631 0.242032 0.687536 0.142740
H3    H     H_    0.452413 0.755710 0.687442 0.150460
H4    H     H_    0.547577 0.244285 0.312549 0.148440
H5    H     H_    0.700410 0.417740 0.735365 0.051293
H6    H     H_    0.206341 0.681638 0.276373 0.040018
H7    H     H_    0.861637 0.503565 0.869030 0.022717
H8    H     H_    0.059877 0.636922 0.086705 0.054276
H9    H     H_    0.089332 0.345914 0.881680 0.134653
H10   H     H_    0.902678 0.601752 0.088898 0.073656
H11   H     H_    0.634106 0.419769 0.083970 0.160649
H12   H     H_    0.500268 0.664938 0.075476 0.167653
H13   H     H_    0.500480 0.334970 0.924451 0.171144
H14   H     H_    0.633925 0.581983 0.918608 0.148580
H15   H     H_    0.366833 0.417856 0.081184 0.188909
H16   H     H_    0.769728 0.578116 0.335022 0.183007
H17   H     H_    0.226719 0.414898 0.655077 0.176398
H18   H     H_    0.547458 0.757953 0.312511 0.145687
N1    N     N_R   0.500000 0.750030 0.500000 -0.111340
N2    N     N_R   0.500000 0.249970 0.500000 -0.110236
N3    N     N_1   0.398533 0.855744 0.924837 -0.195525
N4    N     N_1   0.601771 0.144235 0.075301 -0.176798
N5    N     N_1   0.602423 0.861059 0.075568 -0.179902
N6    N     N_1   0.398143 0.138909 0.924721 -0.197128
O1    O     O_R   0.367850 0.580280 0.500030 -0.604074
O2    O     O_2   0.303370 0.587860 0.250330 -0.571271
O3    O     O_2   0.942907 0.407973 0.946018 -0.560109
O4    O     O_2   0.128714 0.517819 0.112723 -0.480275
O5    O     O_2   0.173021 0.455749 0.865018 -0.553064
O6    O     O_2   0.845516 0.695375 0.203246 -0.554735
O7    O     O_R   0.632150 0.419720 0.499970 -0.610419
O8    O     O_R   0.632150 0.580280 0.499970 -0.609417
O9    O     O_R   0.367850 0.419720 0.500030 -0.617712
O10   O     O_R   0.499970 0.580260 0.313950 -0.612216
O11   O     O_R   0.500030 0.419740 0.686050 -0.639523
O12   O     O_R   0.500030 0.580260 0.686050 -0.634536
O13   O     O_R   0.499970 0.419740 0.313950 -0.639293
O14   O     O_2   0.797882 0.322201 0.737310 -0.518693
Zn1   Zn    Zn3+2 0.500000 0.607200 0.500000 0.975965
Zn2   Zn    Zn3+2 0.500000 0.392800 0.500000 0.967110

loop_
_geom_bond_atom_site_label_1
_geom_bond_atom_site_label_2
_ccdc_geom_bond_type
C21   C26   S    
C8    C13   A    
C23   C45   A    
C34   C37   A    
C1    O1    A    
C48   N6    T    
C35   C39   S    
C17   C48   S    
C46   N4    T    
C41   O4    D    
C7    C11   A    
O7    Zn2   S    
C18   O10   A    
C35   C37   A    
C9    C16   A    
C25   H1    S    
C19   O11   A    
O10   Zn1   S    
N2    Zn2   S    
C40   C50   S    
C20   C25   S    
C10   C17   A    
C15   C16   A    
C29   H16   S    
C33   C36   A    
C12   O8    A    
C22   H14   S    
C24   H15   S    
C7    C14   A    
C50   C52   A    
C31   C33   A    
O8    Zn1   S    
C19   C27   S    
C21   H13   S    
C49   C52   A    
C21   C27   S    
C40   H7    S    
O11   Zn2   S    
C14   C17   A    
C42   O5    D    
C16   C47   S    
O9    Zn2   S    
C2    C45   A    
C1    O9    A    
C32   C35   A    
C3    H18   S    
C18   C28   S    
C24   C25   S    
C19   O12   A    
C5    C7    A    
C6    C8    A    
C20   C28   S    
C6    N2    A    
C39   H6    S    
C1    C32   S    
C12   O7    A    
C29   C45   A    
C20   H12   S    
C3    N1    A    
C26   H11   S    
C39   O2    D    
C3    C9    A    
C38   H5    S    
O12   Zn1   S    
C2    C43   S    
C23   C34   A    
C40   O3    D    
O13   Zn2   S    
C9    C11   A    
C42   H9    S    
C30   C49   A    
C20   C22   S    
C8    C15   A    
C22   C27   S    
C12   C31   S    
C4    C10   A    
C4    N2    A    
C30   H17   S    
C36   C50   A    
C14   C44   S    
O1    Zn1   S    
C34   C49   A    
C4    H2    S    
C18   O13   A    
C5    H3    S    
C24   C28   S    
C41   H8    S    
C6    H4    S    
C10   C13   A    
C25   C27   S    
C38   O14   D    
C26   C28   S    
C33   C38   S    
C47   N5    T    
C29   C31   A    
C30   C32   A    
C11   C13   A    
C37   C51   A    
C44   N3    T    
C2    C51   A    
N1    Zn1   S    
C5    N1    A    
C23   C36   A    
C22   C26   S    
C21   C24   S    
C43   O6    D    
C15   C46   S    
C41   C51   S    
C43   H10   S    
C42   C52   S    
