data_mof_unit_23084.cif
_audit_creation_date              2012-12-10T21:34:46-0500
_audit_creation_method            fapswitch 2.2
_symmetry_space_group_name_H-M    P1
_symmetry_Int_Tables_number       1
_space_group_crystal_system       triclinic
_cell_length_a                    10.88082
_cell_length_b                    16.209528
_cell_length_c                    16.785583
_cell_angle_alpha                 88.447303
_cell_angle_beta                  92.160356
_cell_angle_gamma                 91.388828
_cell_volume                      2956.53362905

loop_
_atom_site_label
_atom_site_type_symbol
_atom_type_description
_atom_site_fract_x
_atom_site_fract_y
_atom_site_fract_z
_atom_type_partial_charge
C1    C     C_R   0.497178 0.489762 0.653287 1.108469
C2    C     C_3   0.125042 0.504092 0.517855 -0.409071
C3    C     C_3   0.073743 0.491327 0.431207 -0.521078
C4    C     C_3   0.080019 0.593908 0.543277 0.717719
C5    C     C_R   0.485205 0.485743 0.739959 -0.432228
C6    C     C_R   0.454350 0.557374 0.780014 0.576397
C7    C     C_R   0.433498 0.553898 0.861130 0.183989
C8    C     C_R   0.457140 0.480185 0.904261 -0.128846
C9    C     C_R   0.484090 0.408404 0.865021 0.609057
C10   C     C_R   0.496187 0.410546 0.783013 0.523411
C11   C     C_R   0.545785 0.443359 0.137834 0.563683
C12   C     C_R   0.742728 0.499849 0.507873 1.032656
C13   C     C_R   0.526927 0.440570 0.218572 0.542880
C14   C     C_R   0.560674 0.519589 0.097249 -0.109661
C15   C     C_R   0.523921 0.514256 0.260935 -0.489923
C16   C     C_R   0.550197 0.590155 0.221568 0.525957
C17   C     C_R   0.573424 0.592688 0.140234 0.235671
C18   C     C_R   0.486427 0.760926 0.441619 -0.004547
C19   C     C_R   0.495148 0.847734 0.438524 0.178175
C20   C     C_R   0.530362 0.890223 0.508948 0.103961
C21   C     C_R   0.559794 0.843051 0.578639 0.260931
C22   C     C_R   0.550943 0.756521 0.577471 -0.012466
C23   C     C_R   0.504069 0.510269 0.346803 1.085113
C24   C     C_R   0.580316 0.148118 0.500644 0.486236
C25   C     C_R   0.579758 0.232616 0.518041 0.288896
C26   C     C_R   0.469156 0.106203 0.483635 0.016473
C27   C     C_R   0.380156 0.241565 0.458377 0.289911
C28   C     C_R   0.364846 0.154247 0.470402 0.179569
C29   C     C_R   0.260190 0.500569 0.510697 1.000812
C30   C     C_3   0.932194 0.436452 0.578732 0.006937
C31   C     C_3   0.072533 0.427242 0.567501 0.138862
C32   C     C_3   0.930845 0.487586 0.425826 0.570796
C33   C     C_3   0.933081 0.594092 0.543042 0.647234
C34   C     C_3   0.880811 0.504206 0.515196 -0.508576
H1    H     H_    0.887893 0.377889 0.561339 0.245324
H2    H     H_    0.113974 0.538895 0.390469 0.271017
H3    H     H_    0.569744 0.720872 0.631398 0.266099
H4    H     H_    0.457646 0.728106 0.388790 0.231392
H5    H     H_    0.074748 0.374937 0.526366 0.216777
H6    H     H_    0.110860 0.434355 0.407876 0.262517
N1    N     N_2   0.465103 0.478303 0.987516 0.008549
N2    N     N_2   0.551290 0.523337 0.013398 0.007296
N3    N     N_R   0.515460 0.716920 0.509720 -0.138096
N4    N     N_2   0.545894 0.978199 0.510939 0.029591
N5    N     N_2   0.457480 0.017614 0.480915 0.007308
N6    N     N_R   0.484530 0.283060 0.490290 -0.222512
O1    O     O_R   0.494470 0.422540 0.612660 -0.548222
O2    O     O_R   0.504400 0.561840 0.618900 -0.559432
O3    O     O_R   0.680240 0.430340 0.496890 -0.578800
O4    O     O_R   0.690170 0.569650 0.503130 -0.525389
O5    O     O_R   0.495600 0.438160 0.381100 -0.525823
O6    O     O_R   0.505530 0.577460 0.387340 -0.586153
O7    O     O_R   0.309830 0.430350 0.496870 -0.566060
O8    O     O_R   0.319760 0.569660 0.503110 -0.552582
Zn1   Zn    Zn3+2 0.493370 0.406980 0.495830 1.161557
Zn2   Zn    Zn3+2 0.506630 0.593020 0.504170 1.142993
F1    F     F_    0.113548 0.648391 0.481951 -0.572148
S1    S     S_3+6 0.883467 0.562864 0.345956 0.155831
O9    O     O_2   0.755568 0.591593 0.356454 -0.239446
O10   O     O_2   0.968197 0.637544 0.343181 -0.139168
O11   O     O_3   0.886405 0.519887 0.255881 -0.472863
H7    H     H_    0.845005 0.559616 0.218532 0.384183
F2    F     F_    0.509829 0.365155 0.254207 -0.540698
F3    F     F_    0.545774 0.371414 0.098111 -0.496574
F4    F     F_    0.503027 0.336868 0.907143 -0.483965
F5    F     F_    0.521254 0.339550 0.746719 -0.521687
F6    F     F_    0.553535 0.661785 0.261802 -0.538191
S2    S     S_3+6 0.373685 0.641782 0.905374 0.205988
O12   O     O_2   0.471552 0.708681 0.907865 -0.113876
O13   O     O_2   0.266489 0.672537 0.854810 -0.145694
O14   O     O_3   0.326449 0.620973 0.998196 -0.485974
H8    H     H_    0.253379 0.583897 0.991059 0.372629
S3    S     S_3+6 0.616153 0.688108 0.094379 0.196468
O15   O     O_2   0.676960 0.675142 0.016911 -0.218447
O16   O     O_2   0.503255 0.738702 0.079661 -0.128703
O17   O     O_3   0.714983 0.739151 0.155977 -0.430072
H9    H     H_    0.727734 0.794007 0.129749 0.411869
S4    S     S_3+6 0.889028 0.437803 0.683529 0.156857
O18   O     O_2   0.769056 0.478748 0.693072 -0.271793
O19   O     O_2   0.872297 0.350521 0.714296 -0.158554
O20   O     O_3   0.996771 0.481492 0.743709 -0.406227
H10   H     H_    0.967141 0.472047 0.798363 0.405559
F7    F     F_    0.443322 0.631201 0.740845 -0.562325
S5    S     S_3+6 0.678368 0.253998 0.600461 0.181737
O21   O     O_2   0.678041 0.341855 0.621784 -0.200641
O22   O     O_2   0.633983 0.202797 0.670183 -0.162405
O23   O     O_3   0.822621 0.226465 0.582413 -0.478319
H11   H     H_    0.857980 0.206103 0.634293 0.424829
F8    F     F_    0.685382 0.105331 0.514156 -0.545638
S6    S     S_3+6 0.606567 0.891481 0.668116 0.156371
O24   O     O_2   0.724733 0.939141 0.655416 -0.165071
O25   O     O_2   0.509182 0.950090 0.690139 -0.202578
O26   O     O_3   0.628204 0.820949 0.742394 -0.454458
H12   H     H_    0.652770 0.853406 0.789791 0.422395
S7    S     S_3+6 0.273370 0.284467 0.385768 0.174377
O27   O     O_2   0.147519 0.282345 0.418930 -0.187829
O28   O     O_2   0.299602 0.370091 0.355350 -0.260415
O29   O     O_3   0.269462 0.223278 0.306354 -0.405454
H13   H     H_    0.355305 0.223423 0.288675 0.392712
S8    S     S_3+6 0.469085 0.899383 0.345209 0.150311
O30   O     O_2   0.566910 0.965182 0.333451 -0.171580
O31   O     O_2   0.471896 0.839917 0.278143 -0.165639
O32   O     O_3   0.330904 0.943784 0.343178 -0.439449
H14   H     H_    0.272287 0.898865 0.358309 0.381095
S9    S     S_3+6 0.215557 0.105954 0.475343 0.181601
O33   O     O_2   0.158850 0.097426 0.392885 -0.143391
O34   O     O_2   0.221731 0.021763 0.514912 -0.225944
O35   O     O_3   0.125567 0.163917 0.529646 -0.448005
H15   H     H_    0.041540 0.139915 0.521758 0.418046
S10   S     S_3+6 0.167889 0.377709 0.646614 0.127001
O36   O     O_2   0.229456 0.439346 0.700428 -0.285699
O37   O     O_2   0.094435 0.317315 0.695781 -0.163002
O38   O     O_3   0.276608 0.321744 0.606467 -0.510601
H16   H     H_    0.317792 0.292180 0.652067 0.414791
S11   S     S_3+6 0.881831 0.387355 0.384190 0.091209
O39   O     O_2   0.749805 0.390359 0.354893 -0.242723
O40   O     O_2   0.958120 0.371234 0.313574 -0.150519
O41   O     O_3   0.897676 0.305934 0.447100 -0.536674
H17   H     H_    0.865445 0.257977 0.416766 0.430991
F9    F     F_    0.896478 0.649427 0.483501 -0.563300
S12   S     S_3+6 0.863956 0.644102 0.628989 0.186499
O42   O     O_2   0.731773 0.620741 0.638207 -0.255582
O43   O     O_2   0.927755 0.626686 0.707977 -0.135760
O44   O     O_3   0.865258 0.747710 0.614601 -0.420936
H18   H     H_    0.915408 0.760954 0.567856 0.412475
S13   S     S_3+6 0.162208 0.642375 0.628856 0.165599
O45   O     O_2   0.104004 0.722294 0.647513 -0.210741
O46   O     O_2   0.165125 0.588568 0.702519 -0.172161
O47   O     O_3   0.307410 0.669659 0.608783 -0.478156
H19   H     H_    0.324587 0.721620 0.637317 0.402896

loop_
_geom_bond_atom_site_label_1
_geom_bond_atom_site_label_2
_ccdc_geom_bond_type
C8    C9    A    
C17   S3    S    
O23   H11   S    
S13   O45   D    
S3    O15   D    
C27   S7    S    
C19   C20   A    
S5    O23   S    
C32   S1    S    
C24   F8    S    
C12   O3    A    
S6    O24   D    
S7    O29   S    
C7    C8    A    
S9    O34   D    
O26   H12   S    
C10   F5    S    
C30   H1    S    
C2    C29   S    
C1    C5    S    
S5    O22   D    
O47   H19   S    
C5    C6    A    
C11   C14   A    
S4    O19   D    
C29   O8    A    
S1    O10   D    
C15   C16   A    
O35   H15   S    
C18   C19   A    
N1    N2    D    
S10   O36   D    
S12   O44   S    
C26   N5    S    
C7    S2    S    
O41   H17   S    
C23   O5    A    
S7    O27   D    
C16   C17   A    
S11   O40   D    
C4    F1    S    
C25   S5    S    
C9    C10   A    
C14   N2    S    
S1    O11   S    
C15   C23   S    
C8    N1    S    
C21   C22   A    
C33   S12   S    
S3    O16   D    
C14   C17   A    
C3    C32   S    
C20   N4    S    
O20   H10   S    
S10   O37   D    
C21   S6    S    
O7    Zn1   S    
S9    O35   S    
O8    Zn2   S    
C30   C34   S    
C24   C25   A    
C11   F3    S    
S4    O18   D    
S2    O12   D    
S13   O47   S    
S1    O9    D    
O3    Zn1   S    
C22   H3    S    
S8    O32   S    
O4    Zn2   S    
C2    C31   S    
C32   C34   S    
N6    Zn1   S    
C2    C4    S    
S6    O25   D    
C22   N3    A    
C13   F2    S    
C28   S9    S    
S11   O41   S    
S8    O31   D    
C33   C34   S    
C16   F6    S    
S5    O21   D    
S10   O38   S    
S12   O42   D    
C27   N6    A    
C3    H6    S    
C13   C15   A    
S3    O17   S    
C12   C34   S    
O32   H14   S    
N4    N5    D    
S6    O26   S    
O1    Zn1   S    
O38   H16   S    
O2    Zn2   S    
C4    C33   S    
S13   O46   D    
C6    F7    S    
C1    O1    A    
C24   C26   A    
C12   O4    A    
C19   S8    S    
S7    O28   D    
C1    O2    A    
C6    C7    A    
S9    O33   D    
C26   C28   A    
C4    S13   S    
C2    C3    S    
C18   H4    S    
C5    C10   A    
C18   N3    A    
O17   H9    S    
C11   C13   A    
S4    O20   S    
C23   O6    A    
C30   C31   S    
C29   O7    A    
C3    H2    S    
S2    O14   S    
S8    O30   D    
C31   S10   S    
C31   H5    S    
O5    Zn1   S    
C32   S11   S    
O11   H7    S    
C9    F4    S    
S12   O43   D    
C30   S4    S    
N3    Zn2   S    
O14   H8    S    
C20   C21   A    
C33   F9    S    
S2    O13   D    
O29   H13   S    
C27   C28   A    
S11   O39   D    
C25   N6    A    
O6    Zn2   S    
O44   H18   S    
