data_mof_unit_48480.cif
_audit_creation_date              2012-12-10T17:51:23-0500
_audit_creation_method            fapswitch 2.2
_symmetry_space_group_name_H-M    P1
_symmetry_Int_Tables_number       1
_space_group_crystal_system       triclinic
_cell_length_a                    9.999957
_cell_length_b                    10.67835
_cell_length_c                    16.961306
_cell_angle_alpha                 93.992814
_cell_angle_beta                  84.266618
_cell_angle_gamma                 91.970509
_cell_volume                      1797.05880605

loop_
_atom_site_label
_atom_site_type_symbol
_atom_type_description
_atom_site_fract_x
_atom_site_fract_y
_atom_site_fract_z
_atom_type_partial_charge
C1    C     C_R   0.500266 0.740215 0.507577 0.862582
C2    C     C_R   0.528439 0.553685 0.267016 -0.139104
C3    C     C_R   0.267575 0.902849 0.586025 -0.021478
C4    C     C_R   0.480181 0.499743 0.652026 0.865762
C5    C     C_R   0.146539 0.968370 0.588735 0.001986
C6    C     C_R   0.133299 0.055342 0.532631 -0.242721
C7    C     C_R   0.246807 0.094668 0.485371 0.032809
C8    C     C_R   0.374266 0.054982 0.499875 0.039008
C9    C     C_R   0.381340 0.941607 0.534892 0.028956
C10   C     C_R   0.501911 0.875200 0.515193 -0.088996
C11   C     C_R   0.619594 0.937076 0.484586 -0.178412
C12   C     C_R   0.399297 0.438449 0.787355 -0.017043
C13   C     C_R   0.617850 0.062812 0.472996 -0.189618
C14   C     C_R   0.495417 0.123653 0.482276 -0.115452
C15   C     C_R   0.856369 0.610061 0.634154 -0.014091
C16   C     C_R   0.498971 0.259451 0.491918 0.890065
C17   C     C_R   0.901851 0.593058 0.708856 -0.070419
C18   C     C_R   0.012506 0.517172 0.712598 -0.040406
C19   C     C_R   0.092809 0.482973 0.642718 -0.178855
C20   C     C_R   0.058571 0.518047 0.569422 0.105458
C21   C     C_R   0.922060 0.548231 0.565504 0.073030
C22   C     C_R   0.935086 0.445909 0.438785 -0.023220
C23   C     C_R   0.398267 0.610730 0.162747 -0.152114
C24   C     C_R   0.077969 0.462513 0.433984 -0.033802
C25   C     C_R   0.519766 0.514504 0.348911 0.877299
C26   C     C_R   0.464590 0.524703 0.736832 -0.061864
C27   C     C_R   0.500460 0.645326 0.766195 -0.182730
C28   C     C_R   0.473037 0.681158 0.845715 -0.115576
C29   C     C_R   0.413236 0.594794 0.897207 0.109501
C30   C     C_R   0.375118 0.473673 0.867987 -0.170600
C31   C     C_1   0.275963 0.809996 0.642943 0.186305
C32   C     C_1   0.036521 0.949630 0.649039 0.178852
C33   C     C_1   0.229426 0.138892 0.409079 0.183138
C34   C     C_R   0.417175 0.614472 0.242563 -0.019679
C35   C     C_1   0.872532 0.356955 0.384922 0.253154
C36   C     C_1   0.777282 0.718063 0.627339 0.230570
C37   C     C_1   0.838486 0.654859 0.781140 0.206011
C38   C     C_1   0.322900 0.684606 0.297691 0.212925
C39   C     C_1   0.045116 0.475462 0.787362 0.210295
C40   C     C_1   0.149078 0.434507 0.357192 0.276591
C41   C     C_1   0.771753 0.506742 0.229612 0.222494
C42   C     C_1   0.359054 0.314039 0.757853 0.142893
C43   C     C_1   0.369926 0.746758 0.015545 0.180986
C44   C     C_R   0.637206 0.523809 0.209907 -0.031294
C45   C     C_R   0.619003 0.524752 0.129723 -0.192758
C46   C     C_R   0.497458 0.562105 0.106364 0.154746
C47   C     C_2   0.412815 0.624093 0.982340 -0.029079
C48   C     C_2   0.475854 0.544026 0.022709 -0.257449
H1    H     H_    0.169253 0.415370 0.644958 0.191141
H2    H     H_    0.504210 0.774314 0.867518 0.155469
H3    H     H_    0.544802 0.713894 0.726970 0.154268
H4    H     H_    0.699679 0.496282 0.085120 0.150044
H5    H     H_    0.713175 0.888709 0.469664 0.178349
H6    H     H_    0.035556 0.091760 0.525539 0.148585
H7    H     H_    0.711923 0.111923 0.456371 0.175323
H8    H     H_    0.522132 0.461916 0.990889 0.160972
H9    H     H_    0.329374 0.406539 0.908409 0.157048
H10   H     H_    0.304371 0.642314 0.145488 0.151950
N1    N     N_R   0.857140 0.501200 0.500750 -0.138189
N2    N     N_1   0.069304 0.441873 0.847619 -0.198930
N3    N     N_1   0.200999 0.411788 0.293929 -0.177776
N4    N     N_1   0.881935 0.496487 0.242818 -0.198768
N5    N     N_1   0.326771 0.214517 0.734021 -0.192675
N6    N     N_1   0.335799 0.844790 0.041777 -0.187027
N7    N     N_R   0.142740 0.501280 0.500770 -0.133022
N8    N     N_1   0.277892 0.736829 0.689771 -0.188888
N9    N     N_1   0.949760 0.936370 0.698445 -0.182002
N10   N     N_1   0.216120 0.168731 0.346246 -0.188620
N11   N     N_1   0.822864 0.283680 0.342611 -0.206535
N12   N     N_1   0.717448 0.808172 0.624731 -0.223975
N13   N     N_1   0.789462 0.704484 0.839165 -0.193823
N14   N     N_1   0.247775 0.741109 0.341612 -0.184910
O1    O     O_R   0.385310 0.683220 0.500000 -0.606124
O2    O     O_R   0.614640 0.683250 0.500010 -0.622626
O3    O     O_R   0.371780 0.500010 0.615800 -0.622970
O4    O     O_R   0.601110 0.500030 0.615800 -0.617683
O5    O     O_R   0.385360 0.316750 0.499990 -0.622069
O6    O     O_R   0.614690 0.316780 0.500000 -0.613387
O7    O     O_R   0.398890 0.499970 0.384200 -0.611155
O8    O     O_R   0.628220 0.499990 0.384200 -0.612660
Zn1   Zn    Zn3+2 0.346870 0.499980 0.499990 0.972443
Zn2   Zn    Zn3+2 0.653130 0.500020 0.500010 0.969566

loop_
_geom_bond_atom_site_label_1
_geom_bond_atom_site_label_2
_ccdc_geom_bond_type
C31   N8    T    
C2    C44   A    
C23   H10   S    
C25   O8    A    
C19   C20   A    
N1    Zn2   S    
C7    C8    A    
C45   C46   A    
C22   C35   S    
C26   C27   A    
C29   C47   S    
C1    O2    A    
C28   C29   A    
C6    H6    S    
C21   N1    A    
C5    C6    A    
C30   H9    S    
C48   H8    S    
C18   C19   A    
C19   H1    S    
C4    O3    A    
C12   C42   S    
C28   H2    S    
C36   N12   T    
C8    C9    A    
C9    C10   A    
C16   O6    A    
C11   H5    S    
C5    C32   S    
C2    C34   A    
C23   C46   A    
C25   O7    A    
C13   C14   A    
C7    C33   S    
C41   N4    T    
O2    Zn2   S    
O1    Zn1   S    
C27   H3    S    
C43   N6    T    
C46   C48   S    
C38   N14   T    
C20   N7    A    
O8    Zn2   S    
O4    Zn2   S    
C22   N1    A    
O7    Zn1   S    
O3    Zn1   S    
C45   H4    S    
C40   N3    T    
C12   C26   A    
C18   C39   S    
C29   C30   A    
C3    C9    A    
O6    Zn2   S    
N7    Zn1   S    
C47   C48   D    
O5    Zn1   S    
C23   C34   A    
C17   C18   A    
C17   C37   S    
C3    C31   S    
C24   N7    A    
C32   N9    T    
C37   N13   T    
C41   C44   S    
C14   C16   S    
C15   C36   S    
C44   C45   A    
C15   C17   A    
C8    C14   A    
C12   C30   A    
C34   C38   S    
C1    C10   S    
C3    C5    A    
C4    C26   S    
C6    C7    A    
C1    O1    A    
C11   C13   A    
C39   N2    T    
C24   C40   S    
C2    C25   S    
C22   C24   A    
C4    O4    A    
C10   C11   A    
C15   C21   A    
C20   C21   A    
C35   N11   T    
C27   C28   A    
C16   O5    A    
C43   C47   S    
C42   N5    T    
C33   N10   T    
C13   H7    S    
