data_mof_unit_64313.cif
_audit_creation_date              2012-12-10T20:55:22-0500
_audit_creation_method            fapswitch 2.2
_symmetry_space_group_name_H-M    P1
_symmetry_Int_Tables_number       1
_space_group_crystal_system       triclinic
_cell_length_a                    26.127796
_cell_length_b                    27.720105
_cell_length_c                    18.994018
_cell_angle_alpha                 89.952446
_cell_angle_beta                  133.168325
_cell_angle_gamma                 90.029516
_cell_volume                      10033.4090189

loop_
_atom_site_label
_atom_site_type_symbol
_atom_type_description
_atom_site_fract_x
_atom_site_fract_y
_atom_site_fract_z
_atom_type_partial_charge
C1    C     C_R   0.999996 0.879219 0.499992 0.818835
C2    C     C_R   0.000004 0.120781 0.500008 0.818838
C3    C     C_R   0.499996 0.379219 0.499992 0.818746
C4    C     C_R   0.500004 0.620781 0.500008 0.818744
C5    C     C_R   0.178352 0.630972 0.499441 -0.006210
C6    C     C_R   0.821748 0.369002 0.500783 -0.006160
C7    C     C_R   0.853382 0.634169 0.566238 0.007117
C8    C     C_R   0.146576 0.365821 0.433666 0.007091
C9    C     C_R   0.676738 0.130850 0.496796 -0.005617
C10   C     C_R   0.323098 0.869176 0.502868 -0.005694
C11   C     C_R   0.350958 0.134074 0.561293 0.007012
C12   C     C_R   0.649126 0.865943 0.438868 0.007015
C13   C     C_R   0.165507 0.663661 0.432022 -0.050382
C14   C     C_R   0.834565 0.336287 0.568136 -0.050389
C15   C     C_R   0.855628 0.675338 0.611931 -0.048885
C16   C     C_R   0.144339 0.324639 0.388002 -0.048837
C17   C     C_R   0.664633 0.163983 0.430325 -0.050772
C18   C     C_R   0.335272 0.836081 0.569465 -0.050715
C19   C     C_R   0.354573 0.174530 0.609719 -0.049292
C20   C     C_R   0.645468 0.825500 0.390378 -0.049258
C21   C     C_R   0.110692 0.654257 0.332596 -0.108349
C22   C     C_R   0.889376 0.345649 0.667566 -0.108372
C23   C     C_R   0.911526 0.680926 0.712422 -0.112187
C24   C     C_R   0.088429 0.319025 0.287510 -0.112259
C25   C     C_R   0.609157 0.155640 0.330489 -0.108276
C26   C     C_R   0.390780 0.844489 0.669302 -0.108296
C27   C     C_R   0.410788 0.178606 0.710474 -0.110605
C28   C     C_R   0.589207 0.821437 0.289618 -0.110631
C29   C     C_R   0.067734 0.613367 0.300609 0.452097
C30   C     C_R   0.932362 0.386520 0.699620 0.452163
C31   C     C_R   0.966327 0.646934 0.766262 0.447309
C32   C     C_R   0.033602 0.353000 0.233638 0.447310
C33   C     C_R   0.564524 0.115599 0.297194 0.452096
C34   C     C_R   0.435380 0.884559 0.702480 0.452032
C35   C     C_R   0.464522 0.143782 0.761834 0.446084
C36   C     C_R   0.535461 0.856258 0.238313 0.446134
C37   C     C_R   0.080368 0.581098 0.368862 0.409940
C38   C     C_R   0.919761 0.418810 0.631430 0.409986
C39   C     C_R   0.965041 0.606798 0.718962 0.404950
C40   C     C_R   0.034873 0.393145 0.280911 0.404936
C41   C     C_R   0.576226 0.083069 0.364589 0.411766
C42   C     C_R   0.423605 0.917056 0.634959 0.411713
C43   C     C_R   0.462016 0.104492 0.711742 0.404848
C44   C     C_R   0.538012 0.895535 0.288472 0.404911
C45   C     C_R   0.260122 0.710642 0.464750 -0.232146
C46   C     C_R   0.739915 0.289327 0.535328 -0.232203
C47   C     C_R   0.748396 0.715847 0.552634 -0.233153
C48   C     C_R   0.251588 0.284141 0.447332 -0.233148
C49   C     C_R   0.760161 0.210651 0.464741 -0.232143
C50   C     C_R   0.239811 0.789369 0.535199 -0.232077
C51   C     C_R   0.248664 0.216075 0.553157 -0.233149
C52   C     C_R   0.751348 0.783937 0.446869 -0.233132
C53   C     C_R   0.303246 0.751200 0.499377 -0.057171
C54   C     C_R   0.696753 0.248796 0.500622 -0.057200
C55   C     C_R   0.696150 0.751132 0.499412 -0.061783
C56   C     C_R   0.303851 0.248869 0.500591 -0.061781
C57   C     C_R   0.803322 0.251181 0.499459 -0.056954
C58   C     C_R   0.196685 0.748814 0.500555 -0.056926
C59   C     C_R   0.196303 0.251291 0.499722 -0.062006
C60   C     C_R   0.803694 0.748709 0.500274 -0.061998
C61   C     C_R   0.292701 0.791161 0.534597 0.047899
C62   C     C_R   0.707262 0.208862 0.465324 0.047929
C63   C     C_R   0.697953 0.785869 0.446265 0.047968
C64   C     C_R   0.302065 0.214144 0.553773 0.047972
C65   C     C_R   0.792705 0.291167 0.534513 0.047793
C66   C     C_R   0.207334 0.708804 0.465570 0.047766
C67   C     C_R   0.197971 0.285904 0.446289 0.048102
C68   C     C_R   0.802012 0.714086 0.553677 0.048095
C69   C     C_1   0.999992 0.931013 0.499989 -0.131032
C70   C     C_1   0.000008 0.068987 0.500011 -0.131030
C71   C     C_1   0.499992 0.431013 0.499989 -0.131029
C72   C     C_1   0.500008 0.568987 0.500011 -0.131031
C73   C     C_1   0.999996 0.974520 0.499995 0.012866
C74   C     C_1   0.000004 0.025480 0.500005 0.012866
C75   C     C_1   0.499996 0.474520 0.499995 0.012858
C76   C     C_1   0.500004 0.525480 0.500005 0.012857
C77   C     C_R   0.000011 0.620708 0.500046 0.828848
C78   C     C_R   0.999989 0.379292 0.499954 0.828862
C79   C     C_R   0.500006 0.120708 0.500043 0.829801
C80   C     C_R   0.499993 0.879292 0.499957 0.829798
C81   C     C_R   0.859556 0.749535 0.499901 0.815412
C82   C     C_R   0.140443 0.250465 0.500097 0.815413
C83   C     C_R   0.140594 0.749503 0.500457 0.813492
C84   C     C_R   0.859409 0.250495 0.499548 0.813503
C85   C     C_R   0.359583 0.249567 0.499952 0.815472
C86   C     C_R   0.640418 0.750433 0.500050 0.815465
C87   C     C_R   0.640609 0.249502 0.500462 0.813258
C88   C     C_R   0.359391 0.750498 0.499536 0.813247
C89   C     C_R   0.870806 0.749934 0.241503 0.824123
C90   C     C_R   0.129194 0.250066 0.758497 0.824123
C91   C     C_R   0.129178 0.749923 0.758508 0.826243
C92   C     C_R   0.870822 0.250077 0.241492 0.826247
C93   C     C_R   0.370806 0.249933 0.241503 0.824295
C94   C     C_R   0.629194 0.750067 0.758497 0.824290
C95   C     C_R   0.629179 0.249923 0.758508 0.826113
C96   C     C_R   0.370821 0.750077 0.241491 0.826114
C97   C     C_1   0.180866 0.749847 0.862061 -0.114301
C98   C     C_1   0.819134 0.250153 0.137939 -0.114289
C99   C     C_1   0.819086 0.749884 0.137940 -0.120267
C100  C     C_1   0.180914 0.250116 0.862060 -0.120254
C101  C     C_1   0.680870 0.249847 0.862062 -0.114529
C102  C     C_1   0.319130 0.750153 0.137938 -0.114507
C103  C     C_1   0.319085 0.249881 0.137941 -0.119749
C104  C     C_1   0.680915 0.750119 0.862059 -0.119761
C105  C     C_1   0.224444 0.749922 0.949062 0.031463
C106  C     C_1   0.775556 0.250078 0.050938 0.031476
C107  C     C_1   0.775527 0.749943 0.050938 0.024746
C108  C     C_1   0.224473 0.250057 0.949062 0.024761
C109  C     C_1   0.724452 0.249922 0.949062 0.031295
C110  C     C_1   0.275548 0.750077 0.050938 0.031297
C111  C     C_1   0.275527 0.249939 0.050939 0.024967
C112  C     C_1   0.724473 0.750061 0.949061 0.024950
C113  C     C_1   0.000005 0.568943 0.500127 -0.135641
C114  C     C_1   0.999995 0.431056 0.499873 -0.135719
C115  C     C_1   0.500001 0.068943 0.500132 -0.137057
C116  C     C_1   0.499998 0.931057 0.499868 -0.136965
C117  C     C_1   0.999997 0.525458 0.500092 -0.014419
C118  C     C_1   0.000003 0.474542 0.499908 -0.014468
C119  C     C_1   0.499996 0.025457 0.500097 -0.018467
C120  C     C_1   0.500002 0.974542 0.499903 -0.018477
C121  C     C_R   0.136011 0.590208 0.467712 -0.330778
C122  C     C_R   0.864119 0.409744 0.532577 -0.330759
C123  C     C_R   0.907868 0.600519 0.619507 -0.302504
C124  C     C_R   0.092063 0.399452 0.380368 -0.302385
C125  C     C_R   0.632835 0.090871 0.463782 -0.330385
C126  C     C_R   0.366960 0.909188 0.535761 -0.330420
C127  C     C_R   0.404520 0.099705 0.612080 -0.304841
C128  C     C_R   0.595562 0.900313 0.388140 -0.304987
H1    H     H_    0.145981 0.565611 0.520298 0.155797
H2    H     H_    0.854174 0.434359 0.480040 0.155776
H3    H     H_    0.906332 0.569602 0.583137 0.152796
H4    H     H_    0.093591 0.430378 0.416717 0.152888
H5    H     H_    0.642130 0.065997 0.515661 0.154756
H6    H     H_    0.357609 0.934035 0.483786 0.154787
H7    H     H_    0.401994 0.069405 0.573591 0.151260
H8    H     H_    0.598124 0.930603 0.426680 0.151142
H9    H     H_    0.268454 0.679575 0.438819 0.172119
H10   H     H_    0.731611 0.320376 0.561317 0.172165
H11   H     H_    0.747506 0.689038 0.593450 0.178058
H12   H     H_    0.252464 0.310941 0.406489 0.178066
H13   H     H_    0.768373 0.179630 0.438587 0.172289
H14   H     H_    0.231571 0.820411 0.561294 0.172246
H15   H     H_    0.247701 0.189190 0.593806 0.177951
H16   H     H_    0.752321 0.810830 0.406242 0.177945
O1    O     O_3   1.000000 0.749990 0.500000 -0.489326
O2    O     O_3   0.000000 0.250010 0.500000 -0.489322
O3    O     O_3   0.500000 0.249990 0.500000 -0.489448
O4    O     O_3   0.500000 0.750010 0.500000 -0.489453
O5    O     O_R   0.058230 0.856270 0.555710 -0.632119
O6    O     O_R   0.941770 0.143730 0.444290 -0.632119
O7    O     O_R   0.941770 0.856270 0.444290 -0.631591
O8    O     O_R   0.058230 0.143730 0.555710 -0.631588
O9    O     O_R   0.558230 0.356270 0.555710 -0.632117
O10   O     O_R   0.441770 0.643730 0.444290 -0.632118
O11   O     O_R   0.441770 0.356270 0.444290 -0.631623
O12   O     O_R   0.558230 0.643730 0.555710 -0.631623
O13   O     O_R   0.997500 0.643710 0.555730 -0.637337
O14   O     O_R   0.002500 0.356290 0.444270 -0.637336
O15   O     O_R   0.002500 0.643710 0.444270 -0.626935
O16   O     O_R   0.997500 0.356290 0.555730 -0.626946
O17   O     O_R   0.497500 0.143710 0.555730 -0.636915
O18   O     O_R   0.502500 0.856290 0.444270 -0.636929
O19   O     O_R   0.502500 0.143710 0.444270 -0.626948
O20   O     O_R   0.497500 0.856290 0.555730 -0.626925
O21   O     O_R   0.856330 0.777850 0.444260 -0.642386
O22   O     O_R   0.143670 0.222150 0.555740 -0.642387
O23   O     O_R   0.143670 0.777850 0.555740 -0.640199
O24   O     O_R   0.856330 0.222150 0.444260 -0.640211
O25   O     O_R   0.356330 0.277850 0.444260 -0.642410
O26   O     O_R   0.643670 0.722150 0.555740 -0.642408
O27   O     O_R   0.643670 0.277850 0.555740 -0.640076
O28   O     O_R   0.356330 0.722150 0.444260 -0.640064
O29   O     O_R   0.087950 0.722120 0.444280 -0.642494
O30   O     O_R   0.912050 0.277880 0.555720 -0.642501
O31   O     O_R   0.912050 0.722120 0.555720 -0.644633
O32   O     O_R   0.087950 0.277880 0.444280 -0.644642
O33   O     O_R   0.587950 0.222120 0.444280 -0.642876
O34   O     O_R   0.412050 0.777880 0.555720 -0.642873
O35   O     O_R   0.412050 0.222120 0.555720 -0.644575
O36   O     O_R   0.587950 0.777880 0.444280 -0.644587
O37   O     O_R   0.863370 0.777840 0.287440 -0.630048
O38   O     O_R   0.136630 0.222160 0.712560 -0.630046
O39   O     O_R   0.136630 0.777840 0.712560 -0.628376
O40   O     O_R   0.863370 0.222160 0.287440 -0.628380
O41   O     O_R   0.363370 0.277840 0.287440 -0.630220
O42   O     O_R   0.636630 0.722160 0.712560 -0.630220
O43   O     O_R   0.636630 0.277840 0.712560 -0.628398
O44   O     O_R   0.363370 0.722160 0.287440 -0.628403
O45   O     O_R   0.924090 0.722120 0.287440 -0.627253
O46   O     O_R   0.075910 0.277880 0.712560 -0.627257
O47   O     O_R   0.075910 0.722120 0.712560 -0.628518
O48   O     O_R   0.924090 0.277880 0.287440 -0.628516
O49   O     O_R   0.424090 0.222120 0.287440 -0.626755
O50   O     O_R   0.575910 0.777880 0.712560 -0.626756
O51   O     O_R   0.575910 0.222120 0.712560 -0.628267
O52   O     O_R   0.424090 0.777880 0.287440 -0.628244
Zn1   Zn    Zn3+2 0.996430 0.710180 0.579620 0.991096
Zn2   Zn    Zn3+2 0.003570 0.289820 0.420380 0.991089
Zn3   Zn    Zn3+2 0.003570 0.710180 0.420380 0.997718
Zn4   Zn    Zn3+2 0.996430 0.289820 0.579620 0.997707
Zn5   Zn    Zn3+2 0.496430 0.210180 0.579620 0.991635
Zn6   Zn    Zn3+2 0.503570 0.789820 0.420380 0.991638
Zn7   Zn    Zn3+2 0.503570 0.210180 0.420380 0.997884
Zn8   Zn    Zn3+2 0.496430 0.789820 0.579620 0.997888
Zn9   Zn    Zn3+2 0.916810 0.789800 0.420370 0.992736
Zn10  Zn    Zn3+2 0.083190 0.210200 0.579630 0.992739
Zn11  Zn    Zn3+2 0.083190 0.789800 0.579630 0.995188
Zn12  Zn    Zn3+2 0.916810 0.210200 0.420370 0.995186
Zn13  Zn    Zn3+2 0.416810 0.289800 0.420370 0.992697
Zn14  Zn    Zn3+2 0.583190 0.710200 0.579630 0.992691
Zn15  Zn    Zn3+2 0.583190 0.289800 0.579630 0.995109
Zn16  Zn    Zn3+2 0.416810 0.710200 0.420370 0.995108
O53   O     O_3   0.037556 0.541310 0.337601 -0.782729
H17   H     H_    0.053106 0.522852 0.394255 0.328410
O54   O     O_3   0.962603 0.458577 0.662756 -0.782648
H18   H     H_    0.947084 0.477046 0.606140 0.328405
O55   O     O_3   0.020241 0.574588 0.770809 -0.751626
H19   H     H_    0.013200 0.550883 0.725516 0.365704
O56   O     O_3   0.979644 0.425334 0.229033 -0.751695
H20   H     H_    0.986673 0.449045 0.274309 0.365776
O57   O     O_3   0.531548 0.044370 0.332246 -0.776264
H21   H     H_    0.546192 0.026071 0.388682 0.327484
O58   O     O_3   0.468251 0.955783 0.667188 -0.776481
H22   H     H_    0.453559 0.974050 0.610679 0.327483
O59   O     O_3   0.516481 0.071741 0.761044 -0.748779
H23   H     H_    0.508853 0.049182 0.713848 0.363596
O60   O     O_3   0.483537 0.928280 0.239231 -0.748628
H24   H     H_    0.491209 0.950832 0.286475 0.363302
C129  C     C_1   0.234584 0.638805 0.601889 0.178767
N1    N     N_1   0.279656 0.645123 0.683912 -0.185879
C130  C     C_1   0.765517 0.361216 0.398335 0.178802
N2    N     N_1   0.720448 0.354935 0.316313 -0.185912
C131  C     C_1   0.796557 0.626611 0.463801 0.183016
N3    N     N_1   0.751066 0.620595 0.381767 -0.194195
C132  C     C_1   0.203416 0.373407 0.536103 0.182989
N4    N     N_1   0.248921 0.379445 0.618139 -0.194178
C133  C     C_1   0.733490 0.137649 0.599586 0.178773
N5    N     N_1   0.778965 0.143179 0.681891 -0.185661
C134  C     C_1   0.266318 0.862302 0.400068 0.178695
N6    N     N_1   0.220817 0.856710 0.317755 -0.185566
C135  C     C_1   0.293694 0.128088 0.458490 0.182285
N7    N     N_1   0.247827 0.123401 0.376167 -0.192733
C136  C     C_1   0.706439 0.871913 0.541678 0.182213
N8    N     N_1   0.752350 0.876588 0.624007 -0.192655
C137  C     C_1   0.096721 0.687433 0.262320 0.306632
N9    N     N_1   0.085815 0.714058 0.206379 -0.160304
C138  C     C_1   0.903314 0.312451 0.737779 0.306631
N10   N     N_1   0.914195 0.285811 0.793673 -0.160328
C139  C     C_1   0.914432 0.722651 0.760752 0.297274
N11   N     N_1   0.916606 0.756075 0.799200 -0.171195
C140  C     C_1   0.085538 0.277292 0.239210 0.297255
N12   N     N_1   0.083376 0.243860 0.200785 -0.171198
C141  C     C_1   0.596085 0.189176 0.261183 0.305922
N13   N     N_1   0.585897 0.216067 0.205981 -0.160600
C142  C     C_1   0.403928 0.810988 0.738734 0.305874
N14   N     N_1   0.414178 0.784124 0.794036 -0.160575
C143  C     C_1   0.415264 0.219714 0.761573 0.297465
N15   N     N_1   0.418775 0.252669 0.802266 -0.171315
C144  C     C_1   0.584694 0.780345 0.238461 0.297447
N16   N     N_1   0.581155 0.747403 0.197722 -0.171320
O61   O     O_3   0.013225 0.606588 0.202275 -0.740596
H25   H     H_    0.986535 0.577135 0.189502 0.391734
O62   O     O_3   0.986863 0.393260 0.797954 -0.740668
H26   H     H_    0.013576 0.422703 0.810779 0.391773
O63   O     O_3   0.021020 0.654718 0.864383 -0.741931
H27   H     H_    0.055896 0.628383 0.893362 0.388147
O64   O     O_3   0.978898 0.345192 0.135516 -0.741903
H28   H     H_    0.944008 0.371520 0.106515 0.388143
O65   O     O_3   0.509206 0.110020 0.198569 -0.740376
H29   H     H_    0.481515 0.080965 0.184802 0.391631
O66   O     O_3   0.490744 0.890198 0.801117 -0.740219
H30   H     H_    0.518421 0.919260 0.814799 0.391568
O67   O     O_3   0.519475 0.149998 0.860342 -0.741592
H31   H     H_    0.553277 0.123098 0.887320 0.388091
O68   O     O_3   0.480452 0.850049 0.139794 -0.741568
H32   H     H_    0.446639 0.876942 0.112853 0.388075

loop_
_geom_bond_atom_site_label_1
_geom_bond_atom_site_label_2
_ccdc_geom_bond_type
C2    O6    A    
C4    O10   A    
C105  C110  S    
C7    C131  S    
O61   H25   S    
C88   O28   A    
C79   C115  S    
C81   O21   A    
C31   O63   S    
O1    Zn11  S    
O39   Zn11  S    
C73   C74   S    
C96   O44   A    
O37   Zn9   S    
C134  N6    T    
C34   C42   A    
C59   C82   S    
C4    C72   S    
C38   O54   S    
C72   C76   T    
C93   C103  S    
O1    Zn9   S    
O46   Zn4   S    
C140  N12   T    
O16   Zn4   S    
O53   H17   S    
C58   C83   S    
C11   C19   A    
C139  N11   T    
C52   H16   S    
O18   Zn6   S    
C81   O31   A    
O4    Zn16  S    
O17   Zn5   S    
C127  H7    S    
C135  N7    T    
O34   Zn8   S    
C26   C142  S    
C128  H8    S    
C82   O22   A    
C54   C87   S    
O19   Zn7   S    
C77   C113  S    
O13   Zn1   S    
O29   Zn3   S    
C96   C102  S    
C101  C109  T    
C136  N8    T    
C5    C121  A    
O3    Zn15  S    
C3    O9    A    
C133  N5    T    
C49   C57   A    
C124  H4    S    
C32   O64   S    
C103  C111  T    
C30   O62   S    
C107  C112  S    
C90   C100  S    
C138  N10   T    
O31   Zn1   S    
O10   Zn16  S    
C52   C60   A    
C59   C67   A    
C53   C61   A    
C26   C34   A    
C80   O20   A    
O68   H32   S    
O47   Zn1   S    
O24   Zn12  S    
C55   C63   A    
C70   C74   T    
C95   C101  S    
C29   O61   S    
C132  N4    T    
O33   Zn7   S    
C69   C73   T    
O48   Zn2   S    
C89   C99   S    
C35   C43   A    
O63   H27   S    
C121  H1    S    
C36   O68   S    
C5    C13   A    
O2    Zn10  S    
C144  N16   T    
C46   H10   S    
C97   C105  T    
C28   C144  S    
C8    C16   A    
C15   C23   A    
O66   H30   S    
C45   C53   A    
C10   C134  S    
C16   C24   A    
C20   C63   S    
C86   O26   A    
O65   H29   S    
C1    C69   S    
C6    C130  S    
C12   C20   A    
C78   C114  S    
O21   Zn9   S    
C79   O17   A    
C84   O30   A    
C94   C104  S    
C126  H6    S    
C37   O53   S    
C44   O60   S    
C58   C66   A    
O67   H31   S    
C51   C59   A    
C33   O65   S    
C13   C66   S    
C2    O8    A    
O50   Zn8   S    
C27   C143  S    
O40   Zn12  S    
C100  C108  T    
C78   O14   A    
C48   H12   S    
C39   C123  A    
O12   Zn14  S    
C50   C58   A    
C90   O38   A    
O11   Zn13  S    
C29   C37   A    
C46   C65   A    
O2    Zn12  S    
C92   O40   A    
C7    C123  A    
O56   H20   S    
O9    Zn15  S    
C25   C141  S    
C8    C124  A    
C21   C137  S    
C7    C15   A    
C20   C28   A    
C27   C35   A    
O4    Zn6   S    
C21   C29   A    
O3    Zn7   S    
O1    Zn3   S    
C50   H14   S    
C9    C125  A    
O58   H22   S    
C116  C120  T    
C49   H13   S    
C104  C112  T    
O38   Zn10  S    
C48   C67   A    
O23   Zn11  S    
O2    Zn2   S    
C11   C127  A    
C75   C76   S    
C24   C32   A    
O1    Zn1   S    
C129  N1    T    
C84   O24   A    
C22   C30   A    
C41   C125  A    
C17   C62   S    
C87   O33   A    
O57   H21   S    
O27   Zn15  S    
C60   C81   S    
O60   H24   S    
O26   Zn14  S    
C42   O58   S    
O3    Zn5   S    
C19   C64   S    
C85   O35   A    
C12   C136  S    
C87   O27   A    
C18   C26   A    
C46   C54   A    
C25   C33   A    
C56   C64   A    
O59   H23   S    
C51   C64   A    
C57   C84   S    
C13   C21   A    
C16   C67   S    
C38   C122  A    
C91   C97   S    
C40   C124  A    
C1    O5    A    
C80   O18   A    
C114  C118  T    
C77   O15   A    
C37   C121  A    
C10   C126  A    
C9    C17   A    
C4    O12   A    
O43   Zn15  S    
C95   O43   A    
C115  C119  T    
C83   O29   A    
C40   O56   S    
C9    C133  S    
C11   C135  S    
C5    C129  S    
C34   O66   S    
C36   C44   A    
O20   Zn8   S    
C3    O11   A    
C6    C122  A    
C43   C127  A    
C142  N14   T    
C47   C68   A    
C143  N15   T    
C130  N2    T    
C19   C27   A    
O4    Zn8   S    
C47   C55   A    
C45   H9    S    
C90   O46   A    
C113  C117  T    
C125  H5    S    
C48   C56   A    
C22   C138  S    
C44   C128  A    
C95   O51   A    
C49   C62   A    
O7    Zn9   S    
C123  H3    S    
C91   O39   A    
C94   O50   A    
O30   Zn4   S    
C50   C61   A    
C39   O55   S    
C24   C140  S    
C93   O49   A    
C89   O37   A    
C94   O42   A    
C79   O19   A    
O28   Zn16  S    
C52   C63   A    
C98   C106  T    
C119  C120  S    
C18   C61   S    
C88   O34   A    
C3    C71   S    
C12   C128  A    
C51   H15   S    
C82   O32   A    
C99   C107  T    
O36   Zn6   S    
O49   Zn7   S    
C108  C111  S    
O8    Zn10  S    
O64   H28   S    
C33   C41   A    
O5    Zn11  S    
C14   C22   A    
C55   C86   S    
O42   Zn14  S    
C86   O36   A    
O55   H19   S    
C17   C25   A    
C6    C14   A    
C23   C139  S    
O3    Zn13  S    
C117  C118  S    
O51   Zn5   S    
C71   C75   T    
O44   Zn16  S    
O45   Zn3   S    
C56   C85   S    
C141  N13   T    
C2    C70   S    
C10   C18   A    
O62   H26   S    
C15   C68   S    
C78   O16   A    
O15   Zn3   S    
O14   Zn2   S    
C14   C65   S    
C31   C39   A    
C1    O7    A    
C53   C88   S    
O41   Zn13  S    
C32   C40   A    
O54   H18   S    
C91   O47   A    
O4    Zn14  S    
C83   O23   A    
C85   O25   A    
C102  C110  T    
C60   C68   A    
C42   C126  A    
O6    Zn12  S    
C8    C132  S    
C92   O48   A    
C77   O13   A    
C96   O52   A    
O32   Zn2   S    
C28   C36   A    
C92   C98   S    
C80   C116  S    
C35   O67   S    
C47   H11   S    
C45   C66   A    
O35   Zn5   S    
O2    Zn4   S    
C89   O45   A    
O25   Zn13  S    
C54   C62   A    
O22   Zn10  S    
C30   C38   A    
C137  N9    T    
O52   Zn6   S    
C122  H2    S    
C41   O57   S    
C43   O59   S    
C131  N3    T    
C23   C31   A    
C57   C65   A    
C106  C109  S    
C93   O41   A    
