data_mof_unit_56887.cif
_audit_creation_date              2012-12-10T17:33:48-0500
_audit_creation_method            fapswitch 2.2
_symmetry_space_group_name_H-M    P1
_symmetry_Int_Tables_number       1
_space_group_crystal_system       triclinic
_cell_length_a                    10.623864
_cell_length_b                    12.051961
_cell_length_c                    12.813275
_cell_angle_alpha                 94.565414
_cell_angle_beta                  91.336729
_cell_angle_gamma                 86.679855
_cell_volume                      1632.35193572

loop_
_atom_site_label
_atom_site_type_symbol
_atom_type_description
_atom_site_fract_x
_atom_site_fract_y
_atom_site_fract_z
_atom_type_partial_charge
C1    C     C_R   0.499278 0.522999 0.700310 0.874333
C2    C     C_R   0.548374 0.458294 0.974048 0.130997
C3    C     C_R   0.470689 0.543310 0.025414 0.189530
C4    C     C_R   0.742089 0.500625 0.500181 0.819908
C5    C     C_R   0.453359 0.542489 0.131141 -0.307430
C6    C     C_R   0.595902 0.374909 0.137458 0.139069
C7    C     C_R   0.609109 0.374551 0.029029 -0.211680
C8    C     C_R   0.382528 0.948571 0.399782 -0.328156
C9    C     C_R   0.393781 0.834311 0.410153 0.015327
C10   C     C_R   0.550649 0.859985 0.543275 -0.043852
C11   C     C_R   0.542535 0.976523 0.535995 0.052223
C12   C     C_3   0.121159 0.500573 0.500128 0.184426
C13   C     C_R   0.457280 0.021862 0.463042 0.098303
C14   C     C_R   0.449066 0.139030 0.455350 0.293208
C15   C     C_R   0.606000 0.163642 0.589861 -0.021238
C16   C     C_R   0.505065 0.476765 0.299521 0.867527
C17   C     C_R   0.617142 0.048165 0.599405 -0.342086
C18   C     C_R   0.257795 0.499866 0.499996 0.826161
C19   C     C_3   0.933427 0.455302 0.602196 -0.408448
C20   C     C_3   0.077958 0.454871 0.602215 -0.395116
C21   C     C_3   0.929554 0.427913 0.403997 -0.402375
C22   C     C_3   0.920189 0.622166 0.494246 -0.394408
C23   C     C_3   0.074070 0.426826 0.404327 -0.409345
C24   C     C_3   0.878440 0.501609 0.500162 0.188947
C25   C     C_3   0.667669 0.288260 0.200312 -0.353005
C26   C     C_3   0.766343 0.211717 0.140988 -0.938367
C27   C     C_3   0.357449 0.184738 0.375480 -0.910522
C28   C     C_3   0.063112 0.621584 0.493923 -0.388582
C29   C     C_R   0.516139 0.460891 0.187464 -0.122607
C30   C     C_R   0.498641 0.538249 0.811957 -0.043297
C31   C     C_R   0.411378 0.627992 0.970168 -0.209606
C32   C     C_R   0.425709 0.625609 0.862813 -0.216232
C33   C     C_R   0.562661 0.457014 0.867424 -0.271273
H1    H     H_    0.904512 0.368814 0.608637 0.176504
H2    H     H_    0.896831 0.507465 0.671763 0.154027
H3    H     H_    0.663732 0.218291 0.639085 0.133095
H4    H     H_    0.315105 0.977549 0.342156 0.156971
H5    H     H_    0.683571 0.015186 0.656099 0.149016
H6    H     H_    0.336319 0.778744 0.361646 0.123893
H7    H     H_    0.615810 0.823079 0.598669 0.120397
H8    H     H_    0.111961 0.507124 0.671604 0.156515
H9    H     H_    0.118181 0.368273 0.608791 0.184201
H10   H     H_    0.900010 0.340954 0.405734 0.180253
H11   H     H_    0.113469 0.339551 0.407215 0.178987
H12   H     H_    0.092919 0.656634 0.421093 0.171835
H13   H     H_    0.881368 0.657660 0.421733 0.180610
H14   H     H_    0.884365 0.676998 0.562526 0.171630
H15   H     H_    0.096098 0.676651 0.561841 0.177583
H16   H     H_    0.720509 0.157082 0.079216 0.261288
H17   H     H_    0.836849 0.261597 0.105996 0.262768
H18   H     H_    0.816694 0.157439 0.196383 0.256406
H19   H     H_    0.718146 0.332352 0.266663 0.206868
H20   H     H_    0.598869 0.234669 0.232600 0.230378
H21   H     H_    0.382996 0.148484 0.295857 0.212109
H22   H     H_    0.260275 0.163455 0.393072 0.209868
H23   H     H_    0.890831 0.460786 0.330343 0.156634
H24   H     H_    0.354226 0.274303 0.372284 0.297683
H25   H     H_    0.105912 0.458243 0.330491 0.155522
H26   H     H_    0.392349 0.607407 0.170457 0.154046
H27   H     H_    0.352324 0.694115 0.009451 0.134182
H28   H     H_    0.667233 0.310527 0.986317 0.152722
H29   H     H_    0.375787 0.688430 0.819197 0.153421
H30   H     H_    0.620729 0.390823 0.826837 0.141056
N1    N     N_R   0.523380 0.207800 0.519350 -0.100449
N2    N     N_R   0.476620 0.792180 0.480650 -0.098964
O1    O     O_R   0.506240 0.421700 0.658830 -0.616184
O2    O     O_R   0.491240 0.609310 0.646410 -0.622347
O3    O     O_R   0.692710 0.406190 0.506230 -0.633790
O4    O     O_R   0.677700 0.593810 0.493810 -0.626178
O5    O     O_R   0.508760 0.390690 0.353590 -0.644350
O6    O     O_R   0.493760 0.578300 0.341170 -0.612074
O7    O     O_R   0.322300 0.406190 0.506190 -0.628074
O8    O     O_R   0.307290 0.593810 0.493770 -0.632250
Zn1   Zn    Zn3+2 0.510020 0.374730 0.508290 0.921582
Zn2   Zn    Zn3+2 0.489980 0.625270 0.491710 0.930273

loop_
_geom_bond_atom_site_label_1
_geom_bond_atom_site_label_2
_ccdc_geom_bond_type
C23   H25   S    
O6    Zn2   S    
C8    C13   A    
C2    C7    A    
C20   H8    S    
C27   H21   S    
C12   C23   S    
C12   C28   S    
C25   H20   S    
C26   H17   S    
C4    C24   S    
C27   H22   S    
C6    C25   S    
O3    Zn1   S    
O1    Zn1   S    
C9    H6    S    
C10   H7    S    
C7    H28   S    
C21   H10   S    
C11   C17   A    
C19   C20   S    
C8    C9    A    
O5    Zn1   S    
C15   N1    A    
C14   C27   S    
C22   H14   S    
C22   C28   S    
C13   C14   A    
O8    Zn2   S    
C16   O6    A    
C4    O4    A    
C5    C29   A    
C18   O7    A    
C28   H12   S    
C5    H26   S    
C16   O5    A    
O7    Zn1   S    
C27   H24   S    
C26   H16   S    
C4    O3    A    
C25   C26   S    
C23   H11   S    
C31   H27   S    
C31   C32   A    
C33   H30   S    
C14   N1    A    
C12   C20   S    
C1    O1    A    
C3    C31   A    
C2    C33   A    
C22   H13   S    
C18   O8    A    
C21   C23   S    
C22   C24   S    
O2    Zn2   S    
C8    H4    S    
C15   H3    S    
C10   N2    A    
C15   C17   A    
C28   H15   S    
C30   C33   A    
C19   C24   S    
C3    C5    A    
C19   H1    S    
C21   H23   S    
C20   H9    S    
C6    C7    A    
N2    Zn2   S    
C2    C3    A    
C16   C29   S    
C25   H19   S    
C32   H29   S    
C19   H2    S    
C26   H18   S    
C30   C32   A    
C11   C13   A    
C1    C30   S    
C1    O2    A    
O4    Zn2   S    
C17   H5    S    
C9    N2    A    
C10   C11   A    
C6    C29   A    
C21   C24   S    
C12   C18   S    
N1    Zn1   S    
