data_mof_unit_57390.cif
_audit_creation_date              2012-12-11T20:21:45-0500
_audit_creation_method            fapswitch 2.2
_symmetry_space_group_name_H-M    P1
_symmetry_Int_Tables_number       1
_space_group_crystal_system       triclinic
_cell_length_a                    8.23531
_cell_length_b                    17.436031
_cell_length_c                    26.951661
_cell_angle_alpha                 99.759741
_cell_angle_beta                  93.06993
_cell_angle_gamma                 81.425641
_cell_volume                      3769.79252211

loop_
_atom_site_label
_atom_site_type_symbol
_atom_type_description
_atom_site_fract_x
_atom_site_fract_y
_atom_site_fract_z
_atom_type_partial_charge
Ba1   Ba    Ba6+2 0.860160 0.462360 0.521850 1.698693
Ba2   Ba    Ba6+2 0.329680 0.537570 0.478140 1.678616
C1    C     C_3   0.621147 0.234891 0.702108 -0.229667
C2    C     C_R   0.825888 0.544994 0.172277 0.575010
C3    C     C_2   0.788337 0.582401 0.283525 -0.109798
C4    C     C_3   0.167253 0.239144 0.645703 0.901067
C5    C     C_3   0.751457 0.589076 0.338569 -0.095577
C6    C     C_1   0.973680 0.479507 0.341657 0.024140
C7    C     C_2   0.987699 0.464958 0.291638 0.020768
C8    C     C_2   0.903483 0.525134 0.260481 0.219201
C9    C     C_R   0.029771 0.523887 0.107310 -0.096630
C10   C     C_R   0.147681 0.495011 0.141943 -0.036547
C11   C     C_R   0.303935 0.459835 0.124954 -0.045858
C12   C     C_3   0.666212 0.258780 0.653356 0.742755
C13   C     C_R   0.868658 0.554069 0.123175 -0.033410
C14   C     C_2   0.848570 0.526385 0.363862 -0.259580
C15   C     C_2   0.351476 0.487122 0.643007 -0.270619
C16   C     C_3   0.139097 0.182348 0.680431 -0.148277
C17   C     C_R   0.256749 0.468244 0.986377 -0.048210
C18   C     C_R   0.019510 0.567445 0.975229 0.040004
C19   C     C_R   0.158084 0.515365 0.955278 0.052982
C20   C     C_R   0.380058 0.410011 0.963690 -0.093339
C21   C     C_R   0.403299 0.397224 0.911717 0.408136
C22   C     C_R   0.315391 0.449251 0.881041 -0.087182
C23   C     C_3   0.534264 0.666003 0.637318 0.634799
C24   C     C_R   0.198039 0.510458 0.903896 -0.131299
C25   C     C_R   0.120082 0.566932 0.875584 -0.029075
C26   C     C_R   0.171124 0.565811 0.826160 0.659974
C27   C     C_R   0.339271 0.441867 0.828417 0.617791
C28   C     C_3   0.221117 0.300114 0.413858 0.313092
C29   C     C_2   0.448118 0.459042 0.727480 -0.146489
C30   C     C_3   0.458292 0.431095 0.671548 -0.135510
C31   C     C_1   0.206628 0.520301 0.661038 0.032518
C32   C     C_2   0.169309 0.521557 0.709612 0.378898
C33   C     C_2   0.301187 0.493502 0.746843 0.221165
C34   C     C_3   0.625154 0.680937 0.688141 -0.310688
C35   C     C_R   0.225432 0.479394 0.038794 0.034711
C36   C     C_R   0.073867 0.522194 0.056655 0.054774
C37   C     C_R   0.966508 0.562960 0.024095 0.001172
C38   C     C_R   0.340128 0.449547 0.074050 -0.119429
C39   C     C_R   0.756805 0.590789 0.089028 0.061594
C40   C     C_3   0.257742 0.211295 0.398978 -0.379191
C41   C     C_R   0.940238 0.622352 0.945642 -0.100756
C42   C     C_R   0.993852 0.623894 0.897518 -0.046097
C43   C     C_R   0.808822 0.596502 0.041045 -0.088769
C44   C     C_2   0.459651 0.281134 0.518627 -0.255432
C45   C     C_3   0.009016 0.717852 0.344816 0.339842
C46   C     C_3   0.385758 0.229907 0.548466 -0.029065
C47   C     C_2   0.433487 0.143454 0.530721 -0.065980
C48   C     C_2   0.555100 0.116609 0.497619 0.018108
C49   C     C_2   0.633171 0.174890 0.475812 -0.137419
C50   C     C_1   0.577381 0.250959 0.486433 0.060754
C51   C     C_R   0.781950 0.860994 0.467233 -0.071469
C52   C     C_3   0.986459 0.705380 0.588944 0.406030
C53   C     C_R   0.842499 0.780723 0.461750 0.057412
C54   C     C_R   0.614682 0.758312 0.508013 0.039268
C55   C     C_R   0.554888 0.838386 0.514337 -0.109163
C56   C     C_3   0.029610 0.741704 0.293971 -0.355332
C57   C     C_R   0.636829 0.890404 0.493781 0.022253
C58   C     C_2   0.612409 0.031054 0.481794 -0.072155
C59   C     C_2   0.579386 0.975532 0.507492 -0.060413
C60   C     C_R   0.754625 0.729306 0.480152 -0.243248
C61   C     C_3   0.989882 0.793579 0.606094 0.567493
C62   C     C_3   0.688549 0.361160 0.367494 0.304287
C63   C     C_3   0.647075 0.347318 0.311315 -0.359185
C64   C     C_3   0.516439 0.815252 0.293646 -0.416100
C65   C     C_3   0.047210 0.382221 0.266263 -0.315625
C66   C     C_3   0.584165 0.628296 0.102978 -0.327535
C67   C     C_3   0.474574 0.748230 0.367165 0.410784
C68   C     C_3   0.430832 0.822605 0.343471 -0.192546
C69   C     C_R   0.107834 0.502798 0.193015 0.586699
H1    H     H_    0.352989 0.195984 0.369891 0.115645
H2    H     H_    0.719858 0.292039 0.292851 0.106221
H3    H     H_    0.675433 0.397045 0.294051 0.086827
H4    H     H_    0.514179 0.342778 0.305018 0.141413
H5    H     H_    0.548965 0.278154 0.633615 -0.143715
H6    H     H_    0.547606 0.185537 0.693600 0.084128
H7    H     H_    0.589425 0.607158 0.618219 0.055678
H8    H     H_    0.570316 0.737323 0.710672 0.117234
H9    H     H_    0.618345 0.632320 0.709457 0.092553
H10   H     H_    0.755809 0.684497 0.682258 0.126143
H11   H     H_    0.546895 0.285286 0.725231 0.101331
H12   H     H_    0.302730 0.183803 0.432165 0.076362
H13   H     H_    0.215771 0.192379 0.715474 0.055520
H14   H     H_    0.055260 0.654114 0.342504 0.059438
H15   H     H_    0.876198 0.729740 0.352819 -0.065734
H16   H     H_    0.159541 0.727000 0.282738 0.160804
H17   H     H_    0.953050 0.709944 0.264672 0.061504
H18   H     H_    0.990537 0.805899 0.295955 0.103226
H19   H     H_    0.609754 0.739339 0.373874 -0.120071
H20   H     H_    0.416243 0.757948 0.404340 0.061556
H21   H     H_    0.469522 0.873188 0.370003 0.061902
H22   H     H_    0.295921 0.834911 0.337053 0.138816
H23   H     H_    0.144221 0.187382 0.383725 0.131513
H24   H     H_    0.397599 0.437722 0.150811 0.139446
H25   H     H_    0.552998 0.442786 0.751534 0.143174
H26   H     H_    0.452370 0.369370 0.985136 0.100838
H27   H     H_    0.461963 0.421315 0.063431 0.078281
H28   H     H_    0.729850 0.629625 0.264392 0.108639
H29   H     H_    0.841150 0.667162 0.959930 0.068488
H30   H     H_    0.301270 0.228145 0.638897 -0.319338
H31   H     H_    0.931776 0.668354 0.876751 0.121915
H32   H     H_    0.720678 0.624218 0.016087 0.071415
H33   H     H_    0.809667 0.519982 0.400610 0.067706
H34   H     H_    0.861790 0.694603 0.575592 -0.085628
H35   H     H_    0.396513 0.500689 0.608795 0.092094
H36   H     H_    0.507888 0.992059 0.541150 0.078824
H37   H     H_    0.733936 0.154160 0.450260 0.082306
H38   H     H_    0.854963 0.900266 0.454611 0.059975
H39   H     H_    0.685917 0.014037 0.448438 0.064211
H40   H     H_    0.367925 0.104423 0.546573 0.057445
H41   H     H_    0.008289 0.190980 0.690612 0.133768
H42   H     H_    0.448862 0.860663 0.537399 0.078029
H43   H     H_    0.425947 0.344257 0.528534 0.070800
H44   H     H_    0.803683 0.667644 0.477189 0.051095
H45   H     H_    0.071949 0.684177 0.557669 0.048480
H46   H     H_    0.173598 0.120788 0.661399 0.039972
H47   H     H_    0.335868 0.323798 0.426489 0.000159
H48   H     H_    0.133823 0.314074 0.445025 0.094715
H49   H     H_    0.754445 0.207578 0.589300 0.313262
H50   H     H_    0.764953 0.826667 0.627479 0.323366
H51   H     H_    0.975612 0.889141 0.577782 0.316301
H52   H     H_    0.321900 0.718049 0.661693 0.306272
H53   H     H_    0.476847 0.766328 0.265895 0.157815
H54   H     H_    0.483944 0.870724 0.278048 0.121411
H55   H     H_    0.651849 0.804325 0.299545 0.118373
H56   H     H_    0.114967 0.801752 0.621856 0.057861
H57   H     H_    0.179072 0.350615 0.653981 0.264093
H58   H     H_    0.988203 0.339228 0.282450 0.085148
H59   H     H_    0.016410 0.374049 0.225310 0.106362
H60   H     H_    0.182414 0.368977 0.271786 0.151079
H61   H     H_    0.457842 0.298991 0.868688 0.334186
H62   H     H_    0.520367 0.659310 0.073114 0.083854
H63   H     H_    0.509527 0.582707 0.108563 0.161139
H64   H     H_    0.587573 0.672421 0.137819 0.134003
H65   H     H_    0.956662 0.585822 0.709415 0.318811
H66   H     H_    0.820569 0.366213 0.373220 -0.004886
H67   H     H_    0.613171 0.416850 0.384223 0.068489
H68   H     H_    0.733507 0.216052 0.724097 0.111421
N1    N     N_R   0.946157 0.523889 0.207816 -0.426623
N2    N     N_R   0.271367 0.500998 0.801253 -0.417120
O1    O     O_2   0.906370 0.542040 0.619810 -0.477718
O2    O     O_2   0.177161 0.781505 0.478002 -0.461560
O3    O     O_3   0.098502 0.761843 0.381984 -0.606673
O4    O     O_3   0.138370 0.541980 0.559630 -0.486481
O5    O     O_3   0.572820 0.404940 0.471170 -0.497786
O6    O     O_2   0.345130 0.693150 0.532000 -0.445314
O7    O     O_3   0.550669 0.726551 0.610172 -0.665145
O8    O     O_2   0.443431 0.529018 0.323269 -0.434809
O9    O     O_3   0.417164 0.683809 0.335786 -0.583220
O10   O     O_2   0.217732 0.491057 0.224271 -0.567703
O11   O     O_2   0.418138 0.382000 0.806693 -0.591398
O12   O     O_3   0.655746 0.296717 0.388068 -0.635666
O13   O     O_2   0.681475 0.553727 0.182926 -0.600579
O14   O     O_2   0.127963 0.623265 0.805775 -0.567367
O15   O     O_3   0.686580 0.398330 0.583860 -0.476658
O16   O     O_2   0.780488 0.467251 0.674503 -0.418126
O17   O     O_3   0.031696 0.667852 0.630534 -0.635797
O18   O     O_3   0.771512 0.316927 0.664842 -0.547003
O19   O     O_2   0.844570 0.306830 0.467970 -0.458426
O20   O     O_3   0.101900 0.357890 0.557750 -0.482822
O21   O     O_2   0.072886 0.218103 0.503479 -0.493937
O22   O     O_3   0.748293 0.192682 0.623028 -0.716286
O23   O     O_3   0.070917 0.224283 0.601100 -0.572378
O24   O     O_3   0.875858 0.823673 0.643987 -0.713709
O25   O     O_3   0.957076 0.834137 0.565272 -0.786644
O26   O     O_3   0.368109 0.664702 0.644881 -0.772555
O27   O     O_3   0.120883 0.316273 0.670356 -0.685687
O28   O     O_3   0.518198 0.335111 0.892676 -0.688572
O29   O     O_3   0.010787 0.542172 0.726174 -0.659549
O30   O     O_2   0.283330 0.457940 0.380160 -0.452853
O31   O     O_3   0.051340 0.457960 0.440360 -0.500956
O32   O     O_3   0.503130 0.601610 0.416130 -0.486176
O33   O     O_3   0.153745 0.331794 0.371859 -0.640641
O34   O     O_3   0.616890 0.595000 0.528820 -0.489236
O35   O     O_3   0.087820 0.642040 0.442240 -0.489590
P1    P     P_3+3 0.071770 0.565500 0.613330 1.029856
P2    P     P_3+3 0.664870 0.318630 0.453960 0.979994
P3    P     P_3+3 0.158290 0.256534 0.551882 0.960998
P4    P     P_3+3 0.117940 0.434440 0.386660 0.987771
P5    P     P_3+3 0.051720 0.742866 0.440863 0.970872
P6    P     P_3+3 0.672774 0.405944 0.648948 1.019276
P7    P     P_3+3 0.533144 0.694307 0.545031 0.971235
P8    P     P_3+3 0.528434 0.597728 0.351889 0.997172

loop_
_geom_bond_atom_site_label_1
_geom_bond_atom_site_label_2
_ccdc_geom_bond_type
C2    O13   D    
C19   C24   A    
H51   O25   S    
O33   P4    S    
Ba1   O15   S    
Ba1   O4    S    
C56   H16   S    
C52   C61   S    
C51   C57   A    
C62   H67   S    
C23   O26   S    
Ba2   O4    S    
C24   C25   A    
Ba2   P4    S    
C5    P8    S    
C11   H24   S    
C67   O9    S    
C45   H14   S    
C30   P6    S    
C66   H62   S    
C17   C19   A    
O17   P1    S    
C22   C24   A    
C32   C33   S    
C35   C38   A    
Ba2   O32   S    
C38   H27   S    
C36   C37   A    
C55   C57   A    
O1    P1    D    
C52   O17   S    
C28   H48   S    
O6    P7    D    
C29   H25   S    
C53   C60   A    
C44   C50   D    
C63   H2    S    
C54   C55   A    
O5    P2    S    
Ba1   Ba2   S    
C4    H30   S    
C12   O22   S    
C22   C27   A    
C11   C38   A    
Ba1   O1    S    
C43   H32   S    
H49   O22   S    
Ba2   O35   S    
O3    P5    S    
C9    C13   A    
C25   C42   A    
C14   H33   S    
C61   O25   S    
C69   O10   D    
C3    H28   S    
O32   P8    S    
C6    C7    D    
C52   H45   S    
O8    P8    D    
C16   H13   S    
C21   C22   A    
O20   P3    S    
C17   C35   A    
C7    C8    S    
C32   O29   S    
Ba2   O30   S    
C37   C43   A    
H52   O26   S    
O31   P4    S    
Ba1   O20   S    
C6    C14   D    
C20   H26   S    
Ba1   O5    S    
C65   H58   S    
C15   C31   D    
C3    C8    D    
C48   C49   S    
C39   C66   S    
C4    O27   S    
C62   H66   S    
C51   C53   A    
O35   P5    S    
C4    C16   S    
C44   C46   S    
C57   C59   S    
C44   H43   S    
C31   P1    S    
C49   C50   D    
C45   H15   S    
C17   C20   A    
C41   H29   S    
C13   C39   A    
C34   H9    S    
C3    C5    S    
C18   C37   A    
O15   P6    S    
C49   H37   S    
C55   H42   S    
C28   H47   S    
Ba2   O6    S    
C62   O12   S    
C63   H3    S    
C23   H7    S    
C58   C59   D    
C12   H5    S    
C9    C36   A    
C41   C42   A    
C7    C65   S    
C35   C36   A    
Ba2   O34   S    
C2    N1    Am   
Ba1   P2    S    
C6    P4    S    
C29   C30   S    
C21   O28   S    
C34   H10   S    
C27   N2    Am   
C68   H22   S    
C1    H11   S    
C40   H1    S    
C31   C32   D    
C53   P5    S    
C18   C19   A    
O23   P3    S    
C16   H46   S    
O19   P2    D    
O21   P3    D    
C1    C12   S    
C33   N2    S    
C46   C47   S    
C10   C69   A    
H65   O29   S    
C64   C68   S    
C8    N1    S    
C5    C14   S    
C64   H53   S    
C54   C60   A    
O30   P4    D    
C65   H59   S    
C1    H68   S    
H61   O28   S    
C67   H19   S    
C1    H6    S    
O2    P5    D    
C18   C41   A    
O34   P7    S    
C51   H38   S    
O12   P2    S    
Ba1   O34   S    
C42   H31   S    
C52   H34   S    
C40   H23   S    
C66   H64   S    
C65   H60   S    
C40   H12   S    
C16   H41   S    
C34   H8    S    
C56   H17   S    
O9    P8    S    
C9    C10   A    
C69   N1    Am   
C54   P7    S    
Ba2   O5    S    
H50   O24   S    
C4    O23   S    
Ba1   O31   S    
C68   H21   S    
C64   H54   S    
C47   H40   S    
C12   O18   S    
C48   C58   S    
C62   C63   S    
C2    C13   A    
C66   H63   S    
C60   H44   S    
C26   O14   D    
C15   H35   S    
C27   O11   D    
Ba1   O19   S    
O7    P7    S    
C45   O3    S    
C23   O7    S    
C29   C33   D    
O18   P6    S    
C67   C68   S    
C59   H36   S    
C56   H18   S    
C50   P2    S    
C58   H39   S    
C23   C34   S    
C64   H55   S    
C61   O24   S    
C10   C11   A    
C47   C48   D    
O16   P6    D    
O4    P1    S    
C25   C26   A    
H57   O27   S    
C15   C30   S    
C39   C43   A    
C20   C21   A    
C28   C40   S    
C26   N2    Am   
C67   H20   S    
Ba1   P1    S    
C28   O33   S    
C46   P3    S    
C61   H56   S    
C63   H4    S    
Ba2   O31   S    
C45   C56   S    
