data_mof_unit_49510.cif
_audit_creation_date              2012-12-11T14:33:52-0500
_audit_creation_method            fapswitch 2.2
_symmetry_space_group_name_H-M    P1
_symmetry_Int_Tables_number       1
_space_group_crystal_system       triclinic
_cell_length_a                    13.835892
_cell_length_b                    13.958704
_cell_length_c                    27.332556
_cell_angle_alpha                 90.039153
_cell_angle_beta                  89.768723
_cell_angle_gamma                 119.569557
_cell_volume                      4591.20344204

loop_
_atom_site_label
_atom_site_type_symbol
_atom_type_description
_atom_site_fract_x
_atom_site_fract_y
_atom_site_fract_z
_atom_type_partial_charge
C1    C     C_R   0.233685 0.787189 0.568738 0.549658
C2    C     C_R   0.212409 0.446431 0.568792 0.549955
C3    C     C_R   0.552522 0.765175 0.569109 0.547214
C4    C     C_3   0.659380 0.734237 0.790290 -0.212471
C5    C     C_3   0.244086 0.954105 0.782856 -0.212504
C6    C     C_3   0.055363 0.311640 0.786102 -0.211973
C7    C     C_3   0.638886 0.721381 0.734359 -0.213239
C8    C     C_3   0.260048 0.938853 0.727920 -0.212998
C9    C     C_3   0.072398 0.345960 0.731447 -0.213508
C10   C     C_1   0.707256 0.862595 0.860173 -0.078097
C11   C     C_1   0.113960 0.881535 0.852600 -0.077502
C12   C     C_1   0.115099 0.231030 0.852211 -0.077838
C13   C     C_1   0.627795 0.814080 0.659152 -0.070610
C14   C     C_1   0.176366 0.819107 0.656308 -0.070245
C15   C     C_1   0.178134 0.358236 0.656356 -0.070434
C16   C     C_1   0.600338 0.795868 0.616873 -0.006382
C17   C     C_1   0.198508 0.806128 0.615143 -0.004922
C18   C     C_1   0.192488 0.393062 0.615210 -0.005734
C19   C     C_R   0.064101 0.149864 0.095913 0.580429
C20   C     C_R   0.776283 0.883818 0.087768 0.549781
C21   C     C_R   0.116106 0.892890 0.087671 0.561289
C22   C     C_R   0.069591 0.160367 0.943234 0.540298
C23   C     C_R   0.779812 0.887200 0.950729 0.541264
C24   C     C_R   0.090849 0.929998 0.943435 0.537298
C25   C     C_R   0.641477 0.907946 0.363384 0.000542
C26   C     C_R   0.090055 0.746681 0.364795 -0.001435
C27   C     C_R   0.253796 0.333032 0.367966 -0.000008
C28   C     C_R   0.657842 0.919111 0.312065 -0.011429
C29   C     C_R   0.075209 0.754066 0.313869 -0.013317
C30   C     C_R   0.229798 0.284569 0.320594 -0.008904
C31   C     C_R   0.686066 0.934736 0.209446 0.019891
C32   C     C_R   0.053254 0.766544 0.211782 0.014595
C33   C     C_R   0.187465 0.205492 0.223082 0.016544
C34   C     C_R   0.232769 0.788593 0.431657 0.575461
C35   C     C_R   0.211326 0.442819 0.431785 0.562535
C36   C     C_R   0.556844 0.767794 0.431893 0.565525
C37   C     C_R   0.681788 0.018614 0.235502 -0.130182
C38   C     C_R   0.961282 0.695507 0.240242 -0.123802
C39   C     C_R   0.279600 0.214673 0.248181 -0.123592
C40   C     C_R   0.669172 0.011816 0.286228 -0.133288
C41   C     C_R   0.971827 0.689248 0.290685 -0.130751
C42   C     C_R   0.300377 0.253127 0.296367 -0.130082
C43   C     C_R   0.710089 0.946030 0.159347 -0.144523
C44   C     C_R   0.042054 0.777617 0.161748 -0.134309
C45   C     C_R   0.170876 0.176113 0.173450 -0.134769
C46   C     C_R   0.718832 0.862841 0.134559 -0.005168
C47   C     C_R   0.133338 0.855375 0.134538 -0.006014
C48   C     C_R   0.080146 0.171696 0.148555 -0.009614
C49   C     C_R   0.637547 0.731066 0.359708 -0.140516
C50   C     C_R   0.282466 0.894989 0.356271 -0.141775
C51   C     C_R   0.081248 0.340730 0.365626 -0.136748
C52   C     C_R   0.653495 0.741067 0.309714 0.007227
C53   C     C_R   0.270116 0.900049 0.306637 0.005952
C54   C     C_R   0.057376 0.293777 0.319542 0.010420
C55   C     C_R   0.660815 0.833503 0.285444 0.051967
C56   C     C_R   0.167330 0.828467 0.284931 0.051918
C57   C     C_R   0.132820 0.268410 0.296166 0.051652
C58   C     C_R   0.655605 0.656000 0.283407 -0.128370
C59   C     C_R   0.361738 0.972870 0.278247 -0.126933
C60   C     C_R   0.961625 0.278292 0.295381 -0.120063
C61   C     C_R   0.664370 0.661755 0.232837 -0.133385
C62   C     C_R   0.352054 0.974991 0.227905 -0.133804
C63   C     C_R   0.942661 0.242150 0.247252 -0.121011
C64   C     C_R   0.674018 0.753941 0.208311 0.014642
C65   C     C_R   0.250013 0.906179 0.205742 0.014407
C66   C     C_R   0.017564 0.218353 0.223134 0.019270
C67   C     C_3   0.563968 0.852879 0.737921 -0.214239
C68   C     C_3   0.141868 0.733651 0.738741 -0.216138
C69   C     C_3   0.271999 0.390967 0.736658 -0.216146
C70   C     C_R   0.672790 0.840498 0.234389 0.069510
C71   C     C_R   0.156954 0.832902 0.234124 0.068347
C72   C     C_R   0.112061 0.229461 0.247661 0.066843
C73   C     C_R   0.692015 0.763807 0.158327 -0.128726
C74   C     C_R   0.238067 0.914508 0.155927 -0.138242
C75   C     C_R   0.001457 0.187861 0.174202 -0.125401
C76   C     C_R   0.620774 0.807721 0.386011 0.017868
C77   C     C_R   0.197297 0.813358 0.384946 0.019964
C78   C     C_R   0.181711 0.367890 0.388977 0.007929
C79   C     C_3   0.767877 0.924402 0.722812 -0.214744
C80   C     C_3   0.053825 0.847132 0.714528 -0.212540
C81   C     C_3   0.123928 0.200397 0.712757 -0.212334
C82   C     C_3   0.787988 0.937298 0.778834 -0.215757
C83   C     C_3   0.036642 0.862975 0.769386 -0.217698
C84   C     C_3   0.106855 0.166438 0.767374 -0.220077
C85   C     C_1   0.734699 0.873242 0.902491 -0.028758
C86   C     C_1   0.103149 0.902124 0.894340 -0.023694
C87   C     C_1   0.096617 0.199839 0.894011 -0.027696
C88   C     C_3   0.649727 0.828386 0.712075 0.070100
C89   C     C_3   0.157864 0.834109 0.707948 0.069531
C90   C     C_3   0.162046 0.324358 0.707878 0.069768
C91   C     C_3   0.584410 0.865610 0.793995 -0.215047
C92   C     C_3   0.124213 0.749977 0.793650 -0.212354
C93   C     C_3   0.254829 0.356489 0.791375 -0.212424
C94   C     C_3   0.684551 0.850247 0.807296 0.073102
C95   C     C_3   0.129100 0.862272 0.801033 0.072196
C96   C     C_3   0.132962 0.265900 0.800698 0.071684
Cr1   Cr    Cr6+3 0.164410 0.584450 0.499910 1.066065
Cr2   Cr    Cr6+3 0.415550 0.579960 0.499910 1.075966
Cr3   Cr    Cr6+3 0.420040 0.835590 0.499910 1.069156
Cr4   Cr    Cr6+3 0.155170 0.075460 0.019960 1.016419
Cr5   Cr    Cr6+3 0.924540 0.079710 0.019960 1.003670
Cr6   Cr    Cr6+3 0.920290 0.844830 0.019960 1.006889
H1    H     H_    0.600533 0.948562 0.805730 0.112746
H2    H     H_    0.042346 0.681896 0.806194 0.115055
H3    H     H_    0.312398 0.325591 0.801547 0.113241
H4    H     H_    0.478045 0.784934 0.730786 0.106567
H5    H     H_    0.216031 0.722823 0.734781 0.106100
H6    H     H_    0.301274 0.480727 0.733717 0.106572
H7    H     H_    0.508602 0.803527 0.813647 0.111315
H8    H     H_    0.189415 0.746297 0.815967 0.114358
H9    H     H_    0.275690 0.429607 0.814624 0.115446
H10   H     H_    0.730301 0.721053 0.799442 0.111203
H11   H     H_    0.252632 0.036570 0.788848 0.104954
H12   H     H_    0.967062 0.248008 0.792480 0.109418
H13   H     H_    0.729245 0.021818 0.140575 0.105053
H14   H     H_    0.960865 0.732226 0.144897 0.122281
H15   H     H_    0.229713 0.159870 0.153982 0.125232
H16   H     H_    0.689544 0.090316 0.216652 0.091949
H17   H     H_    0.880731 0.645383 0.223528 0.105334
H18   H     H_    0.337141 0.194415 0.230185 0.110049
H19   H     H_    0.668562 0.080104 0.304517 0.089652
H20   H     H_    0.897898 0.633792 0.310952 0.098701
H21   H     H_    0.373450 0.259867 0.313806 0.102030
H22   H     H_    0.696339 0.698259 0.138828 0.125197
H23   H     H_    0.308315 0.974200 0.134519 0.120639
H24   H     H_    0.929155 0.180577 0.155478 0.118645
H25   H     H_    0.666120 0.595343 0.213013 0.098122
H26   H     H_    0.423602 0.031950 0.206449 0.101515
H27   H     H_    0.871344 0.236286 0.228402 0.099107
H28   H     H_    0.648935 0.584291 0.301909 0.099984
H29   H     H_    0.441311 0.027260 0.294953 0.099386
H30   H     H_    0.903484 0.298154 0.313094 0.105765
H31   H     H_    0.570135 0.929749 0.722822 0.114884
H32   H     H_    0.068903 0.657044 0.725095 0.114238
H33   H     H_    0.337944 0.376765 0.720641 0.115973
H34   H     H_    0.627161 0.656848 0.377246 0.142146
H35   H     H_    0.363829 0.949255 0.371524 0.138260
H36   H     H_    0.023369 0.362907 0.381871 0.144927
H37   H     H_    0.831263 0.908552 0.705135 0.112398
H38   H     H_    0.063559 0.919368 0.693241 0.115043
H39   H     H_    0.044780 0.150538 0.692601 0.115472
H40   H     H_    0.777998 0.002518 0.707266 0.115811
H41   H     H_    0.979024 0.772957 0.700336 0.117485
H42   H     H_    0.187117 0.182583 0.696332 0.116420
H43   H     H_    0.808155 0.021759 0.790160 0.109505
H44   H     H_    0.953619 0.796264 0.781570 0.109435
H45   H     H_    0.161991 0.132815 0.777101 0.108037
H46   H     H_    0.860615 0.927258 0.787957 0.101264
H47   H     H_    0.037188 0.941860 0.774270 0.099492
H48   H     H_    0.019619 0.100826 0.773302 0.101669
H49   H     H_    0.554448 0.650785 0.727173 0.111060
H50   H     H_    0.336605 0.932490 0.722927 0.111708
H51   H     H_    0.097854 0.434860 0.728381 0.110094
H52   H     H_    0.699945 0.702019 0.716785 0.115890
H53   H     H_    0.272077 0.012592 0.707173 0.116831
H54   H     H_    0.992265 0.298724 0.711672 0.117663
H55   H     H_    0.584844 0.669830 0.809863 0.113591
H56   H     H_    0.311190 0.951749 0.804251 0.115631
H57   H     H_    0.072857 0.384062 0.809226 0.117173
O1    O     O_R   0.137150 0.468200 0.553200 -0.506381
O2    O     O_R   0.531800 0.668950 0.553200 -0.504262
O3    O     O_R   0.331050 0.862850 0.553200 -0.503095
O4    O     O_R   0.179100 0.982980 0.967000 -0.505505
O5    O     O_R   0.017020 0.196120 0.967000 -0.483926
O6    O     O_R   0.803880 0.820900 0.967000 -0.512141
O7    O     O_R   0.173970 0.688730 0.549930 -0.488591
O8    O     O_R   0.311270 0.485240 0.549930 -0.486971
O9    O     O_R   0.514760 0.826030 0.549930 -0.487694
O10   O     O_R   0.140110 0.470540 0.446010 -0.527749
O11   O     O_R   0.529460 0.669570 0.446010 -0.524186
O12   O     O_R   0.330430 0.859890 0.446010 -0.527122
O13   O     O_R   0.176710 0.690910 0.450560 -0.467839
O14   O     O_R   0.309090 0.485800 0.450560 -0.460092
O15   O     O_R   0.514200 0.823290 0.450560 -0.468123
O16   O     O_3   0.333333 0.666667 0.499990 -0.297982
O17   O     O_R   0.176750 0.985260 0.074180 -0.529518
O18   O     O_R   0.014740 0.191490 0.074180 -0.498829
O19   O     O_R   0.808510 0.823250 0.074180 -0.516861
O20   O     O_R   0.146100 0.172630 0.068980 -0.476112
O21   O     O_R   0.827370 0.973470 0.068980 -0.518697
O22   O     O_R   0.026530 0.853900 0.068980 -0.490753
O23   O     O_3   0.000000 0.000000 0.020040 -0.285894
O24   O     O_R   0.148270 0.170520 0.969620 -0.490351
O25   O     O_R   0.829480 0.977750 0.969620 -0.520172
O26   O     O_R   0.022250 0.851730 0.969620 -0.482163
C97   C     C_2   0.645710 0.999386 0.392941 0.253032
H58   H     H_    0.606007 0.045040 0.380274 0.077249
O27   O     O_2   0.695156 0.025117 0.431858 -0.478942
C98   C     C_2   0.995440 0.670560 0.396449 0.246087
H59   H     H_    0.934866 0.589396 0.383540 0.083437
O28   O     O_2   0.983588 0.698930 0.437283 -0.479292
C99   C     C_2   0.353179 0.347119 0.394629 0.248484
H60   H     H_    0.433367 0.383065 0.376419 0.077915
O29   O     O_2   0.345239 0.315375 0.436834 -0.475156

loop_
_geom_bond_atom_site_label_1
_geom_bond_atom_site_label_2
_ccdc_geom_bond_type
C15   C18   T    
C79   H37   S    
C43   C46   A    
C10   C85   T    
C36   O15   A    
Cr1   O16   S    
C2    C18   S    
C33   C45   A    
C48   C75   A    
C27   C78   A    
C92   H8    S    
C81   C84   S    
C6    C9    S    
C6    H57   S    
C53   C59   A    
C50   H35   S    
C20   O21   A    
C54   C60   A    
C25   C28   A    
C21   O22   A    
C40   H19   S    
C7    H52   S    
C59   H29   S    
C67   C88   S    
C33   C39   A    
Cr1   O13   S    
C31   C43   A    
C60   C63   A    
C82   C94   S    
C67   H31   S    
C37   C40   A    
C69   C93   S    
C80   C83   S    
C34   C77   S    
C64   C70   A    
C84   H45   S    
C79   H40   S    
Cr3   O12   S    
C10   C94   S    
C11   C86   T    
C45   H15   S    
Cr1   O7    S    
C83   H44   S    
C30   C57   A    
Cr2   O11   S    
Cr1   O10   S    
C84   C96   S    
C80   C89   S    
C98   O28   D    
C8    H53   S    
C6    H12   S    
C36   C76   S    
C33   C72   A    
C43   H13   S    
C23   O6    A    
C28   C55   A    
C31   C70   A    
C66   C72   A    
C37   H16   S    
C7    C88   S    
C9    H54   S    
C28   C40   A    
C42   H21   S    
C64   C73   A    
C68   H5    S    
C32   C38   A    
C39   C42   A    
Cr4   O23   S    
C19   O18   A    
Cr2   O8    S    
C12   C87   T    
C44   C47   A    
C93   H3    S    
C56   C71   A    
C58   C61   A    
C81   H39   S    
C4    H10   S    
C63   C66   A    
C9    H51   S    
C69   H33   S    
C27   C30   A    
C14   C17   T    
C60   H30   S    
C4    C7    S    
C79   C88   S    
C5    C95   S    
C69   H6    S    
C3    O9    A    
C32   C71   A    
C81   H42   S    
C26   C77   A    
C50   C53   A    
Cr1   O1    S    
C83   H47   S    
C47   C74   A    
C38   C41   A    
Cr2   O14   S    
C3    O2    A    
C19   C48   S    
C20   O19   A    
C26   C98   S    
C65   C71   A    
C92   C95   S    
C65   C74   A    
C31   C37   A    
C24   O26   A    
Cr6   O23   S    
C41   H20   S    
C61   C64   A    
C3    C16   S    
C14   C89   S    
Cr4   O17   S    
C22   O24   A    
C80   H41   S    
Cr4   O24   S    
Cr3   O3    S    
C22   O5    A    
C5    H11   S    
C4    H55   S    
C73   H22   S    
C83   C95   S    
C67   C91   S    
C68   C89   S    
C32   C44   A    
C49   C76   A    
C61   H25   S    
C22   C87   S    
Cr5   O25   S    
C52   C58   A    
C93   H9    S    
C7    H49   S    
C81   C90   S    
C49   H34   S    
C1    O3    A    
C93   C96   S    
C6    C96   S    
C35   O10   A    
C4    C94   S    
C24   O4    A    
C27   C99   S    
C38   H17   S    
C97   O27   D    
C69   C90   S    
C50   C77   A    
C19   O20   A    
Cr2   O2    S    
C34   O13   A    
Cr3   O9    S    
C45   C48   A    
C11   C95   S    
C34   O12   A    
C59   C62   A    
C35   C78   S    
C62   C65   A    
C29   C41   A    
Cr6   O22   S    
C1    C17   S    
Cr5   O5    S    
C30   C42   A    
C49   C52   A    
C91   H1    S    
C8    H50   S    
C9    C90   S    
C79   C82   S    
C82   H46   S    
C52   C55   A    
C67   H4    S    
C29   C56   A    
Cr6   O6    S    
Cr6   O26   S    
C35   O14   A    
C36   O11   A    
C51   C54   A    
C99   H60   S    
C25   C76   A    
C75   H24   S    
C68   H32   S    
C51   C78   A    
C23   O25   A    
Cr5   O21   S    
C80   H38   S    
C91   C94   S    
C62   H26   S    
Cr2   O16   S    
C91   H7    S    
Cr3   O15   S    
C1    O7    A    
C58   H28   S    
Cr6   O19   S    
C66   C75   A    
C13   C88   S    
C68   C92   S    
Cr4   O4    S    
C63   H27   S    
C57   C72   A    
C98   H59   S    
C21   O17   A    
C53   C56   A    
C55   C70   A    
Cr5   O18   S    
C25   C97   S    
C92   H2    S    
C74   H23   S    
C51   H36   S    
Cr3   O16   S    
C82   H43   S    
C44   H14   S    
C26   C29   A    
C2    O1    A    
C5    H56   S    
C23   C85   S    
C13   C16   T    
C5    C8    S    
C12   C96   S    
C8    C89   S    
C21   C47   S    
C97   H58   S    
Cr4   O20   S    
C24   C86   S    
C2    O8    A    
C46   C73   A    
C20   C46   S    
Cr5   O23   S    
C39   H18   S    
C99   O29   D    
C15   C90   S    
C54   C57   A    
C84   H48   S    
