data_mof_unit_40907.cif
_audit_creation_date              2013-03-05T15:53:24-0500
_audit_creation_method            fapswitch 2.2
_symmetry_space_group_name_H-M    P1
_symmetry_Int_Tables_number       1
_space_group_crystal_system       triclinic
_cell_length_a                    10.629887
_cell_length_b                    10.685385
_cell_length_c                    16.933266
_cell_angle_alpha                 98.802563
_cell_angle_beta                  98.531775
_cell_angle_gamma                 61.514573
_cell_volume                      1664.29767254

loop_
_atom_site_label
_atom_site_type_symbol
_atom_site_description
_atom_site_fract_x
_atom_site_fract_y
_atom_site_fract_z
_atom_type_partial_charge
O1    O     O_R   0.751220 0.499230 0.435170 -0.521432
O2    O     O_R   0.477220 0.727600 0.436870 -0.501028
C1    C     C_R   0.355380 0.773867 0.398458 0.553785
O3    O     O_R   0.258650 0.745120 0.411470 -0.518041
O4    O     O_R   0.297070 0.467240 0.395960 -0.506231
C2    C     C_R   0.370563 0.346744 0.358818 0.538583
O5    O     O_R   0.488830 0.252610 0.387790 -0.508803
O6    O     O_R   0.724400 0.302390 0.420980 -0.498978
C3    C     C_R   0.779573 0.375209 0.402738 0.538861
O7    O     O_R   0.752100 0.501210 0.612190 -0.514181
O8    O     O_R   0.478040 0.729440 0.600970 -0.486726
C4    C     C_R   0.379163 0.716434 0.631619 0.551337
O9    O     O_R   0.259530 0.747110 0.588490 -0.497566
O10   O     O_R   0.297880 0.469080 0.560050 -0.513339
C5    C     C_R   0.366340 0.345791 0.584926 0.538675
O11   O     O_R   0.489720 0.254590 0.564810 -0.505115
O12   O     O_R   0.725220 0.304230 0.585080 -0.489000
C6    C     C_R   0.773715 0.379949 0.629627 0.532800
Cr1   Cr    Cr6+3 0.608340 0.611040 0.520430 1.032028
Cr2   Cr    Cr6+3 0.287650 0.601120 0.489350 1.021335
Cr3   Cr    Cr6+3 0.604040 0.287870 0.490280 1.034933
O13   O     O_3   0.500010 0.500010 0.500020 -0.279438
C7    C     C_1   0.343924 0.336303 0.275095 -0.065604
C8    C     C_1   0.331823 0.326650 0.203890 -0.062517
C9    C     C_3   0.772725 0.259936 0.203628 -0.120645
C10   C     C_3   0.695730 0.402590 0.255566 -0.110959
H1    H     H_    0.580762 0.454599 0.267213 0.116497
H2    H     H_    0.719857 0.199826 0.166985 0.135965
C11   C     C_3   0.819875 0.346494 0.321667 0.058317
C12   C     C_3   0.895493 0.204137 0.271287 -0.134078
C13   C     C_3   0.975799 0.269137 0.236471 -0.118787
C14   C     C_3   0.898898 0.411790 0.288112 -0.117141
C15   C     C_3   0.775820 0.467726 0.221165 -0.124366
C16   C     C_3   0.851614 0.325864 0.170493 0.056087
H3    H     H_    0.941729 0.098849 0.295501 0.115570
H4    H     H_    0.090701 0.217097 0.224693 0.113553
H5    H     H_    0.952047 0.471968 0.324386 0.126160
H6    H     H_    0.729165 0.573470 0.197420 0.121256
C17   C     C_3   0.416239 0.712379 0.201603 -0.152894
C18   C     C_3   0.291187 0.738398 0.248648 -0.111130
H7    H     H_    0.254154 0.658656 0.252931 0.132554
H8    H     H_    0.477381 0.615336 0.161589 0.109202
C19   C     C_3   0.347414 0.812015 0.319430 0.060683
C20   C     C_3   0.474052 0.784513 0.273808 -0.117730
C21   C     C_3   0.380033 0.932241 0.241403 -0.118879
C22   C     C_3   0.254852 0.957935 0.288948 -0.150499
C23   C     C_3   0.197428 0.885498 0.217555 -0.105986
C24   C     C_3   0.323263 0.858347 0.171054 0.061269
H9    H     H_    0.586480 0.745351 0.300747 0.132570
H10   H     H_    0.416923 0.011505 0.235845 0.134753
H11   H     H_    0.193911 0.054821 0.329105 0.106059
H12   H     H_    0.083715 0.924715 0.192860 0.137223
C25   C     C_3   0.456339 0.259215 0.772889 0.231290
C26   C     C_3   0.401803 0.398763 0.735145 -0.108593
H13   H     H_    0.466403 0.453959 0.731488 0.106526
C27   C     C_3   0.336398 0.334700 0.663023 0.015614
C28   C     C_3   0.394963 0.193839 0.700954 -0.103622
C29   C     C_3   0.251934 0.258121 0.740504 -0.155192
C30   C     C_3   0.193644 0.399451 0.701065 -0.131469
C31   C     C_3   0.258853 0.461973 0.774822 -0.148250
C32   C     C_3   0.317786 0.321155 0.812799 0.041972
H14   H     H_    0.450098 0.084746 0.669768 0.155576
H15   H     H_    0.189433 0.201032 0.744911 0.120588
H16   H     H_    0.085557 0.455489 0.668960 0.147483
H17   H     H_    0.204785 0.570482 0.806781 0.145883
C33   C     C_1   0.817929 0.341857 0.709458 -0.034835
C34   C     C_1   0.845139 0.314307 0.777784 0.004352
C35   C     C_1   0.357233 0.765975 0.714280 -0.038770
C36   C     C_1   0.326219 0.812191 0.781931 -0.035512
O14   O     O_R   0.171830 0.913880 0.057510 -0.524064
O15   O     O_R   0.940690 0.186050 0.054730 -0.492563
C37   C     C_R   0.890267 0.311347 0.090192 0.556594
O16   O     O_R   0.920470 0.405720 0.075010 -0.516698
O17   O     O_R   0.196690 0.370460 0.084120 -0.498225
C38   C     C_R   0.319230 0.299676 0.120220 0.540930
O18   O     O_R   0.412990 0.180750 0.091610 -0.513716
O19   O     O_R   0.366620 0.943130 0.065760 -0.507799
C39   C     C_R   0.293906 0.892772 0.089145 0.542767
O20   O     O_R   0.160510 0.906330 0.879210 -0.498538
O21   O     O_R   0.930190 0.179050 0.889450 -0.436226
C40   C     C_R   0.886598 0.298675 0.860546 0.598591
O22   O     O_R   0.909140 0.398170 0.896710 -0.519740
O23   O     O_R   0.186190 0.363460 0.918830 -0.512524
C41   C     C_R   0.308321 0.293707 0.891853 0.569730
O24   O     O_R   0.401670 0.173200 0.913310 -0.465740
O25   O     O_R   0.356120 0.936130 0.900470 -0.492199
C42   C     C_R   0.282423 0.880463 0.859677 0.540699
Cr4   Cr    Cr6+3 0.054020 0.052700 0.970850 1.088151
Cr5   Cr    Cr6+3 0.059230 0.375120 0.993390 1.035704
Cr6   Cr    Cr6+3 0.374950 0.061200 0.992340 1.058020
O26   O     O_3   0.162740 0.163010 0.985530 -0.283259
N1    N     N_R   0.598491 0.186724 0.814639 0.085883
O27   O     O_R   0.689969 0.058932 0.787813 -0.325637
O28   O     O_R   0.631675 0.247281 0.881188 -0.352146

loop_
_geom_bond_atom_site_label_1
_geom_bond_atom_site_label_2
_geom_bond_distance
_ccdc_geom_bond_type
C20   H9    1.109542 S    
C18   C23   1.531148 S    
O11   Cr3   2.049521 S    
O14   C39   1.254307 A    
C2    O5    1.262819 A    
C38   O18   1.260804 A    
O14   Cr4   2.066633 S    
O20   C42   1.273865 A    
C40   O22   1.250154 A    
C28   C29   1.548247 S    
C28   H14   1.110392 S    
O4    Cr2   1.943012 S    
C26   C31   1.549721 S    
O19   C39   1.263545 A    
C9    H2    1.110063 S    
C4    C35   1.430415 S    
O8    Cr1   1.933885 S    
C10   H1    1.109683 S    
O22   Cr5   2.063928 S    
C12   H3    1.108754 S    
O17   Cr5   1.945724 S    
C11   C14   1.528811 S    
C12   C13   1.548840 S    
C5    O11   1.263969 A    
C9    C12   1.547388 S    
C27   C28   1.532657 S    
C24   C39   1.440355 S    
C26   H13   1.110570 S    
C25   C32   1.514107 S    
C18   C19   1.536209 S    
O23   C41   1.264272 A    
O6    C3    1.267845 A    
C7    C8    1.187242 T    
Cr5   O26   1.984352 S    
C36   C42   1.430399 S    
C3    C11   1.443071 S    
C9    C16   1.529181 S    
C37   O16   1.264405 A    
C29   C32   1.544483 S    
C33   C34   1.196940 T    
C30   C31   1.554386 S    
Cr3   O13   1.984204 S    
O20   Cr4   2.055513 S    
O12   C6    1.258979 A    
C17   H8    1.108840 S    
O23   Cr5   1.930782 S    
C26   C27   1.545837 S    
O19   Cr6   1.940221 S    
O1    Cr1   2.051912 S    
O17   C38   1.268054 A    
O10   Cr2   1.941053 S    
Cr1   O13   1.978030 S    
O1    C3    1.262538 A    
C41   O24   1.261801 A    
O25   Cr6   1.942325 S    
C17   C18   1.540389 S    
C25   C28   1.528372 S    
O25   C42   1.266036 A    
C35   C36   1.203523 T    
C29   C30   1.550429 S    
O5    Cr3   2.064718 S    
C22   H11   1.108758 S    
O12   Cr3   1.944761 S    
C31   C32   1.532190 S    
C19   C20   1.535245 S    
C11   C12   1.525694 S    
C10   C15   1.544335 S    
C23   C24   1.538135 S    
Cr4   O26   1.977673 S    
O7    Cr1   2.066327 S    
O8    C4    1.310199 A    
C1    C19   1.436845 S    
C25   N1    1.455086 S    
N1    O28   1.299842 A    
C15   C16   1.524879 S    
C30   H16   1.110066 S    
C13   C16   1.537732 S    
C14   H5    1.110239 S    
C17   C20   1.551495 S    
C18   H7    1.110669 S    
Cr2   O13   1.976859 S    
C31   H17   1.110018 S    
C34   C40   1.415737 S    
C1    O3    1.260702 A    
C16   C37   1.442994 S    
C20   C21   1.545718 S    
C21   C24   1.536236 S    
C29   H15   1.110995 S    
C22   C23   1.542250 S    
O9    Cr2   2.060018 S    
O2    Cr1   1.947895 S    
O10   C5    1.267652 A    
C13   C14   1.540120 S    
O21   C40   1.283498 A    
C32   C41   1.440969 S    
O6    Cr3   1.930948 S    
O24   Cr6   2.056937 S    
C8    C38   1.401391 S    
C25   C26   1.524863 S    
C23   H12   1.109978 S    
C6    C33   1.418206 S    
C15   H6    1.108920 S    
C27   C30   1.532490 S    
C5    C27   1.439791 S    
O2    C1    1.258011 A    
C9    C10   1.542770 S    
O16   Cr5   2.049211 S    
O15   C37   1.267008 A    
O21   Cr4   1.947145 S    
C14   C15   1.541242 S    
Cr6   O26   1.976278 S    
O4    C2    1.265749 A    
C21   H10   1.110018 S    
O7    C6    1.277445 A    
C2    C7    1.401836 S    
N1    O27   1.300450 A    
C19   C22   1.515887 S    
O15   Cr4   1.936476 S    
O3    Cr2   2.061486 S    
C21   C22   1.547888 S    
C4    O9    1.287669 A    
C10   C11   1.538227 S    
C13   H4    1.109626 S    
O18   Cr6   2.062722 S    
C17   C24   1.517223 S    
