data_mof_unit_6248.cif
_audit_creation_date              2012-12-10T19:43:26-0500
_audit_creation_method            fapswitch 2.2
_symmetry_space_group_name_H-M    P1
_symmetry_Int_Tables_number       1
_space_group_crystal_system       triclinic
_cell_length_a                    10.934766
_cell_length_b                    10.771999
_cell_length_c                    9.626515
_cell_angle_alpha                 90.245942
_cell_angle_beta                  92.219457
_cell_angle_gamma                 93.026333
_cell_volume                      1131.44672989

loop_
_atom_site_label
_atom_site_type_symbol
_atom_type_description
_atom_site_fract_x
_atom_site_fract_y
_atom_site_fract_z
_atom_type_partial_charge
C1    C     C_R   0.496108 0.262722 0.499596 0.786933
C2    C     C_R   0.144630 0.357066 0.964892 -0.139480
C3    C     C_R   0.925866 0.444627 0.389475 -0.231633
C4    C     C_R   0.871212 0.485755 0.509248 -0.081100
C5    C     C_R   0.946697 0.520009 0.627348 0.021180
C6    C     C_R   0.073159 0.525532 0.616049 -0.241019
C7    C     C_R   0.127903 0.493145 0.493402 -0.083261
C8    C     C_R   0.052930 0.450617 0.378019 0.019522
C9    C     C_R   0.942566 0.653311 0.838223 -0.262273
C10   C     C_R   0.931512 0.664889 0.982325 0.060982
C11   C     C_R   0.873679 0.566860 0.054208 -0.151192
C12   C     C_R   0.262222 0.497095 0.497126 0.766860
C13   C     C_R   0.831696 0.457661 0.985019 -0.165905
C14   C     C_R   0.848405 0.444567 0.842899 -0.070893
C15   C     C_R   0.903089 0.542822 0.768128 0.094303
C16   C     C_R   0.302334 0.120304 0.638624 -0.206678
C17   C     C_R   0.213591 0.051257 0.709396 -0.127705
C18   C     C_R   0.215104 0.922400 0.711927 -0.113107
C19   C     C_R   0.304429 0.861474 0.642966 -0.188512
C20   C     C_R   0.397102 0.929598 0.572908 0.103181
C21   C     C_R   0.396373 0.060871 0.571388 0.102010
C22   C     C_R   0.487691 0.128587 0.498760 -0.097285
C23   C     C_R   0.496434 0.737056 0.500185 0.777342
C24   C     C_R   0.574096 0.067893 0.424491 -0.201952
C25   C     C_R   0.574619 0.939893 0.425672 -0.203117
C26   C     C_R   0.488551 0.870614 0.500620 -0.090125
C27   C     C_R   0.634533 0.690289 0.148550 -0.139449
C28   C     C_R   0.683865 0.792985 0.079089 -0.192237
C29   C     C_R   0.684443 0.791824 0.935598 -0.196721
C30   C     C_R   0.635733 0.687940 0.862855 -0.109980
C31   C     C_R   0.564379 0.594064 0.928318 0.204473
C32   C     C_R   0.564044 0.594534 0.077413 0.201240
C33   C     C_R   0.442566 0.407490 0.070833 -0.051421
C34   C     C_R   0.737524 0.495745 0.503125 0.776137
C35   C     C_R   0.442442 0.407643 0.923106 -0.068906
C36   C     C_R   0.168216 0.478355 0.014833 -0.130762
C37   C     C_R   0.146273 0.507321 0.152947 -0.066440
C38   C     C_R   0.099703 0.415099 0.242125 0.110598
C39   C     C_R   0.077925 0.292971 0.191783 -0.171206
C40   C     C_R   0.101100 0.264074 0.053832 -0.143419
Cu1   Cu    Cu3+1 0.499990 0.499990 0.640660 0.921098
Cu2   Cu    Cu3+1 0.500010 0.500010 0.359340 0.935406
H1    H     H_    0.160433 0.335173 0.857446 0.127747
H2    H     H_    0.860122 0.576028 0.163914 0.175294
H3    H     H_    0.788428 0.382225 0.042250 0.137820
H4    H     H_    0.822220 0.356761 0.792010 0.128463
H5    H     H_    0.643481 0.120156 0.368188 0.146294
H6    H     H_    0.294821 0.219904 0.635505 0.138265
H7    H     H_    0.142487 0.097791 0.761023 0.138125
H8    H     H_    0.145918 0.869273 0.766156 0.167666
H9    H     H_    0.298458 0.761090 0.643899 0.153991
H10   H     H_    0.644655 0.894711 0.370718 0.138643
H11   H     H_    0.394204 0.332199 0.123133 0.158526
H12   H     H_    0.202666 0.550363 0.946411 0.133818
H13   H     H_    0.662586 0.684887 0.255516 0.195018
H14   H     H_    0.733339 0.867542 0.136637 0.163017
H15   H     H_    0.734485 0.865222 0.881802 0.161375
H16   H     H_    0.663527 0.680125 0.758294 0.195813
H17   H     H_    0.394513 0.332161 0.865855 0.143517
H18   H     H_    0.160913 0.602534 0.188880 0.152393
H19   H     H_    0.039502 0.221225 0.258194 0.131652
H20   H     H_    0.082907 0.170158 0.015172 0.160781
H21   H     H_    0.868641 0.408580 0.302572 0.147722
H22   H     H_    0.129888 0.554320 0.706411 0.157294
H23   H     H_    0.986846 0.727590 0.780589 0.150636
N1    N     N_R   0.501190 0.501210 0.147910 -0.205861
N2    N     N_R   0.501230 0.501290 0.852040 -0.205661
O1    O     O_R   0.499990 0.319640 0.618810 -0.586051
O2    O     O_R   0.500000 0.319660 0.381240 -0.580457
O3    O     O_R   0.319640 0.500000 0.618780 -0.599396
O4    O     O_R   0.319650 0.500020 0.381210 -0.570809
O5    O     O_R   0.500000 0.680340 0.618760 -0.603456
O6    O     O_R   0.500010 0.680360 0.381190 -0.587248
O7    O     O_R   0.680350 0.499980 0.618790 -0.594106
O8    O     O_R   0.680360 0.500000 0.381220 -0.603529
C41   C     C_2   0.980271 0.778187 0.058435 0.784193
O9    O     O_2   0.021941 0.867878 0.994938 -0.644096
O10   O     O_R   0.978155 0.782885 0.203589 -0.794597
H24   H     H_    0.013623 0.864923 0.243433 0.331721

loop_
_geom_bond_atom_site_label_1
_geom_bond_atom_site_label_2
_ccdc_geom_bond_type
C16   C21   A    
Cu1   Cu2   S    
C19   C20   A    
C16   H6    S    
C28   H14   S    
C7    C8    A    
C14   H4    S    
C31   N2    A    
Cu2   O8    S    
C37   C38   A    
C36   C37   A    
C41   O10   S    
C5    C6    A    
C27   H13   S    
C1    O1    A    
C40   H20   S    
C35   H17   S    
C18   C19   A    
C23   C26   S    
C6    H22   S    
Cu1   O7    S    
C10   C41   S    
C16   C17   A    
C9    C10   A    
C34   O8    A    
C1    C22   S    
C21   C22   A    
C8    C38   S    
C23   O6    A    
C33   N1    A    
Cu1   O1    S    
C33   H11   S    
C7    C12   S    
C39   H19   S    
C4    C34   S    
C38   C39   A    
C41   O9    D    
Cu1   N2    S    
C3    C8    A    
C17   H7    S    
C39   C40   A    
O10   H24   S    
C25   C26   A    
Cu2   O2    S    
C1    O2    A    
C29   C30   A    
C19   H9    S    
C31   C32   A    
C35   N2    A    
C2    H1    S    
C17   C18   A    
C11   H2    S    
C24   C25   A    
C34   O7    A    
Cu1   O5    S    
C12   O4    A    
C29   H15   S    
C22   C24   A    
C3    C4    A    
C18   H8    S    
C32   N1    A    
C2    C36   A    
C12   O3    A    
C28   C29   A    
Cu2   O6    S    
C27   C32   A    
C24   H5    S    
C23   O5    A    
C4    C5    A    
C6    C7    A    
C3    H21   S    
C9    C15   A    
C25   H10   S    
C13   H3    S    
C11   C13   A    
C30   C31   A    
C20   C26   A    
C30   H16   S    
Cu2   O4    S    
C33   C35   A    
C9    H23   S    
C5    C15   S    
C37   H18   S    
C36   H12   S    
C10   C11   A    
C2    C40   A    
C20   C21   A    
C27   C28   A    
Cu2   N1    S    
C14   C15   A    
C13   C14   A    
Cu1   O3    S    
