data_mof_unit_66480.cif
_audit_creation_date              2012-12-11T14:43:35-0500
_audit_creation_method            fapswitch 2.2
_symmetry_space_group_name_H-M    P1
_symmetry_Int_Tables_number       1
_space_group_crystal_system       triclinic
_cell_length_a                    8.198616
_cell_length_b                    15.094083
_cell_length_c                    18.798988
_cell_angle_alpha                 97.367117
_cell_angle_beta                  92.687476
_cell_angle_gamma                 99.318363
_cell_volume                      2271.28942561

loop_
_atom_site_label
_atom_site_type_symbol
_atom_type_description
_atom_site_fract_x
_atom_site_fract_y
_atom_site_fract_z
_atom_type_partial_charge
Ba1   Ba    Ba6+2 0.852920 0.542430 0.466290 1.641787
Ba2   Ba    Ba6+2 0.336920 0.457650 0.533720 1.642734
C1    C     C_3   0.729947 0.864180 0.281565 0.095554
C2    C     C_3   0.684378 0.772924 0.308495 0.331317
C3    C     C_3   0.437271 0.313086 0.314094 0.304098
C4    C     C_3   0.395757 0.277860 0.234732 -0.350210
C5    C     C_3   0.066899 0.269870 0.728950 0.350685
C6    C     C_3   0.081737 0.245906 0.804953 0.114951
C7    C     C_3   0.530835 0.217474 0.689378 0.331040
C8    C     C_3   0.484775 0.123062 0.710371 -0.313774
C9    C     C_2   0.305560 0.518004 0.294534 -0.270967
C10   C     C_3   0.443161 0.512764 0.244303 -0.010505
C11   C     C_2   0.382122 0.520145 0.167906 -0.111161
C12   C     C_3   0.162989 0.734897 0.274274 0.286735
C13   C     C_2   0.217787 0.498078 0.146828 -0.080680
C14   C     C_2   0.099454 0.472939 0.203151 -0.125846
C15   C     C_1   0.154779 0.476803 0.271626 0.067715
C16   C     C_R   0.047152 0.493445 0.928941 0.465836
C17   C     C_R   0.156796 0.497601 0.069768 0.464453
C18   C     C_R   0.090672 0.527168 0.800709 -0.129283
C19   C     C_R   0.034514 0.519229 0.727483 0.066739
C20   C     C_R   0.769460 0.438328 0.754100 0.010086
C21   C     C_R   0.824212 0.445627 0.826899 -0.128178
C22   C     C_R   0.987216 0.488698 0.851317 -0.080939
C23   C     C_3   0.130643 0.750583 0.196960 -0.295691
C24   C     C_R   0.876837 0.471862 0.704836 -0.287135
C25   C     C_R   0.759490 0.234162 0.529959 -0.293804
C26   C     C_R   0.853918 0.174651 0.555189 0.018284
C27   C     C_R   0.791848 0.081232 0.545909 -0.118562
C28   C     C_R   0.635384 0.045818 0.508110 0.010159
C29   C     C_R   0.549212 0.108499 0.479014 -0.099716
C30   C     C_R   0.611075 0.200993 0.489810 0.034161
C31   C     C_R   0.406428 0.912032 0.459985 -0.090492
C32   C     C_R   0.341444 0.819635 0.449491 0.017794
C33   C     C_R   0.584268 0.788224 0.511637 0.068376
C34   C     C_3   0.251898 0.735591 0.623313 0.305078
C35   C     C_R   0.651185 0.880853 0.522606 -0.118932
C36   C     C_R   0.565025 0.945360 0.496064 0.007628
C37   C     C_R   0.432536 0.757863 0.473234 -0.292626
C38   C     C_3   0.283686 0.838007 0.644253 -0.371738
C39   C     C_3   0.944011 0.265349 0.379349 0.292673
C40   C     C_3   0.906768 0.162858 0.358978 -0.362113
C41   C     C_3   0.740875 0.660960 0.682133 0.302413
C42   C     C_3   0.764109 0.687657 0.763249 -0.361845
H1    H     H_    0.797718 0.759225 0.336362 0.083361
H2    H     H_    0.381956 0.857680 0.688786 0.138934
H3    H     H_    0.324191 0.872274 0.597935 0.055293
H4    H     H_    0.168299 0.861150 0.661920 0.138634
H5    H     H_    0.832521 0.289787 0.398973 0.006767
H6    H     H_    0.044987 0.282225 0.422557 0.073969
H7    H     H_    0.798258 0.143718 0.319176 0.162645
H8    H     H_    0.879206 0.129229 0.407017 0.063810
H9    H     H_    0.015771 0.138466 0.335306 0.132236
H10   H     H_    0.857142 0.642623 0.662162 0.007856
H11   H     H_    0.639255 0.601837 0.670001 0.065676
H12   H     H_    0.797861 0.914319 0.325863 0.052526
H13   H     H_    0.868935 0.744920 0.776953 0.141767
H14   H     H_    0.791044 0.629731 0.789788 0.061837
H15   H     H_    0.649373 0.708478 0.783957 0.137783
H16   H     H_    0.587886 0.777497 0.347542 -0.005175
H17   H     H_    0.322897 0.330266 0.337607 0.022738
H18   H     H_    0.533923 0.374753 0.319442 0.030087
H19   H     H_    0.304704 0.213855 0.228633 0.149826
H20   H     H_    0.340700 0.328044 0.207508 0.058169
H21   H     H_    0.509832 0.264866 0.208540 0.134874
H22   H     H_    0.811479 0.857983 0.236293 0.112487
H23   H     H_    0.185887 0.701840 0.160105 0.090647
H24   H     H_    0.153957 0.333780 0.726730 0.050273
H25   H     H_    0.938387 0.280932 0.717250 -0.054597
H26   H     H_    0.057608 0.303128 0.844033 0.030996
H27   H     H_    0.208592 0.232850 0.817663 0.121820
H28   H     H_    0.666336 0.230521 0.683625 -0.028372
H29   H     H_    0.463896 0.218608 0.636860 0.082667
H30   H     H_    0.522935 0.072296 0.669136 0.071119
H31   H     H_    0.348858 0.106408 0.714269 0.157289
H32   H     H_    0.098575 0.665572 0.279066 0.063755
H33   H     H_    0.548333 0.119560 0.763123 0.174647
H34   H     H_    0.473036 0.536704 0.129401 0.113994
H35   H     H_    0.968505 0.451157 0.187705 0.119248
H36   H     H_    0.213626 0.563888 0.818039 0.115808
H37   H     H_    0.739591 0.417802 0.864048 0.117331
H38   H     H_    0.328928 0.557416 0.347637 0.060881
H39   H     H_    0.833598 0.466007 0.648898 0.068162
H40   H     H_    0.327009 0.955513 0.441264 0.083900
H41   H     H_    0.870096 0.038380 0.566724 0.083432
H42   H     H_    0.768091 0.900465 0.553665 0.084719
H43   H     H_    0.298498 0.739302 0.285828 0.042301
H44   H     H_    0.436632 0.088026 0.445163 0.084351
H45   H     H_    0.380551 0.686438 0.465849 0.069661
H46   H     H_    0.807761 0.306042 0.536450 0.066321
H47   H     H_    0.995109 0.740348 0.183066 0.122490
H48   H     H_    0.186233 0.820643 0.189724 0.181123
H49   H     H_    0.368496 0.713183 0.608053 0.005711
H50   H     H_    0.157784 0.717963 0.577128 0.064053
N1    N     N_R   0.208711 0.524570 0.951704 -0.233972
N2    N     N_R   0.262104 0.526502 0.020308 -0.233288
N3    N     N_R   0.995130 0.466917 0.047099 -0.233088
N4    N     N_R   0.941838 0.464741 0.978452 -0.229954
O1    O     O_2   0.864880 0.449170 0.328210 -0.466313
O2    O     O_3   0.702481 0.735036 0.651061 -0.627114
O3    O     O_3   0.101782 0.800502 0.320809 -0.602092
O4    O     O_2   0.324830 0.550860 0.671840 -0.461522
O5    O     O_3   0.072140 0.549400 0.584410 -0.498182
O6    O     O_3   0.531230 0.386060 0.627150 -0.486930
O7    O     O_3   0.196483 0.695656 0.682734 -0.629662
O8    O     O_3   0.606300 0.390910 0.463140 -0.476933
O9    O     O_3   0.106650 0.339290 0.591370 -0.492001
O10   O     O_2   0.193573 0.179025 0.547906 -0.490866
O11   O     O_3   0.107794 0.199563 0.680146 -0.582462
O12   O     O_3   0.117570 0.450680 0.415600 -0.493903
O13   O     O_3   0.583420 0.609160 0.536870 -0.491158
O14   O     O_2   0.332740 0.278830 0.463690 -0.464949
O15   O     O_3   0.496181 0.245400 0.347337 -0.627670
O16   O     O_2   0.433141 0.449146 0.754058 -0.486405
O17   O     O_3   0.485290 0.281614 0.742473 -0.594396
O18   O     O_3   0.658480 0.614010 0.372860 -0.493553
O19   O     O_2   0.791087 0.570859 0.250220 -0.492092
O20   O     O_3   0.989960 0.304314 0.318229 -0.630297
O21   O     O_3   0.625789 0.704498 0.250680 -0.598902
O22   O     O_2   0.856970 0.721200 0.536350 -0.465062
O23   O     O_3   0.083060 0.660780 0.408640 -0.492195
O24   O     O_2   0.001433 0.821856 0.451412 -0.497448
P1    P     P_3+3 0.032340 0.422550 0.338860 0.987989
P2    P     P_3+3 0.682000 0.708060 0.557320 0.989252
P3    P     P_3+3 0.131514 0.777501 0.408978 0.938676
P4    P     P_3+3 0.157370 0.577530 0.661150 0.987541
P5    P     P_3+3 0.065745 0.221952 0.592769 0.960613
P6    P     P_3+3 0.629932 0.598278 0.279007 0.956922
P7    P     P_3+3 0.513460 0.277347 0.440505 0.959275
P8    P     P_3+3 0.554936 0.390048 0.720580 0.954312
Br1   Br    Br    0.534455 0.909650 0.250720 -0.601800
Br2   Br    Br    0.922557 0.139138 0.814980 -0.566299

loop_
_geom_bond_atom_site_label_1
_geom_bond_atom_site_label_2
_ccdc_geom_bond_type
O8    P7    S    
C19   C24   A    
C24   H39   S    
C38   H3    S    
C39   C40   S    
C33   C37   A    
N1    N2    A    
C23   H23   S    
C7    H28   S    
Ba1   O1    S    
N3    N4    A    
C17   N3    A    
C5    C6    S    
C13   C17   S    
Ba2   O14   S    
C35   C36   A    
O15   P7    S    
O7    P4    S    
C16   C22   S    
C33   P2    S    
C33   C35   A    
C12   H43   S    
C40   H9    S    
C28   C29   A    
Ba1   O12   S    
Ba2   O4    S    
C42   H15   S    
C13   C14   S    
Ba2   O9    S    
C28   C36   S    
C25   H46   S    
Ba1   Ba2   S    
C8    H31   S    
C4    H20   S    
O5    P4    S    
C5    H24   S    
C34   H49   S    
C15   P1    S    
C4    H21   S    
Ba2   O12   S    
C18   C22   A    
C42   H14   S    
C14   C15   D    
C6    H27   S    
C6    Br2   S    
O3    P3    S    
C21   C22   A    
C2    O21   S    
Ba1   O18   S    
O14   P7    D    
C7    C8    S    
Ba1   O5    S    
C27   H41   S    
C26   P5    S    
C40   H7    S    
O21   P6    S    
C34   O7    S    
C12   C23   S    
O6    P8    S    
C20   P8    S    
C16   N1    A    
O16   P8    D    
C7    H29   S    
C39   H5    S    
C30   P7    S    
O19   P6    D    
C8    H33   S    
O11   P5    S    
C2    H1    S    
C9    H38   S    
Ba2   O13   S    
C23   H47   S    
C18   H36   S    
C32   C37   A    
C7    O17   S    
C35   H42   S    
C34   C38   S    
C41   O2    S    
C12   O3    S    
Ba2   O8    S    
C5    O11   S    
O2    P2    S    
Ba1   O22   S    
C12   H32   S    
C4    H19   S    
C38   H2    S    
C41   C42   S    
Ba1   P1    S    
O23   P3    S    
C27   C28   A    
O12   P1    S    
C1    H12   S    
C41   H10   S    
C29   C30   A    
Ba2   O6    S    
C42   H13   S    
C2    H16   S    
C31   C32   A    
C3    H17   S    
C10   C11   S    
Ba2   P4    S    
C41   H11   S    
C11   C13   D    
O18   P6    S    
C39   O20   S    
C1    Br1   S    
C1    H22   S    
C1    C2    S    
C26   C27   A    
C39   H6    S    
O1    P1    D    
C38   H4    S    
C11   H34   S    
C9    C15   D    
C23   H48   S    
C29   H44   S    
C21   H37   S    
C3    O15   S    
O13   P2    S    
O4    P4    D    
C5    H25   S    
C9    C10   S    
C10   P6    S    
Ba1   O8    S    
C6    H26   S    
C31   C36   A    
C14   H35   S    
O24   P3    D    
Ba1   P2    S    
O9    P5    S    
Ba1   O13   S    
C8    H30   S    
C3    C4    S    
Ba2   O5    S    
C32   P3    S    
C3    H18   S    
O20   P1    S    
O10   P5    D    
C31   H40   S    
Ba1   O23   S    
C25   C30   A    
C34   H50   S    
C18   C19   A    
C20   C24   A    
C25   C26   A    
C20   C21   A    
C16   N4    A    
C19   P4    S    
C37   H45   S    
C17   N2    A    
O22   P2    D    
C40   H8    S    
O17   P8    S    
