data_mof_unit_48530.cif
_audit_creation_date              2012-12-10T17:35:38-0500
_audit_creation_method            fapswitch 2.2
_symmetry_space_group_name_H-M    P1
_symmetry_Int_Tables_number       1
_space_group_crystal_system       triclinic
_cell_length_a                    11.011429
_cell_length_b                    12.525427
_cell_length_c                    13.515005
_cell_angle_alpha                 117.204698
_cell_angle_beta                  74.572115
_cell_angle_gamma                 102.044281
_cell_volume                      1589.8302222

loop_
_atom_site_label
_atom_site_type_symbol
_atom_type_description
_atom_site_fract_x
_atom_site_fract_y
_atom_site_fract_z
_atom_type_partial_charge
C1    C     C_R   0.511067 0.854356 0.287306 0.917360
C2    C     C_R   0.534270 0.559882 0.013451 0.102129
C3    C     C_R   0.491782 0.640819 0.128644 0.031144
C4    C     C_R   0.739901 0.002551 0.502761 0.887073
C5    C     C_R   0.504175 0.431718 0.978955 -0.023272
C6    C     C_R   0.429811 0.388459 0.059830 0.024033
C7    C     C_R   0.383652 0.470648 0.169375 -0.146352
C8    C     C_R   0.412238 0.592389 0.202151 -0.089468
C9    C     C_R   0.537921 0.344240 0.866069 0.558828
C10   C     C_R   0.413948 0.184371 0.913251 -0.308091
C11   C     C_R   0.521383 0.768645 0.165075 -0.239133
C12   C     C_3   0.126118 0.000827 0.494255 -0.144406
C13   C     C_R   0.690600 0.345514 0.323240 -0.179603
C14   C     C_R   0.326451 0.765602 0.648210 0.806071
C15   C     C_R   0.292602 0.680391 0.691429 -0.369969
C16   C     C_R   0.487881 0.144297 0.711865 0.873812
C17   C     C_R   0.360482 0.580226 0.647027 -0.023055
C18   C     C_R   0.456101 0.556221 0.545874 -0.089333
C19   C     C_R   0.488981 0.650836 0.506672 -0.039249
C20   C     C_R   0.523587 0.447432 0.482085 -0.133482
C21   C     C_R   0.621055 0.443197 0.387825 -0.189670
C22   C     C_R   0.647604 0.533872 0.352403 0.553730
C23   C     C_3   0.039792 0.010713 0.612082 -0.213086
C24   C     C_R   0.587279 0.635550 0.411762 0.573407
C25   C     C_R   0.498557 0.339208 0.499793 0.842574
C26   C     C_R   0.664028 0.245386 0.344840 0.037719
C27   C     C_R   0.261757 0.998697 0.497349 0.776724
C28   C     C_3   0.966709 0.115360 0.475138 -0.216428
C29   C     C_3   0.109016 0.112640 0.476367 -0.251328
C30   C     C_3   0.901251 0.028129 0.619436 -0.461125
C31   C     C_3   0.928676 0.869047 0.411969 -0.174285
C32   C     C_3   0.880651 0.002491 0.499082 -0.103209
C33   C     C_2   0.927468 0.240696 0.569566 0.904535
C34   C     C_3   0.077760 0.879266 0.401072 -0.307972
C35   C     C_2   0.336350 0.211494 0.109752 0.895203
C36   C     C_2   0.960267 0.117507 0.363713 0.920636
C37   C     C_2   0.725749 0.138295 0.254025 0.999561
C38   C     C_2   0.337431 0.518286 0.721343 0.999043
C39   C     C_2   0.206894 0.146576 0.387345 0.963935
C40   C     C_2   0.090457 0.104626 0.716681 0.870067
C41   C     C_2   0.874380 0.768764 0.454157 0.864158
C42   C     C_2   0.888465 0.813693 0.295925 1.014078
C43   C     C_2   0.154933 0.837646 0.280384 0.953707
C44   C     C_R   0.394054 0.263391 0.027370 -0.020033
C45   C     C_R   0.480917 0.225210 0.832319 -0.173537
C46   C     C_R   0.570432 0.813145 0.082564 0.612824
C47   C     C_R   0.609079 0.735206 0.970345 -0.226235
C48   C     C_R   0.596556 0.611595 0.936802 -0.189333
Cu1   Cu    Cu3+1 0.529690 0.098270 0.475420 1.129799
Cu2   Cu    Cu3+1 0.470310 0.901730 0.524580 1.087913
F1    F     F_    0.627173 0.370074 0.787403 -0.632128
F2    F     F_    0.579990 0.932331 0.109399 -0.645282
F3    F     F_    0.736639 0.525619 0.257893 -0.586694
F4    F     F_    0.389247 0.315480 0.563508 -0.652223
F5    F     F_    0.262874 0.864671 0.698722 -0.619081
F6    F     F_    0.638353 0.720110 0.375399 -0.619079
H1    H     H_    0.098496 0.811935 0.425181 0.173992
H2    H     H_    0.217961 0.697994 0.766262 0.205513
H3    H     H_    0.133376 0.189320 0.554523 0.219758
H4    H     H_    0.879124 0.119217 0.684059 0.220149
H5    H     H_    0.974651 0.421182 0.641991 0.366328
H6    H     H_    0.217508 0.080784 0.143238 0.376383
H7    H     H_    0.989516 0.035917 0.192717 0.358217
H8    H     H_    0.810119 0.054163 0.089173 0.358178
H9    H     H_    0.409462 0.453710 0.801685 0.342435
H10   H     H_    0.368011 0.108384 0.267199 0.373905
H11   H     H_    0.159809 0.136538 0.852641 0.347396
H12   H     H_    0.833965 0.973931 0.659493 0.227772
H13   H     H_    0.885715 0.598981 0.430282 0.345793
H14   H     H_    0.782615 0.816047 0.196376 0.345932
H15   H     H_    0.253341 0.707288 0.150055 0.343915
H16   H     H_    0.035901 0.922855 0.615515 0.193421
H17   H     H_    0.377747 0.090110 0.887402 0.249303
H18   H     H_    0.316787 0.442611 0.229926 0.190088
H19   H     H_    0.631134 0.561083 0.848312 0.271304
H20   H     H_    0.650048 0.771142 0.908091 0.194545
H21   H     H_    0.359173 0.645870 0.283964 0.202272
H22   H     H_    0.764745 0.345246 0.251798 0.256446
N1    N     N_R   0.574690 0.246280 0.438200 -0.271632
N2    N     N_R   0.426100 0.754320 0.561190 -0.240784
O1    O     O_R   0.537340 0.972510 0.318130 -0.508307
O2    O     O_R   0.010437 0.344838 0.579092 -0.674629
O3    O     O_2   0.370834 0.254315 0.200227 -0.591222
O4    O     O_R   0.247369 0.110114 0.081539 -0.732552
O5    O     O_2   0.940821 0.210535 0.363936 -0.569618
O6    O     O_R   0.991081 0.020195 0.259582 -0.711072
O7    O     O_2   0.747775 0.060614 0.274448 -0.531599
O8    O     O_R   0.764986 0.128736 0.143007 -0.726036
O9    O     O_2   0.228844 0.489556 0.760643 -0.518712
O10   O     O_R   0.439173 0.496485 0.750234 -0.746572
O11   O     O_2   0.213542 0.248190 0.393833 -0.506244
O12   O     O_R   0.487200 0.806530 0.359650 -0.553885
O13   O     O_R   0.294389 0.068139 0.305157 -0.720625
O14   O     O_2   0.094681 0.212504 0.743339 -0.547024
O15   O     O_R   0.129306 0.066607 0.784783 -0.679097
O16   O     O_2   0.790091 0.782769 0.537287 -0.601882
O17   O     O_R   0.924045 0.656803 0.394101 -0.686256
O18   O     O_2   0.927347 0.718821 0.221060 -0.471396
O19   O     O_R   0.799996 0.862963 0.276155 -0.705439
O20   O     O_2   0.151587 0.883408 0.218874 -0.506303
O21   O     O_R   0.216902 0.734202 0.234093 -0.776081
O22   O     O_R   0.707380 0.082980 0.479220 -0.538181
O23   O     O_R   0.657240 0.917000 0.520740 -0.501101
O24   O     O_R   0.512800 0.193470 0.640350 -0.491109
O25   O     O_R   0.462660 0.027490 0.681870 -0.562673
O26   O     O_R   0.342760 0.083000 0.479260 -0.539608
O27   O     O_R   0.292620 0.917020 0.520780 -0.556417
O28   O     O_2   0.823414 0.251875 0.632247 -0.530911

loop_
_geom_bond_atom_site_label_1
_geom_bond_atom_site_label_2
_ccdc_geom_bond_type
Cu1   O26   S    
C9    C45   A    
C31   C42   S    
C12   C29   S    
C37   O8    S    
C9    F1    S    
Cu1   O24   S    
C7    C8    A    
C38   O9    D    
C28   C29   S    
C47   H20   S    
H5    O2    S    
C42   O18   D    
C5    C6    A    
C10   H17   S    
C41   O16   D    
C20   C25   A    
C1    O1    A    
C23   C40   S    
C4    O23   A    
C46   F2    S    
C18   C19   A    
Cu1   O1    S    
C39   O13   S    
C46   C47   A    
C16   O24   A    
C29   H3    S    
C30   H4    S    
C34   H1    S    
C14   N2    A    
C7    H18   S    
C33   O2    S    
C18   C20   A    
C14   F5    S    
H15   O21   S    
Cu2   O23   S    
C6    C44   A    
C21   C22   A    
H11   O15   S    
C48   H19   S    
C33   O28   D    
C39   O11   D    
C22   F3    S    
H9    O10   S    
C12   C27   S    
C10   C44   A    
C23   C30   S    
C28   C32   S    
C25   F4    S    
C3    C8    A    
Cu1   O22   S    
C35   O3    D    
C27   O26   A    
C36   O6    S    
Cu1   N1    S    
C4    O22   A    
C43   O21   S    
C5    C9    A    
Cu2   O25   S    
C47   C48   A    
C12   C23   S    
C27   O27   A    
C29   C39   S    
C10   C45   A    
C17   C18   A    
C31   C34   S    
C13   C21   A    
C43   O20   D    
C35   C44   S    
C4    C32   S    
C16   O25   A    
H10   O13   S    
Cu2   O12   S    
C28   C33   S    
C1    O12   A    
H7    O6    S    
C8    H21   S    
C15   H2    S    
C22   C24   A    
C13   C26   A    
C2    C5    A    
C40   O15   S    
C12   C34   S    
H14   O19   S    
C15   C17   A    
H6    O4    S    
C13   H22   S    
C31   C41   S    
C25   N1    A    
C23   H16   S    
C37   O7    D    
C31   C32   S    
C34   C43   S    
C40   O14   D    
Cu2   N2    S    
C16   C45   S    
C35   O4    S    
C26   C37   S    
C6    C7    A    
C36   O5    D    
C24   F6    S    
C38   O10   S    
C26   N1    A    
C2    C48   A    
C2    C3    A    
C42   O19   S    
C30   C32   S    
Cu2   O27   S    
C19   C24   A    
C41   O17   S    
C17   C38   S    
C19   N2    A    
C3    C11   A    
C20   C21   A    
C28   C36   S    
Cu1   Cu2   S    
C14   C15   A    
C11   C46   A    
C1    C11   S    
H8    O8    S    
C30   H12   S    
H13   O17   S    
