data_mof_unit_38249.cif
_audit_creation_date              2012-12-10T17:24:16-0500
_audit_creation_method            fapswitch 2.2
_symmetry_space_group_name_H-M    P1
_symmetry_Int_Tables_number       1
_space_group_crystal_system       triclinic
_cell_length_a                    19.391465
_cell_length_b                    10.859395
_cell_length_c                    9.635456
_cell_angle_alpha                 91.001383
_cell_angle_beta                  89.646595
_cell_angle_gamma                 93.569437
_cell_volume                      2024.75858228

loop_
_atom_site_label
_atom_site_type_symbol
_atom_type_description
_atom_site_fract_x
_atom_site_fract_y
_atom_site_fract_z
_atom_type_partial_charge
C1    C     C_R   0.502670 0.263527 0.498618 0.800560
C2    C     C_R   0.289337 0.506438 0.496812 -0.314451
C3    C     C_R   0.929136 0.529629 0.512581 0.538704
C4    C     C_R   0.068963 0.537626 0.508222 0.449285
C5    C     C_R   0.814555 0.443100 0.603207 0.376209
C6    C     C_R   0.742312 0.436694 0.597920 -0.186723
C7    C     C_R   0.707881 0.505891 0.502484 -0.137924
C8    C     C_R   0.745738 0.586485 0.416028 -0.229420
C9    C     C_R   0.817688 0.598775 0.421799 0.394034
C10   C     C_R   0.853108 0.524574 0.513839 -0.199379
C11   C     C_R   0.592704 0.141825 0.686082 -0.137441
C12   C     C_R   0.366835 0.500735 0.499451 0.876031
C13   C     C_R   0.619504 0.088542 0.802355 -0.111737
C14   C     C_R   0.597429 0.968887 0.835720 -0.164183
C15   C     C_R   0.553673 0.898790 0.746834 -0.190525
C16   C     C_R   0.532051 0.946095 0.619563 0.111005
C17   C     C_R   0.544714 0.073926 0.599738 0.097900
C18   C     C_R   0.507826 0.131093 0.496231 -0.093497
C19   C     C_R   0.468755 0.060658 0.399306 -0.216934
C20   C     C_R   0.465149 0.933431 0.405529 -0.122977
C21   C     C_R   0.497279 0.873696 0.512549 -0.063258
C22   C     C_R   0.612304 0.625392 0.138889 0.391311
C23   C     C_R   0.498006 0.738023 0.503108 0.867769
C24   C     C_R   0.673836 0.612561 0.064425 -0.325324
C25   C     C_R   0.671830 0.632808 0.921854 0.454573
C26   C     C_R   0.607582 0.627867 0.857636 -0.201168
C27   C     C_R   0.549917 0.571298 0.925716 -0.012583
C28   C     C_R   0.551201 0.570320 0.074822 0.105217
C29   C     C_R   0.456844 0.423104 0.073612 -0.095819
C30   C     C_R   0.460323 0.416315 0.925315 0.632025
C31   C     C_R   0.632180 0.500612 0.500098 0.829815
C32   C     C_R   0.247459 0.456928 0.607345 0.310599
C33   C     C_R   0.177086 0.477021 0.614355 -0.150908
C34   C     C_R   0.144471 0.533116 0.506759 -0.095585
C35   C     C_R   0.182887 0.572944 0.391899 -0.178034
C36   C     C_R   0.254513 0.561880 0.384605 0.392170
Cu1   Cu    Cu3+1 0.500000 0.499990 0.640660 1.022495
Cu2   Cu    Cu3+1 0.500000 0.500010 0.359340 1.028779
H1    H     H_    0.609544 0.236371 0.664899 0.134505
H2    H     H_    0.654758 0.141925 0.869999 0.156975
H3    H     H_    0.613832 0.930220 0.931134 0.203933
H4    H     H_    0.533334 0.812745 0.786618 0.181536
H5    H     H_    0.436107 0.881845 0.326703 0.219730
H6    H     H_    0.421618 0.360542 0.129460 0.170358
H7    H     H_    0.723204 0.625613 0.115635 0.203867
H8    H     H_    0.605570 0.662064 0.754539 0.209492
H9    H     H_    0.146219 0.440918 0.700316 0.218305
H10   H     H_    0.156115 0.612353 0.306707 0.215430
H11   H     H_    0.712540 0.376322 0.667029 0.158132
H12   H     H_    0.718881 0.643793 0.347711 0.216163
H13   H     H_    0.440281 0.104225 0.319200 0.159447
N1    N     N_R   0.032517 0.517081 0.389499 -0.180653
N2    N     N_R   0.963841 0.512724 0.391777 -0.135686
N3    N     N_R   0.965564 0.551570 0.631120 -0.126270
N4    N     N_R   0.034279 0.554450 0.629204 -0.175792
N5    N     N_R   0.500660 0.501210 0.147910 -0.228440
N6    N     N_R   0.500680 0.501290 0.852040 -0.225659
O1    O     O_R   0.499990 0.319640 0.618810 -0.538017
O2    O     O_R   0.500000 0.319660 0.381240 -0.604655
O3    O     O_R   0.400140 0.499970 0.618820 -0.494044
O4    O     O_R   0.400150 0.500000 0.381250 -0.524637
O5    O     O_R   0.500000 0.680340 0.618760 -0.641368
O6    O     O_R   0.500010 0.680360 0.381190 -0.479553
O7    O     O_R   0.599850 0.500000 0.618750 -0.610577
O8    O     O_R   0.599860 0.500030 0.381180 -0.588236
S1    S     S_3+6 0.276982 0.354262 0.729779 0.078467
O9    O     O_2   0.308737 0.429654 0.847575 -0.175990
O10   O     O_2   0.218076 0.272890 0.785903 -0.244627
O11   O     O_3   0.334745 0.264299 0.655014 -0.491660
H14   H     H_    0.309993 0.222794 0.575843 0.329370
S2    S     S_3+6 0.612189 0.779465 0.204492 -0.011558
O12   O     O_2   0.623694 0.784285 0.358349 -0.297200
O13   O     O_2   0.670013 0.857997 0.139775 -0.320543
O14   O     O_3   0.536836 0.837977 0.163876 -0.571162
H15   H     H_    0.547329 0.928110 0.156973 0.360817
O15   O     O_3   0.731344 0.650186 0.842963 -0.582648
C37   C     C_3   0.762498 0.768524 0.871407 -0.097957
H16   H     H_    0.783401 0.775532 0.978571 0.219495
H17   H     H_    0.726074 0.841840 0.853843 0.157979
H18   H     H_    0.806660 0.784878 0.798928 0.205715
O16   O     O_3   0.425422 0.321148 0.852932 -0.469162
C38   C     C_3   0.441605 0.205384 0.904514 -0.192085
H19   H     H_    0.408874 0.180810 0.996096 0.154550
H20   H     H_    0.497391 0.201929 0.930324 0.101046
H21   H     H_    0.429851 0.133956 0.822905 0.215762
S3    S     S_3+6 0.294298 0.608528 0.225750 0.041490
O17   O     O_2   0.312627 0.494775 0.146531 -0.254826
O18   O     O_2   0.245831 0.677733 0.139317 -0.247792
O19   O     O_3   0.365775 0.700062 0.254278 -0.546270
H22   H     H_    0.390481 0.702766 0.163953 0.386712
S4    S     S_3+6 0.854141 0.344942 0.719915 0.070630
O20   O     O_2   0.912080 0.283186 0.648104 -0.214518
O21   O     O_2   0.882974 0.420249 0.841009 -0.221114
O22   O     O_3   0.796602 0.235282 0.778611 -0.508320
H23   H     H_    0.773510 0.273906 0.858821 0.346687
S5    S     S_3+6 0.860771 0.711752 0.315907 0.034489
O23   O     O_2   0.885746 0.649919 0.185854 -0.251756
O24   O     O_2   0.812178 0.808013 0.277237 -0.241067
O25   O     O_3   0.928558 0.780796 0.400915 -0.504538
H24   H     H_    0.953692 0.831943 0.330552 0.396685

loop_
_geom_bond_atom_site_label_1
_geom_bond_atom_site_label_2
_ccdc_geom_bond_type
S1    O10   D    
C30   N6    A    
C16   C21   A    
C3    N2    A    
C19   C20   A    
C2    C12   S    
C20   H5    S    
O16   C38   S    
C28   N5    A    
C7    C8    A    
C37   H16   S    
C1    C18   S    
Cu1   Cu2   S    
C4    N1    A    
C24   H7    S    
C18   C19   A    
C1    O2    A    
C5    C6    A    
C3    N3    A    
S3    O18   D    
S1    O11   S    
C15   C16   A    
S5    O25   S    
C2    C32   A    
C34   C35   A    
C13   H2    S    
C23   O5    A    
C35   C36   A    
C8    C9    A    
S5    O24   D    
C9    C10   A    
Cu1   O1    S    
Cu2   O4    S    
C23   O6    A    
S1    O9    D    
C22   C28   A    
C13   C14   A    
O22   H23   S    
C35   H10   S    
Cu1   O5    S    
C37   H17   S    
C4    C34   S    
C7    C31   S    
O14   H15   S    
C24   C25   A    
C27   N6    A    
S4    O20   D    
S2    O13   D    
S3    O17   D    
C16   C17   A    
C36   S3    S    
C25   C26   A    
C29   C30   A    
S4    O21   D    
O25   H24   S    
Cu2   O8    S    
S5    O23   D    
C17   C18   A    
C26   C27   A    
O15   C37   S    
C11   H1    S    
C9    S5    S    
C5    S4    S    
C14   H3    S    
C38   H20   S    
C21   C23   S    
C29   H6    S    
C33   H9    S    
C22   C24   A    
C8    H12   S    
C22   S2    S    
Cu1   O7    S    
N1    N2    A    
C32   S1    S    
Cu2   O6    S    
C37   H18   S    
C2    C36   A    
C31   O8    A    
N3    N4    A    
C11   C17   A    
C31   O7    A    
C15   H4    S    
S3    O19   S    
S2    O14   S    
C6    C7    A    
C29   N5    A    
C38   H21   S    
C25   O15   S    
C32   C33   A    
C30   O16   S    
C5    C10   A    
C4    N4    A    
C3    C10   S    
C1    O1    A    
S4    O22   S    
C12   O4    A    
C11   C13   A    
C33   C34   A    
C6    H11   S    
O11   H14   S    
Cu1   O3    S    
C26   H8    S    
Cu2   O2    S    
C12   O3    A    
C19   H13   S    
S2    O12   D    
Cu2   N5    S    
C20   C21   A    
C38   H19   S    
C27   C28   A    
C14   C15   A    
O19   H22   S    
Cu1   N6    S    
