data_mof_unit_26455.cif
_audit_creation_date              2013-03-05T16:12:11-0500
_audit_creation_method            fapswitch 2.2
_symmetry_space_group_name_H-M    P1
_symmetry_Int_Tables_number       1
_space_group_crystal_system       triclinic
_cell_length_a                    10.723999
_cell_length_b                    9.403735
_cell_length_c                    27.811056
_cell_angle_alpha                 89.941874
_cell_angle_beta                  90.002913
_cell_angle_gamma                 90.013189
_cell_volume                      2804.62235197

loop_
_atom_site_label
_atom_site_type_symbol
_atom_site_description
_atom_site_fract_x
_atom_site_fract_y
_atom_site_fract_z
_atom_type_partial_charge
O1    O     O_R   0.317570 0.620260 0.500030 -0.595963
O2    O     O_R   0.317570 0.379740 0.500030 -0.596313
C1    C     C_R   0.259628 0.499789 0.500065 0.766788
O3    O     O_R   0.499900 0.620250 0.430280 -0.595466
O4    O     O_R   0.499900 0.379750 0.430280 -0.591084
C2    C     C_R   0.499966 0.500148 0.407443 0.815273
Cu1   Cu    Cu3+1 0.499860 0.642410 0.500020 0.894285
Cu2   Cu    Cu3+1 0.499860 0.357590 0.500020 0.895224
O5    O     O_R   0.682190 0.620260 0.500010 -0.595714
O6    O     O_R   0.682190 0.379740 0.500010 -0.596161
O7    O     O_R   0.499860 0.620280 0.569750 -0.589792
O8    O     O_R   0.499860 0.379720 0.569750 -0.589888
C3    C     C_R   0.740133 0.499808 0.500049 0.766554
C4    C     C_R   0.499867 0.499919 0.592569 0.802974
C5    C     C_R   0.388941 0.508892 0.178096 0.520268
O9    O     O_2   0.281341 0.519287 0.203025 -0.538956
N1    N     N_R   0.499829 0.499969 0.202120 -0.472289
C6    C     C_R   0.610461 0.487630 0.178109 0.521124
C7    C     C_R   0.505799 0.633626 0.278660 0.187560
C8    C     C_R   0.505500 0.630644 0.329286 -0.207872
C9    C     C_R   0.495015 0.372970 0.328793 -0.229803
C10   C     C_R   0.494852 0.374265 0.278800 -0.119934
C11   C     C_R   0.500086 0.503054 0.253664 0.312757
C12   C     C_R   0.499569 0.496435 0.101988 -0.043904
C13   C     C_R   0.386752 0.507917 0.127629 -0.018035
C14   C     C_R   0.274452 0.517739 0.102515 -0.147845
C15   C     C_R   0.612430 0.485629 0.127644 -0.018368
C16   C     C_R   0.500151 0.501047 0.354469 -0.090809
H1    H     H_    0.490839 0.271652 0.347283 0.151011
H2    H     H_    0.490577 0.274727 0.259335 0.138585
H3    H     H_    0.186281 0.524790 0.121400 0.186765
C17   C     C_R   0.499887 0.499611 0.645501 -0.042458
C18   C     C_R   0.385655 0.516239 0.974479 0.043212
C19   C     C_R   0.613384 0.475490 0.974488 0.043211
C20   C     C_R   0.499545 0.496121 0.949234 0.067232
C21   C     C_R   0.276069 0.542468 0.947465 -0.205977
C22   C     C_R   0.277668 0.544540 0.897546 -0.146552
C23   C     C_R   0.388376 0.521019 0.872428 -0.020066
C24   C     C_R   0.499611 0.496750 0.898079 -0.044036
C25   C     C_R   0.610926 0.473194 0.872427 -0.020053
C26   C     C_R   0.608916 0.474097 0.821946 0.532778
N2    N     N_R   0.499789 0.498260 0.797876 -0.469643
C27   C     C_R   0.390568 0.521651 0.821947 0.532816
C28   C     C_R   0.510753 0.370717 0.721094 -0.104626
C29   C     C_R   0.510494 0.370922 0.670963 -0.227848
C30   C     C_R   0.489271 0.627893 0.671104 -0.227991
C31   C     C_R   0.488960 0.627261 0.721247 -0.104198
C32   C     C_R   0.499844 0.498767 0.746351 0.364119
O10   O     O_2   0.284338 0.544484 0.797076 -0.536779
C33   C     C_R   0.385007 0.510714 0.025581 0.043432
C34   C     C_R   0.499526 0.495852 0.050838 0.066018
C35   C     C_R   0.614013 0.480609 0.025596 0.043514
C36   C     C_R   0.273271 0.518849 0.052591 -0.205749
H4    H     H_    0.518939 0.270500 0.652206 0.145747
H5    H     H_    0.519017 0.271072 0.740383 0.136019
H6    H     H_    0.191093 0.564959 0.878668 0.187414
H7    H     H_    0.187030 0.564443 0.963664 0.137010
H8    H     H_    0.182261 0.524046 0.036388 0.135363
O11   O     O_2   0.718103 0.477815 0.203049 -0.538107
C37   C     C_R   0.724618 0.474286 0.102540 -0.147975
H9    H     H_    0.509620 0.728513 0.349519 0.157549
H10   H     H_    0.812804 0.467401 0.121431 0.186793
C38   C     C_R   0.723004 0.449709 0.947466 -0.205952
C39   C     C_R   0.721534 0.448862 0.897543 -0.146614
O12   O     O_2   0.715227 0.451952 0.797074 -0.536812
C40   C     C_R   0.725722 0.472055 0.052621 -0.205646
H11   H     H_    0.812014 0.427402 0.963650 0.137007
H12   H     H_    0.480832 0.728594 0.652447 0.145760
H13   H     H_    0.808155 0.428885 0.878659 0.187376
H14   H     H_    0.480662 0.726575 0.740657 0.136095
H15   H     H_    0.816697 0.465927 0.036440 0.135338
C41   C     C_3   0.071867 0.577250 0.545249 -0.375997
C42   C     C_3   0.071201 0.344142 0.500610 -0.377005
H16   H     H_    0.106251 0.688941 0.545854 0.160457
H17   H     H_    0.105291 0.285176 0.468484 0.162576
H18   H     H_    0.106712 0.524060 0.578405 0.158881
H19   H     H_    0.105335 0.286885 0.533121 0.160470
C43   C     C_3   0.927928 0.577292 0.545239 -0.375886
C44   C     C_3   0.928501 0.344158 0.500620 -0.376670
H20   H     H_    0.893021 0.524159 0.578396 0.158813
H21   H     H_    0.894387 0.286970 0.533150 0.160232
H22   H     H_    0.893637 0.689006 0.545825 0.160449
H23   H     H_    0.894339 0.285136 0.468512 0.162861
H24   H     H_    0.106235 0.686666 0.453187 0.162239
H25   H     H_    0.106727 0.520235 0.421660 0.159234
H26   H     H_    0.893600 0.686657 0.453163 0.162087
H27   H     H_    0.893076 0.520198 0.421654 0.159223
C45   C     C_3   0.071863 0.575017 0.454477 -0.375754
C46   C     C_3   0.121704 0.499070 0.500103 0.157410
C47   C     C_3   0.878061 0.499099 0.500095 0.157557
C48   C     C_3   0.927941 0.575010 0.454469 -0.376348
C49   C     C_3   0.610660 0.083785 0.526520 -0.188311
C50   C     C_3   0.610623 0.916090 0.526552 -0.187658
H28   H     H_    0.613382 0.123543 0.564157 0.138548
H29   H     H_    0.613147 0.876281 0.564212 0.140040
H30   H     H_    0.697910 0.120926 0.509011 0.138315
H31   H     H_    0.697958 0.878865 0.509131 0.138703
H32   H     H_    0.382960 0.123448 0.563000 0.140052
H33   H     H_    0.382928 0.876103 0.562992 0.138501
C51   C     C_3   0.388190 0.083706 0.525399 -0.188514
C52   C     C_3   0.388164 0.916069 0.525390 -0.187720
C53   C     C_3   0.501928 0.083744 0.451566 -0.185438
C54   C     C_3   0.501996 0.916505 0.451566 -0.187226
N3    N     N_3   0.500250 0.143650 0.501060 -0.112198
N4    N     N_3   0.500250 0.856350 0.501060 -0.111969
H34   H     H_    0.419253 0.122346 0.431196 0.139052
H35   H     H_    0.419421 0.877860 0.431164 0.139606
H36   H     H_    0.585783 0.122666 0.431993 0.140424
H37   H     H_    0.585935 0.877804 0.432028 0.138354
H38   H     H_    0.302147 0.120801 0.507015 0.138384
H39   H     H_    0.302086 0.878984 0.507017 0.139005
C55   C     C_3   0.512274 0.771674 0.250082 -0.369460
C56   C     C_3   0.520305 0.908434 0.279699 -0.874550
H40   H     H_    0.436069 0.920876 0.302559 0.248049
H41   H     H_    0.605556 0.908257 0.302393 0.251628
H42   H     H_    0.525469 0.001185 0.255041 0.251639
H43   H     H_    0.595347 0.767740 0.226232 0.218932
H44   H     H_    0.428268 0.779173 0.226829 0.221287

loop_
_geom_bond_atom_site_label_1
_geom_bond_atom_site_label_2
_geom_bond_distance
_ccdc_geom_bond_type
C55   H44   1.111140 S    
C51   H38   1.110968 S    
H27   C48   1.113174 S    
C3    C47   1.479148 S    
C17   C29   1.406129 A    
C20   C24   1.422670 A    
C7    C8    1.408228 A    
C12   C15   1.408591 A    
C49   H30   1.110921 S    
C41   H18   1.113192 S    
Cu1   Cu2   2.678371 S    
C7    C55   1.523029 S    
C43   C47   1.550664 S    
Cu1   O7    1.950189 S    
N1    C11   1.433821 S    
C21   C22   1.388516 A    
C15   C37   1.395191 A    
O4    C2    1.297605 A    
O7    C4    1.297051 A    
C43   H20   1.113159 S    
C5    C13   1.403761 A    
C5    O9    1.349810 S    
C51   N3    1.489668 S    
C18   C21   1.416350 A    
C37   H10   1.083736 S    
C19   C20   1.421638 A    
C26   N2    1.367121 A    
C8    H9    1.080094 S    
O5    C3    1.292071 A    
C49   C50   1.576959 S    
C44   C47   1.554372 S    
C41   C43   1.543600 S    
C50   N4    1.489840 S    
C22   H6    1.083662 S    
C2    C16   1.473283 S    
C31   C32   1.399805 A    
Cu1   N4    2.012076 S    
C53   H36   1.112837 S    
C56   H42   1.110346 S    
C12   C34   1.422571 A    
C37   C40   1.388534 A    
C14   H3    1.083729 S    
C50   H29   1.112243 S    
C9    C10   1.390395 A    
C42   H17   1.113788 S    
O3    Cu1   1.950916 S    
C55   C56   1.530338 S    
C33   C34   1.421597 A    
C52   N4    1.489700 S    
C38   H11   1.075917 S    
C33   C36   1.416389 A    
C34   C35   1.421657 A    
C12   C13   1.408616 A    
O3    C2    1.296294 A    
C21   H7    1.075976 S    
C24   C25   1.408395 A    
C44   H21   1.113758 S    
C27   O10   1.349847 S    
C26   O12   1.349852 S    
C8    C16   1.406144 A    
C18   C33   1.422120 A    
C9    H1    1.083132 S    
O1    C1    1.291971 A    
C7    C11   1.412931 A    
C31   H14   1.082880 S    
C30   H12   1.083145 S    
C22   C23   1.395334 A    
C43   H22   1.113250 S    
C40   H15   1.076008 S    
C45   C48   1.543427 S    
Cu2   O8    1.950609 S    
C49   H28   1.112220 S    
N1    C6    1.366480 A    
C42   C44   1.530314 S    
C54   N4    1.487783 S    
N2    C32   1.432973 S    
C39   H13   1.083666 S    
C53   N3    1.487945 S    
Cu2   N3    2.012019 S    
C41   H16   1.113219 S    
C25   C26   1.404111 A    
H33   C52   1.112302 S    
C9    C16   1.401873 A    
O8    C4    1.296848 A    
C29   H4    1.083132 S    
H32   C51   1.112288 S    
N2    C27   1.367100 A    
C14   C36   1.388522 A    
C50   H31   1.111300 S    
C35   C40   1.416448 A    
C28   C29   1.394201 A    
C56   H40   1.110937 S    
H25   C45   1.113208 S    
Cu1   O5    1.966417 S    
C30   C31   1.394538 A    
C10   H2    1.082731 S    
O1    Cu1   1.965897 S    
C17   C30   1.406056 A    
O2    Cu2   1.965992 S    
C6    C15   1.403804 A    
H24   C45   1.113209 S    
C4    C17   1.472100 S    
O6    C3    1.288659 A    
O4    Cu2   1.950495 S    
C54   H35   1.112823 S    
C36   H8    1.076064 S    
C5    N1    1.366523 A    
C52   H39   1.111295 S    
C19   C35   1.422244 A    
C25   C39   1.395334 A    
C54   H37   1.112918 S    
C55   H43   1.111354 S    
C1    C46   1.479110 S    
O2    C1    1.288740 A    
C13   C14   1.395204 A    
C42   C46   1.554252 S    
C23   C27   1.404132 A    
C44   H23   1.113778 S    
C41   C46   1.550714 S    
C28   H5    1.082899 S    
C47   C48   1.550448 S    
C23   C24   1.408431 A    
C19   C38   1.416367 A    
C18   C20   1.421584 A    
C53   H34   1.112853 S    
C53   C54   1.572673 S    
C49   N3    1.489852 S    
C38   C39   1.388528 A    
C6    O11   1.349795 S    
C45   C46   1.550514 S    
Cu2   O6    1.966322 S    
H26   C48   1.113257 S    
C42   H19   1.113779 S    
C10   C11   1.398873 A    
C51   C52   1.576413 S    
C28   C32   1.399578 A    
C56   H41   1.110889 S    
