data_mof_unit_28893.cif
_audit_creation_date              2012-10-26T21:21:37-0400
_audit_creation_method            fapswitch 2.2
_symmetry_space_group_name_H-M    P1
_symmetry_Int_Tables_number       1
_space_group_crystal_system       triclinic
_cell_length_a                    14.341981
_cell_length_b                    10.790368
_cell_length_c                    9.606849
_cell_angle_alpha                 90.082377
_cell_angle_beta                  90.032943
_cell_angle_gamma                 92.489082
_cell_volume                      1485.30582012

loop_
_atom_site_label
_atom_site_type_symbol
_atom_type_description
_atom_site_fract_x
_atom_site_fract_y
_atom_site_fract_z
_atom_type_partial_charge
C1    C     C_R   0.497368 0.262627 0.499943 0.565490
C2    C     C_R   0.562051 0.067020 0.427146 0.251141
C3    C     C_R   0.560114 0.938537 0.425708 -0.132120
C4    C     C_R   0.331187 0.499516 0.500003 0.524223
C5    C     C_R   0.492230 0.870478 0.500453 -0.042670
C6    C     C_R   0.623439 0.665764 0.144196 -0.080439
C7    C     C_R   0.683107 0.747482 0.072227 -0.161618
C8    C     C_R   0.683067 0.747548 0.928854 -0.162294
C9    C     C_R   0.623329 0.665935 0.856476 -0.079338
C10   C     C_R   0.560426 0.581692 0.925387 0.158416
C11   C     C_R   0.560448 0.581618 0.074930 0.160494
C12   C     C_1   0.771132 0.500034 0.500067 -0.054591
C13   C     C_R   0.442559 0.422157 0.073664 0.009897
C14   C     C_R   0.442580 0.422184 0.925858 0.003728
C15   C     C_R   0.497717 0.737120 0.500113 0.523478
C16   C     C_R   0.668794 0.500166 0.500008 0.530435
C17   C     C_1   0.228829 0.499589 0.500018 -0.051039
C18   C     C_1   0.143390 0.499652 0.500078 -0.047441
C19   C     C_1   0.042694 0.499710 0.500111 -0.006073
C20   C     C_1   0.957249 0.499770 0.500108 -0.007397
C21   C     C_1   0.856560 0.499889 0.500087 -0.052942
C22   C     C_3   0.710741 0.146914 0.436451 -0.111143
C23   C     C_R   0.347363 0.120900 0.639196 -0.106169
C24   C     C_R   0.276857 0.052362 0.707911 -0.118389
C25   C     C_R   0.277061 0.923539 0.708995 -0.116377
C26   C     C_R   0.347712 0.862473 0.641230 -0.086401
C27   C     C_R   0.420880 0.930082 0.572706 0.017002
C28   C     C_R   0.420875 0.061114 0.571887 -0.019673
C29   C     C_R   0.492772 0.128406 0.499898 0.002124
Cu1   Cu    Cu3+1 0.499990 0.499990 0.640660 0.905101
Cu2   Cu    Cu3+1 0.500010 0.500010 0.359340 0.947401
H1    H     H_    0.730073 0.810984 0.872924 0.120081
H2    H     H_    0.630367 0.672840 0.253853 0.171210
H3    H     H_    0.730113 0.810894 0.128489 0.123924
H4    H     H_    0.740435 0.055580 0.459531 0.100409
H5    H     H_    0.696177 0.197124 0.534910 0.119269
H6    H     H_    0.764372 0.203267 0.378645 0.149155
H7    H     H_    0.630118 0.673130 0.746808 0.178612
H8    H     H_    0.395530 0.358316 0.870596 0.112745
H9    H     H_    0.342427 0.220549 0.637677 0.122863
H10   H     H_    0.221183 0.099416 0.759076 0.110476
H11   H     H_    0.221539 0.870576 0.760987 0.114534
H12   H     H_    0.343121 0.762273 0.641254 0.141740
H13   H     H_    0.613570 0.891765 0.368695 0.117420
H14   H     H_    0.395491 0.358285 0.128587 0.118076
N1    N     N_R   0.500820 0.501210 0.147910 -0.235025
N2    N     N_R   0.500850 0.501290 0.852040 -0.236748
O1    O     O_R   0.499990 0.319640 0.618810 -0.508558
O2    O     O_R   0.500000 0.319660 0.381240 -0.450091
O3    O     O_R   0.376050 0.499990 0.618810 -0.495191
O4    O     O_R   0.376060 0.500010 0.381240 -0.480270
O5    O     O_R   0.500000 0.680340 0.618760 -0.519072
O6    O     O_R   0.500010 0.680360 0.381190 -0.510168
O7    O     O_R   0.623940 0.499990 0.618760 -0.497348
O8    O     O_R   0.623950 0.500010 0.381190 -0.486837
O9    O     O_3   0.630189 0.132929 0.352717 -0.544028

loop_
_geom_bond_atom_site_label_1
_geom_bond_atom_site_label_2
_ccdc_geom_bond_type
C25   H11   S    
C23   C24   A    
C1    O1    A    
C6    C7    A    
C22   H4    S    
C13   C14   A    
C22   H5    S    
C9    C10   A    
C19   C20   T    
C6    H2    S    
C1    C29   S    
C17   C18   T    
Cu1   O3    S    
C16   O8    A    
C7    C8    A    
C2    O9    S    
C15   O5    A    
C24   C25   A    
C13   H14   S    
C24   H10   S    
Cu1   O7    S    
C26   C27   A    
C14   N2    A    
Cu2   O2    S    
C2    C29   A    
C4    C17   S    
C15   O6    A    
Cu1   O1    S    
C9    H7    S    
C25   C26   A    
C26   H12   S    
C2    C3    A    
Cu1   Cu2   S    
C7    H3    S    
C16   O7    A    
C3    H13   S    
C5    C15   S    
C23   C28   A    
C10   C11   A    
C4    O4    A    
C23   H9    S    
C8    H1    S    
C3    C5    A    
Cu1   N2    S    
C10   N2    A    
C20   C21   S    
C18   C19   S    
Cu2   O4    S    
C6    C11   A    
Cu1   O5    S    
C13   N1    A    
C28   C29   A    
C11   N1    A    
C22   O9    S    
Cu2   O8    S    
C14   H8    S    
C5    C27   A    
C22   H6    S    
C1    O2    A    
C12   C21   T    
Cu2   O6    S    
C12   C16   S    
C4    O3    A    
C8    C9    A    
C27   C28   A    
Cu2   N1    S    
