data_mof_unit_10199.cif
_audit_creation_date              2012-12-10T21:01:02-0500
_audit_creation_method            fapswitch 2.2
_symmetry_space_group_name_H-M    P1
_symmetry_Int_Tables_number       1
_space_group_crystal_system       triclinic
_cell_length_a                    15.779828
_cell_length_b                    15.078125
_cell_length_c                    10.562241
_cell_angle_alpha                 89.3985
_cell_angle_beta                  89.949005
_cell_angle_gamma                 90.419131
_cell_volume                      2512.86942054

loop_
_atom_site_label
_atom_site_type_symbol
_atom_type_description
_atom_site_fract_x
_atom_site_fract_y
_atom_site_fract_z
_atom_type_partial_charge
C1    C     C_R   0.338785 0.499652 0.499718 0.918457
C2    C     C_R   0.661195 0.500308 0.500368 0.919146
C3    C     C_1   0.824561 0.501009 0.515683 0.241636
C4    C     C_1   0.175427 0.497964 0.483000 0.267363
C5    C     C_R   0.957846 0.581822 0.508954 0.288448
C6    C     C_R   0.042196 0.416558 0.488386 0.291407
C7    C     C_R   0.044352 0.580339 0.477006 0.277678
C8    C     C_R   0.955471 0.417937 0.519509 0.197075
C9    C     C_R   0.914085 0.500418 0.521276 -0.250169
C10   C     C_R   0.085892 0.498016 0.476236 -0.228859
C11   C     C_R   0.501090 0.500696 0.257173 1.055947
C12   C     C_R   0.498824 0.499317 0.742825 1.056595
C13   C     C_1   0.250351 0.498721 0.491566 0.054897
C14   C     C_1   0.749619 0.500939 0.507926 0.064147
C15   C     C_R   0.422391 0.952281 0.488374 0.303451
C16   C     C_R   0.577737 0.047791 0.510251 0.222804
C17   C     C_R   0.575923 0.953325 0.526585 0.315397
C18   C     C_R   0.424197 0.046793 0.472511 0.325963
C19   C     C_R   0.499204 0.905292 0.507285 -0.336508
C20   C     C_R   0.500904 0.094763 0.492079 -0.327366
C21   C     C_3   0.511405 0.584342 0.036570 0.284366
C22   C     C_3   0.488329 0.415771 0.963444 0.294668
C23   C     C_3   0.573738 0.531337 0.955371 0.250545
C24   C     C_3   0.426002 0.468788 0.044637 0.242763
C25   C     C_3   0.436282 0.550597 0.957406 0.227362
C26   C     C_3   0.563461 0.449518 0.042571 0.249406
C27   C     C_3   0.498654 0.497758 0.876665 -0.510628
C28   C     C_3   0.501112 0.502331 0.123338 -0.514104
C29   C     C_1   0.499742 0.807054 0.502741 0.460601
C30   C     C_1   0.500389 0.192968 0.496996 0.412086
N1    N     N_1   0.500000 0.270550 0.500000 -0.041806
N2    N     N_1   0.500000 0.729450 0.500000 -0.038293
O1    O     O_R   0.378020 0.573650 0.500040 -0.591534
O2    O     O_R   0.621980 0.426350 0.499960 -0.589561
O3    O     O_R   0.621980 0.573650 0.499960 -0.594093
O4    O     O_R   0.378020 0.426350 0.500040 -0.591122
O5    O     O_R   0.499980 0.573650 0.313960 -0.587146
O6    O     O_R   0.500020 0.426350 0.686040 -0.587520
O7    O     O_R   0.500020 0.573650 0.686040 -0.569201
O8    O     O_R   0.499980 0.426350 0.313960 -0.566061
Zn1   Zn    Zn3+2 0.500000 0.598370 0.500000 1.175776
Zn2   Zn    Zn3+2 0.500000 0.401630 0.500000 1.171185
S1    S     S_3+6 0.333081 0.106507 0.418767 0.117951
O9    O     O_2   0.283880 0.136868 0.532055 -0.196106
O10   O     O_2   0.359533 0.186364 0.341732 -0.267409
O11   O     O_3   0.270282 0.044032 0.326500 -0.435603
H1    H     H_    0.218657 0.079900 0.313029 0.404083
S2    S     S_3+6 0.667317 0.894034 0.580099 0.113397
O12   O     O_2   0.641520 0.813498 0.656172 -0.273729
O13   O     O_2   0.717187 0.864927 0.466768 -0.203718
O14   O     O_3   0.729119 0.956989 0.673205 -0.423688
H2    H     H_    0.780795 0.921392 0.687697 0.407552
S3    S     S_3+6 0.675826 0.108420 0.501804 0.175232
O15   O     O_2   0.745639 0.052195 0.449813 -0.108789
O16   O     O_2   0.668079 0.188453 0.416592 -0.238898
O17   O     O_3   0.702813 0.142316 0.647572 -0.401375
H3    H     H_    0.661100 0.188666 0.668622 0.375474
S4    S     S_3+6 0.324352 0.891560 0.493340 0.139580
O18   O     O_2   0.302578 0.862979 0.361344 -0.225876
O19   O     O_2   0.331660 0.810476 0.576541 -0.242041
O20   O     O_3   0.245298 0.953203 0.551699 -0.418822
H4    H     H_    0.193061 0.918102 0.536390 0.422387
S5    S     S_3+6 0.351479 0.616432 0.896264 0.167098
O21   O     O_2   0.386596 0.692140 0.818436 -0.162149
O22   O     O_2   0.295833 0.559894 0.813889 -0.297944
O23   O     O_3   0.294622 0.657390 0.016857 -0.425530
H5    H     H_    0.237382 0.630670 0.008848 0.407838
S6    S     S_3+6 0.648425 0.383713 0.103171 0.158087
O24   O     O_2   0.704573 0.440260 0.184636 -0.276880
O25   O     O_2   0.613200 0.307970 0.180878 -0.191861
O26   O     O_3   0.704958 0.343453 0.981994 -0.440762
H6    H     H_    0.751824 0.310181 0.022254 0.403137
S7    S     S_3+6 0.527186 0.696750 0.084278 0.159621
O27   O     O_2   0.451736 0.726848 0.158912 -0.224356
O28   O     O_2   0.605428 0.702907 0.164817 -0.225875
O29   O     O_3   0.538939 0.761843 0.955210 -0.433445
H7    H     H_    0.548469 0.822253 0.988523 0.398181
S8    S     S_3+6 0.472409 0.303370 0.915852 0.152501
O30   O     O_2   0.394078 0.297257 0.835500 -0.221669
O31   O     O_2   0.547757 0.273237 0.841070 -0.264964
O32   O     O_3   0.460780 0.238275 0.044939 -0.431075
H8    H     H_    0.451333 0.177846 0.011645 0.397916
S9    S     S_3+6 0.671820 0.571062 0.890971 0.141142
O33   O     O_2   0.711607 0.499409 0.813639 -0.282166
O34   O     O_2   0.655751 0.650661 0.808091 -0.203586
O35   O     O_3   0.737318 0.599345 0.009475 -0.438784
H9    H     H_    0.789948 0.620089 0.967036 0.402228
S10   S     S_3+6 0.327983 0.429117 0.109256 0.129402
O36   O     O_2   0.343970 0.348816 0.190753 -0.195719
O37   O     O_2   0.288905 0.500375 0.188109 -0.285710
O38   O     O_3   0.261874 0.402119 0.990889 -0.450995
H10   H     H_    0.209105 0.381916 0.033458 0.402889
S11   S     S_3+6 0.101323 0.678386 0.429687 0.134699
O39   O     O_2   0.044086 0.743938 0.365130 -0.160744
O40   O     O_2   0.140011 0.719970 0.544939 -0.213219
O41   O     O_3   0.179010 0.652801 0.327371 -0.515997
H11   H     H_    0.213086 0.707846 0.317560 0.426028
S12   S     S_3+6 0.898070 0.319285 0.563527 0.162240
O42   O     O_2   0.861479 0.278381 0.446348 -0.134722
O43   O     O_2   0.954398 0.253061 0.628522 -0.153978
O44   O     O_3   0.818014 0.342298 0.662984 -0.490453
H12   H     H_    0.845731 0.366901 0.739194 0.380675
S13   S     S_3+6 0.903826 0.682973 0.542126 0.131503
O45   O     O_2   0.963126 0.750428 0.598021 -0.178225
O46   O     O_2   0.866861 0.719171 0.421275 -0.185763
O47   O     O_3   0.824984 0.664637 0.646696 -0.524545
H13   H     H_    0.798085 0.723173 0.657846 0.423260
S14   S     S_3+6 0.096662 0.315520 0.456054 0.130652
O48   O     O_2   0.132023 0.278868 0.577708 -0.192253
O49   O     O_2   0.038107 0.248293 0.397957 -0.173889
O50   O     O_3   0.176861 0.334082 0.353906 -0.519033
H14   H     H_    0.203058 0.275306 0.341717 0.422397

loop_
_geom_bond_atom_site_label_1
_geom_bond_atom_site_label_2
_ccdc_geom_bond_type
C2    O3    A    
C8    C9    A    
C7    C10   A    
C5    S13   S    
S11   O39   D    
N1    Zn2   S    
C15   C18   A    
S7    O27   D    
O4    Zn2   S    
O50   H14   S    
O2    Zn2   S    
C17   S2    S    
S5    O22   D    
O32   H8    S    
C1    O1    A    
O7    Zn1   S    
C20   C30   S    
S3    O15   D    
O17   H3    S    
C15   C19   A    
O44   H12   S    
C23   S9    S    
O6    Zn2   S    
C29   N2    T    
C30   N1    T    
S8    O31   D    
O47   H13   S    
S4    O19   D    
C21   S7    S    
S14   O48   D    
C25   S5    S    
C23   C26   S    
C4    C13   T    
C11   O5    A    
C8    S12   S    
C16   S3    S    
S2    O14   S    
C16   C17   A    
N2    Zn1   S    
C23   C27   S    
S10   O36   D    
C2    O2    A    
S4    O20   S    
S2    O13   D    
O23   H5    S    
S5    O23   S    
S11   O40   D    
C12   O6    A    
S7    O28   D    
C11   O8    A    
O3    Zn1   S    
S3    O16   D    
C7    S11   S    
C12   C27   S    
O14   H2    S    
C24   C25   S    
C22   S8    S    
O38   H10   S    
C5    C7    A    
S8    O30   D    
S6    O24   D    
C6    C8    A    
S4    O18   D    
S1    O9    D    
C5    C9    A    
C3    C9    S    
S1    O10   D    
S9    O33   D    
S10   O38   S    
C16   C20   A    
O41   H11   S    
S13   O46   D    
O29   H7    S    
C24   S10   S    
C3    C14   T    
S2    O12   D    
S9    O34   D    
C21   C28   S    
S10   O37   D    
S11   O41   S    
S12   O43   D    
C22   C27   S    
C21   C23   S    
C15   S4    S    
C22   C24   S    
C1    C13   S    
C4    C10   S    
C19   C29   S    
S3    O17   S    
C21   C25   S    
O11   H1    S    
O35   H9    S    
C24   C28   S    
C6    C10   A    
C25   C27   S    
S12   O44   S    
C26   C28   S    
S14   O50   S    
C26   S6    S    
C12   O7    A    
O1    Zn1   S    
O26   H6    S    
C18   S1    S    
S8    O32   S    
C11   C28   S    
S6    O26   S    
O8    Zn2   S    
C17   C19   A    
S14   O49   D    
S13   O47   S    
C18   C20   A    
O5    Zn1   S    
O20   H4    S    
C2    C14   S    
S1    O11   S    
S5    O21   D    
S9    O35   S    
S7    O29   S    
S6    O25   D    
S12   O42   D    
C22   C26   S    
S13   O45   D    
C6    S14   S    
C1    O4    A    
