data_mof_unit_59834.cif
_audit_creation_date              2013-03-05T15:46:22-0500
_audit_creation_method            fapswitch 2.2
_symmetry_space_group_name_H-M    P1
_symmetry_Int_Tables_number       1
_space_group_crystal_system       triclinic
_cell_length_a                    10.202044
_cell_length_b                    10.696237
_cell_length_c                    10.517135
_cell_angle_alpha                 90.026614
_cell_angle_beta                  94.656367
_cell_angle_gamma                 79.859631
_cell_volume                      1125.89856512

loop_
_atom_site_label
_atom_site_type_symbol
_atom_site_description
_atom_site_fract_x
_atom_site_fract_y
_atom_site_fract_z
_atom_type_partial_charge
O1    O     O_R   0.568950 0.489660 0.307530 -0.585669
O2    O     O_R   0.348880 0.522640 0.340350 -0.605639
C1    C     C_R   0.445045 0.502647 0.265577 0.931984
O3    O     O_R   0.610060 0.300270 0.483590 -0.652722
O4    O     O_R   0.389990 0.333260 0.516410 -0.587423
C2    C     C_R   0.503358 0.258264 0.503714 0.920307
Zn1   Zn    Zn3+2 0.646940 0.477980 0.478090 1.034765
Zn2   Zn    Zn3+2 0.353060 0.522020 0.521910 1.140917
O5    O     O_R   0.651120 0.477360 0.659650 -0.582193
O6    O     O_R   0.431050 0.510340 0.692470 -0.561460
O7    O     O_R   0.610010 0.666740 0.483590 -0.611714
O8    O     O_R   0.389940 0.699730 0.516410 -0.555150
C3    C     C_R   0.555336 0.485676 0.734524 0.900286
C4    C     C_R   0.493823 0.739763 0.482864 0.914604
H1    H     H_    0.308248 0.145430 0.563521 0.251447
C5    C     C_R   0.742324 0.065681 0.437965 -0.218306
H2    H     H_    0.778798 0.138400 0.494093 0.229096
C6    C     C_R   0.829202 0.998811 0.355500 0.269926
C7    C     C_R   0.791071 0.894790 0.289246 0.203892
C8    C     C_R   0.669691 0.855209 0.312860 -0.261882
C9    C     C_R   0.587589 0.920900 0.404184 -0.047432
C10   C     C_R   0.613611 0.037767 0.449064 0.050105
C11   C     C_R   0.507947 0.122321 0.500831 -0.124173
C12   C     C_R   0.390547 0.081263 0.526793 -0.136907
C13   C     C_R   0.375043 0.958473 0.504084 0.282020
C14   C     C_R   0.480722 0.874236 0.454728 -0.231930
H3    H     H_    0.597656 0.349676 0.125867 0.200237
C15   C     C_2   0.417969 0.482766 0.130395 -0.199775
C16   C     C_2   0.510388 0.403706 0.072286 -0.172366
C17   C     C_2   0.586585 0.459790 0.870792 0.010968
C18   C     C_2   0.505317 0.398353 0.934404 0.213455
H4    H     H_    0.327991 0.533772 0.078506 0.228606
H5    H     H_    0.884811 0.574476 0.584663 0.222123
N1    N     N_2   0.157290 0.551390 0.551110 -0.030162
C19   C     C_2   0.068149 0.501818 0.480887 0.029397
H6    H     H_    0.878071 0.387720 0.378761 0.219398
N2    N     N_2   0.842740 0.448550 0.448960 -0.187984
C20   C     C_2   0.923938 0.512356 0.510146 -0.072831
C21   C     C_2   0.109327 0.431615 0.365881 0.945301
O9    O     O_2   0.086336 0.484862 0.261603 -0.513135
O10   O     O_R   0.166515 0.303178 0.375299 -0.765304
H7    H     H_    0.188856 0.265377 0.289620 0.369878
N3    N     N_R   0.113526 0.629521 0.650735 0.304145
O11   O     O_R   0.180758 0.615339 0.761684 -0.271793
O12   O     O_R   0.028570 0.734287 0.626182 -0.305492
N4    N     N_R   0.949961 0.044834 0.332677 0.248365
O13   O     O_R   0.001678 0.115287 0.416845 -0.341716
O14   O     O_R   0.997667 0.033062 0.221397 -0.279604
N5    N     N_R   0.875874 0.828588 0.199519 0.263594
O15   O     O_R   0.836232 0.831760 0.078632 -0.254882
O16   O     O_R   0.994888 0.769034 0.238002 -0.248230
C22   C     C_2   0.622582 0.755893 0.230654 1.023886
O17   O     O_2   0.700945 0.660594 0.206335 -0.466220
O18   O     O_R   0.490451 0.770659 0.177564 -0.775433
H8    H     H_    0.435708 0.856799 0.194092 0.333364
N6    N     N_R   0.249897 0.922543 0.527899 0.255165
O19   O     O_R   0.184886 0.868046 0.438749 -0.278026
O20   O     O_R   0.190894 0.962233 0.629312 -0.269029
N7    N     N_R   0.409862 0.330728 0.869681 0.233802
O21   O     O_R   0.296574 0.327592 0.917140 -0.294829
O22   O     O_R   0.447731 0.250630 0.781260 -0.406276
N8    N     N_R   0.696618 0.509266 0.935085 0.237960
O23   O     O_R   0.773283 0.443810 0.025504 -0.295494
O24   O     O_R   0.732643 0.610210 0.890052 -0.277811

loop_
_geom_bond_atom_site_label_1
_geom_bond_atom_site_label_2
_geom_bond_distance
_ccdc_geom_bond_type
O4    Zn2   1.989301 S    
C19   C21   1.474416 S    
C9    C14   1.416451 A    
N8    O23   1.301253 A    
H3    C16   1.087132 S    
O10   H7    1.013885 S    
C7    N5    1.434108 S    
N8    O24   1.301404 A    
H5    C20   1.082566 S    
C13   N6    1.437116 S    
O8    C4    1.285181 A    
Zn2   O8    2.003379 S    
C8    C9    1.428480 A    
N5    O16   1.300752 A    
C22   O17   1.220499 D    
O2    C1    1.295337 A    
Zn1   N2    2.015205 S    
N7    O21   1.301303 A    
C8    C22   1.489432 S    
Zn2   N1    2.015090 S    
C9    C10   1.397083 A    
C4    C14   1.449334 S    
Zn1   O7    1.989302 S    
N3    O12   1.302146 A    
N2    C20   1.295464 D    
O3    Zn1   2.003379 S    
O4    C2    1.302799 A    
C2    C11   1.446944 S    
C6    N4    1.442022 S    
C5    C6    1.396555 A    
C15   C16   1.337877 D    
N6    O20   1.301531 A    
N1    C19   1.309207 D    
C10   C11   1.424064 A    
C17   N8    1.443265 S    
N3    O11   1.299476 A    
C17   C18   1.359836 D    
O7    C4    1.299120 A    
N4    O14   1.301231 A    
N7    O22   1.299656 A    
O3    C2    1.281172 A    
C1    C15   1.448954 S    
N6    O19   1.301327 A    
C11   C12   1.392977 A    
C3    C17   1.458527 S    
C15   H4    1.086604 S    
C19   C20   1.512293 S    
C6    C7    1.408005 A    
C12   C13   1.368859 A    
C21   O10   1.394997 S    
C16   C18   1.448314 S    
N5    O15   1.301096 A    
C18   N7    1.440442 S    
C21   O9    1.222270 D    
Zn1   O5    1.906490 S    
O5    C3    1.295059 A    
O18   H8    1.012657 S    
H6    N2    1.028840 S    
C5    C10   1.410697 A    
O1    Zn1   1.897336 S    
C13   C14   1.411399 A    
N4    O13   1.301312 A    
H1    C12   1.083852 S    
Zn2   O6    1.897336 S    
O2    Zn2   1.906490 S    
N1    N3    1.392599 S    
C7    C8    1.417395 A    
C22   O18   1.398839 S    
C5    H2    1.075997 S    
O1    C1    1.288239 A    
O6    C3    1.290055 A    
