data_mof_unit_45914.cif
_audit_creation_date              2012-12-10T18:53:05-0500
_audit_creation_method            fapswitch 2.2
_symmetry_space_group_name_H-M    P1
_symmetry_Int_Tables_number       1
_space_group_crystal_system       triclinic
_cell_length_a                    10.007107
_cell_length_b                    10.708306
_cell_length_c                    16.858586
_cell_angle_alpha                 93.808551
_cell_angle_beta                  83.177173
_cell_angle_gamma                 90.146008
_cell_volume                      1789.77102133

loop_
_atom_site_label
_atom_site_type_symbol
_atom_type_description
_atom_site_fract_x
_atom_site_fract_y
_atom_site_fract_z
_atom_type_partial_charge
C1    C     C_R   0.500070 0.739638 0.500373 0.862312
C2    C     C_R   0.061787 0.580481 0.551710 0.173817
C3    C     C_R   0.081492 0.419155 0.448371 0.211768
C4    C     C_R   0.918507 0.580844 0.551629 0.211768
C5    C     C_R   0.478879 0.499298 0.652248 0.965900
C6    C     C_R   0.521121 0.500702 0.347752 0.965899
C7    C     C_R   0.459433 0.492197 0.737986 -0.130692
C8    C     C_R   0.540566 0.507804 0.262014 -0.130692
C9    C     C_R   0.500430 0.384126 0.771892 0.093424
C10   C     C_R   0.499568 0.615874 0.228108 0.093424
C11   C     C_R   0.480517 0.379368 0.854466 -0.215782
C12   C     C_R   0.499930 0.260362 0.499627 0.862312
C13   C     C_R   0.519481 0.620632 0.145534 -0.215782
C14   C     C_R   0.425372 0.481834 0.902598 0.064210
C15   C     C_R   0.574628 0.518167 0.097402 0.064210
C16   C     C_R   0.379110 0.588696 0.869419 0.091259
C17   C     C_R   0.620891 0.411305 0.130580 0.091259
C18   C     C_R   0.391837 0.591031 0.785351 0.368453
C19   C     C_R   0.608164 0.408970 0.214649 0.368454
C20   C     C_2   0.439659 0.483442 0.987210 0.301574
C21   C     C_2   0.560341 0.516559 0.012790 0.301574
C22   C     C_3   0.563880 0.273575 0.721058 -0.838850
C23   C     C_R   0.616057 0.938047 0.515541 -0.182154
C24   C     C_3   0.436117 0.726424 0.278942 -0.838850
C25   C     C_3   0.327572 0.700815 0.923994 -0.838776
C26   C     C_3   0.672430 0.299187 0.076006 -0.838776
C27   C     C_3   0.877922 0.328854 0.390030 -0.777284
C28   C     C_3   0.122078 0.671146 0.609970 -0.777285
C29   C     C_3   0.162848 0.327563 0.389539 -0.811996
C30   C     C_3   0.837152 0.672437 0.610460 -0.811996
C31   C     C_R   0.383943 0.061953 0.484459 -0.182154
C32   C     C_R   0.615973 0.065977 0.515357 -0.191527
C33   C     C_R   0.384026 0.934022 0.484643 -0.191527
C34   C     C_R   0.499912 0.127645 0.499772 -0.002487
C35   C     C_R   0.500088 0.872355 0.500228 -0.002486
C36   C     C_R   0.938213 0.419518 0.448290 0.173817
H1    H     H_    0.484500 0.701182 0.117917 0.166152
H2    H     H_    0.414742 0.804629 0.242121 0.238931
H3    H     H_    0.339547 0.698432 0.312291 0.252764
H4    H     H_    0.505337 0.761690 0.322045 0.228911
H5    H     H_    0.742006 0.282156 0.222600 0.341976
H6    H     H_    0.257996 0.717846 0.777399 0.341976
H7    H     H_    0.652015 0.560493 0.908157 0.335257
H8    H     H_    0.347985 0.439506 0.091843 0.335257
H9    H     H_    0.231079 0.676733 0.959089 0.267225
H10   H     H_    0.401814 0.727597 0.965997 0.230822
H11   H     H_    0.312231 0.785465 0.891820 0.244125
H12   H     H_    0.515498 0.298817 0.882082 0.166152
H13   H     H_    0.598189 0.272404 0.034003 0.230822
H14   H     H_    0.768923 0.323270 0.040911 0.267226
H15   H     H_    0.687772 0.214537 0.108180 0.244125
H16   H     H_    0.920314 0.344883 0.327714 0.221262
H17   H     H_    0.898274 0.231094 0.403377 0.207918
H18   H     H_    0.769730 0.337258 0.391620 0.313029
H19   H     H_    0.079685 0.655117 0.672286 0.221262
H20   H     H_    0.230269 0.662742 0.608380 0.313028
H21   H     H_    0.101726 0.768906 0.596623 0.207918
H22   H     H_    0.128612 0.230557 0.399203 0.203340
H23   H     H_    0.706224 0.891123 0.528039 0.157039
H24   H     H_    0.151330 0.349729 0.327330 0.224036
H25   H     H_    0.270061 0.326533 0.393692 0.289374
H26   H     H_    0.848669 0.650271 0.672670 0.224036
H27   H     H_    0.871388 0.769443 0.600797 0.203339
H28   H     H_    0.729939 0.673467 0.606308 0.289374
H29   H     H_    0.293776 0.108877 0.471961 0.157039
H30   H     H_    0.706071 0.116182 0.527895 0.162128
H31   H     H_    0.293928 0.883818 0.472105 0.162128
H32   H     H_    0.585255 0.195370 0.757879 0.238931
H33   H     H_    0.494660 0.238310 0.677955 0.228911
H34   H     H_    0.660451 0.301566 0.687708 0.252764
N1    N     N_R   0.142790 0.500030 0.500020 -0.118376
N2    N     N_R   0.857210 0.499970 0.499980 -0.118377
O1    O     O_R   0.385380 0.683250 0.500010 -0.633942
O2    O     O_3   0.345302 0.690020 0.747710 -0.791911
O3    O     O_3   0.673414 0.550458 0.963095 -0.752972
O4    O     O_3   0.326586 0.449542 0.036905 -0.752972
O5    O     O_R   0.614620 0.316750 0.499990 -0.633942
O6    O     O_R   0.614710 0.683220 0.500000 -0.635906
O7    O     O_R   0.385290 0.316780 0.500000 -0.635906
O8    O     O_R   0.371780 0.500040 0.615800 -0.604588
O9    O     O_R   0.628220 0.499960 0.384200 -0.604587
O10   O     O_R   0.601110 0.500010 0.615800 -0.632024
O11   O     O_R   0.398890 0.499990 0.384200 -0.632024
O12   O     O_3   0.654700 0.309982 0.252290 -0.791910
Zn1   Zn    Zn3+2 0.346870 0.500020 0.500000 0.942263
Zn2   Zn    Zn3+2 0.653130 0.499980 0.500000 0.942263

loop_
_geom_bond_atom_site_label_1
_geom_bond_atom_site_label_2
_ccdc_geom_bond_type
C30   H28   S    
C2    C4    A    
C4    N2    A    
C28   H20   S    
C27   H18   S    
C28   H21   S    
C23   H23   S    
C1    C35   S    
C17   C26   S    
C26   H14   S    
C33   C35   A    
C11   C14   A    
C9    C22   S    
C12   O7    A    
C19   O12   S    
C24   H3    S    
C20   O4    S    
C7    C9    A    
H8    O4    S    
C17   C19   A    
N1    Zn1   S    
C24   H2    S    
C31   C33   A    
C25   H11   S    
C22   H33   S    
C13   H1    S    
O9    Zn2   S    
O6    Zn2   S    
C18   O2    S    
C6    O9    A    
C30   H27   S    
C1    O6    A    
C11   H12   S    
C28   H19   S    
H7    O3    S    
C29   H25   S    
H6    O2    S    
C8    C19   A    
C14   C20   S    
C26   H13   S    
C5    C7    S    
C31   H29   S    
C6    C8    S    
C10   C24   S    
O10   Zn2   S    
H5    O12   S    
C32   C34   A    
C3    N1    A    
O8    Zn1   S    
C29   H24   S    
C7    C18   A    
C22   H32   S    
C12   O5    A    
C31   C34   A    
C29   H22   S    
C5    O8    A    
C9    C11   A    
O1    Zn1   S    
C16   C18   A    
O11   Zn1   S    
O5    Zn2   S    
C23   C35   A    
C13   C15   A    
C14   C16   A    
C12   C34   S    
C2    N1    A    
C25   H9    S    
O7    Zn1   S    
C27   H16   S    
C33   H31   S    
C32   H30   S    
C16   C25   S    
C15   C17   A    
C6    O11   A    
C10   C13   A    
N2    Zn2   S    
C27   H17   S    
C27   C36   S    
C21   O3    S    
C1    O1    A    
C23   C32   A    
C30   H26   S    
C26   H15   S    
C5    O10   A    
C3    C29   S    
C3    C36   A    
C24   H4    S    
C15   C21   S    
C20   C21   D    
C8    C10   A    
C2    C28   S    
C25   H10   S    
C22   H34   S    
C4    C30   S    
C36   N2    A    
