data_mof_unit_51192.cif
_audit_creation_date              2013-03-05T15:41:32-0500
_audit_creation_method            fapswitch 2.2
_symmetry_space_group_name_H-M    P1
_symmetry_Int_Tables_number       1
_space_group_crystal_system       triclinic
_cell_length_a                    15.85079
_cell_length_b                    8.691915
_cell_length_c                    7.451457
_cell_angle_alpha                 103.027899
_cell_angle_beta                  93.91137
_cell_angle_gamma                 92.23071
_cell_volume                      996.302285926

loop_
_atom_site_label
_atom_site_type_symbol
_atom_site_description
_atom_site_fract_x
_atom_site_fract_y
_atom_site_fract_z
_atom_type_partial_charge
O1    O     O_R   0.506070 0.286130 0.619780 -0.586438
O2    O     O_R   0.493930 0.713870 0.380220 -0.586437
O3    O     O_R   0.490300 0.256770 0.308360 -0.581907
O4    O     O_R   0.509700 0.743230 0.691640 -0.581907
C1    C     C_R   0.497482 0.199732 0.453253 0.881884
C2    C     C_R   0.502518 0.800268 0.546746 0.881884
O5    O     O_R   0.386960 0.514660 0.655680 -0.576283
O6    O     O_R   0.613040 0.485340 0.344320 -0.576283
O7    O     O_R   0.371190 0.485310 0.344260 -0.567733
O8    O     O_R   0.628810 0.514690 0.655740 -0.567733
C3    C     C_R   0.340030 0.499834 0.502745 0.815155
C4    C     C_R   0.659970 0.500166 0.497255 0.815155
Cu1   Cu    Cu3+1 0.509330 0.517380 0.684380 0.989473
Cu2   Cu    Cu3+1 0.490670 0.482620 0.315620 0.989473
C5    C     C_2   0.496273 0.031816 0.427013 -0.347176
C6    C     C_2   0.503727 0.968183 0.572987 -0.347175
C7    C     C_3   0.972249 0.441165 0.640210 -0.239621
C8    C     C_3   0.027751 0.558835 0.359790 -0.239621
C9    C     C_3   0.024701 0.350340 0.484174 -0.240099
C10   C     C_3   0.975298 0.649660 0.515826 -0.240099
H1    H     H_    0.045134 0.227572 0.468332 0.196711
H2    H     H_    0.954866 0.772428 0.531668 0.196711
H3    H     H_    0.949137 0.395731 0.756834 0.225337
H4    H     H_    0.050863 0.604269 0.243166 0.225337
C11   C     C_1   0.250673 0.500321 0.508549 -0.113718
C12   C     C_1   0.749327 0.499679 0.491451 -0.113718
C13   C     C_3   0.031725 0.588978 0.658489 0.404243
C14   C     C_3   0.968275 0.411022 0.341511 0.404243
C15   C     C_3   0.083552 0.500420 0.506417 0.005272
C16   C     C_3   0.916448 0.499580 0.493583 0.005272
N1    N     N_2   0.476600 0.456420 0.038510 -0.208488
N2    N     N_2   0.523400 0.543580 0.961490 -0.208488
H5    H     H_    0.489241 0.960193 0.286346 0.183758
H6    H     H_    0.510759 0.039807 0.713654 0.183758
C17   C     C_1   0.175211 0.500486 0.509630 0.083205
C18   C     C_1   0.824789 0.499514 0.490370 0.083205
H7    H     H_    0.434435 0.377656 0.948835 0.232259
H8    H     H_    0.565565 0.622344 0.051165 0.232259
N3    N     N_R   0.934601 0.311919 0.164428 0.131991
O9    O     O_R   0.986215 0.240929 0.048580 -0.335828
O10   O     O_R   0.853414 0.294132 0.120675 -0.351998
N4    N     N_R   0.065399 0.688081 0.835572 0.131991
O11   O     O_R   0.013785 0.759071 0.951420 -0.335828
O12   O     O_R   0.146586 0.705868 0.879325 -0.351998

loop_
_geom_bond_atom_site_label_1
_geom_bond_atom_site_label_2
_geom_bond_distance
_ccdc_geom_bond_type
O7    Cu2   1.920703 S    
C7    C16   1.545025 S    
C10   C13   1.538847 S    
N2    H8    1.029122 S    
C13   C15   1.527866 S    
C15   C17   1.451399 S    
Cu1   N2    2.021513 S    
N1    N2    1.289947 D    
C16   C18   1.451399 S    
Cu2   N1    2.021513 S    
O6    C4    1.295880 A    
C6    H6    1.087715 S    
C14   C16   1.527866 S    
N3    O10   1.300309 A    
C8    C15   1.545025 S    
C10   C16   1.544675 S    
Cu1   Cu2   2.690175 S    
O5    C3    1.295881 A    
C9    C14   1.538847 S    
O7    C3    1.292954 A    
C13   N4    1.457298 S    
C7    H3    1.110072 S    
O3    Cu2   1.951353 S    
N4    O12   1.300309 A    
C11   C17   1.196771 T    
O1    C1    1.292709 A    
O8    C4    1.292955 A    
C12   C18   1.196771 T    
C9    H1    1.110333 S    
C10   H2    1.110333 S    
C8    C10   1.560597 S    
O2    Cu2   1.956223 S    
C8    H4    1.110072 S    
C1    C5    1.427377 S    
O1    Cu1   1.956223 S    
N4    O11   1.300284 A    
C3    C11   1.420122 S    
C2    C6    1.427377 S    
C5    C6    1.327323 D    
C7    C13   1.538594 S    
N1    H7    1.029122 S    
O5    Cu1   1.935496 S    
C8    C14   1.538594 S    
O4    C2    1.285840 A    
N3    O9    1.300284 A    
O6    Cu2   1.935496 S    
C14   N3    1.457298 S    
C7    C9    1.560597 S    
C5    H5    1.087715 S    
O2    C2    1.292710 A    
O4    Cu1   1.951354 S    
C4    C12   1.420122 S    
O3    C1    1.285840 A    
O8    Cu1   1.920702 S    
C9    C15   1.544675 S    
