data_mof_unit_47922.cif
_audit_creation_date              2013-03-05T16:34:53-0500
_audit_creation_method            fapswitch 2.2
_symmetry_space_group_name_H-M    P1
_symmetry_Int_Tables_number       1
_space_group_crystal_system       triclinic
_cell_length_a                    15.089028
_cell_length_b                    9.094384
_cell_length_c                    7.78153
_cell_angle_alpha                 89.99739
_cell_angle_beta                  89.999923
_cell_angle_gamma                 90.000021
_cell_volume                      1067.82368107

loop_
_atom_site_label
_atom_site_type_symbol
_atom_site_description
_atom_site_fract_x
_atom_site_fract_y
_atom_site_fract_z
_atom_type_partial_charge
O1    O     O_R   0.500000 0.288390 0.642760 -0.571476
O2    O     O_R   0.500000 0.711610 0.357240 -0.571476
O3    O     O_R   0.500000 0.711610 0.642760 -0.577216
O4    O     O_R   0.500000 0.288390 0.357240 -0.577216
C1    C     C_R   0.500000 0.220008 0.500001 0.850455
C2    C     C_R   0.500000 0.779992 0.499999 0.850455
O5    O     O_R   0.370260 0.500000 0.642800 -0.579603
O6    O     O_R   0.629740 0.500000 0.357200 -0.579602
O7    O     O_R   0.629740 0.500000 0.642800 -0.579602
O8    O     O_R   0.370260 0.500000 0.357200 -0.579603
C3    C     C_R   0.328262 0.500000 0.500000 0.803816
C4    C     C_R   0.671738 0.500000 0.500000 0.803815
Cu1   Cu    Cu3+1 0.500000 0.500000 0.669080 1.046349
Cu2   Cu    Cu3+1 0.500000 0.500000 0.330920 1.046349
N1    N     N_1   0.500000 0.500000 0.076820 -0.033658
N2    N     N_1   0.500000 0.500000 0.923180 -0.033658
C5    C     C_R   0.814187 0.556658 0.640770 -0.101710
C6    C     C_R   0.185813 0.443341 0.359229 -0.101711
C7    C     C_R   0.814187 0.443341 0.359230 -0.101713
C8    C     C_R   0.185813 0.556656 0.640772 -0.101712
C9    C     C_R   0.768303 0.500000 0.500000 -0.111028
C10   C     C_R   0.231697 0.500000 0.500000 -0.111026
C11   C     C_R   0.906868 0.440682 0.357685 0.014082
C12   C     C_R   0.093132 0.559315 0.642316 0.014082
C13   C     C_R   0.906868 0.559315 0.642314 0.014086
C14   C     C_R   0.093132 0.440682 0.357686 0.014085
C15   C     C_R   0.953491 0.499999 0.500000 -0.026630
C16   C     C_R   0.046509 0.499999 0.500000 -0.026630
C17   C     C_R   0.953556 0.379626 0.217591 0.353102
C18   C     C_R   0.046444 0.620369 0.782409 0.353102
C19   C     C_R   0.953556 0.620370 0.782408 0.353106
C20   C     C_R   0.046444 0.379624 0.217593 0.353100
C21   C     C_1   0.500000 0.065367 0.500002 -0.140468
C22   C     C_1   0.500000 0.934633 0.499998 -0.140468
H1    H     H_    0.776548 0.600424 0.747453 0.202959
H2    H     H_    0.223452 0.399577 0.252544 0.202959
H3    H     H_    0.776548 0.399574 0.252547 0.202958
H4    H     H_    0.223452 0.600421 0.747457 0.202959
Cl1   Cl    Cl    0.896803 0.300643 0.040632 -0.508902
Cl2   Cl    Cl    0.103197 0.699357 0.959360 -0.508907
Cl3   Cl    Cl    0.896803 0.699358 0.959358 -0.508904
Cl4   Cl    Cl    0.103197 0.300629 0.040647 -0.508901

loop_
_geom_bond_atom_site_label_1
_geom_bond_atom_site_label_2
_geom_bond_distance
_ccdc_geom_bond_type
C13   C19   1.411754 A    
C7    C11   1.398730 A    
C14   C20   1.411760 A    
C11   C15   1.418574 A    
C13   C15   1.418569 A    
C8    H4    1.081750 S    
C7    H3    1.081743 S    
C3    C10   1.457066 S    
C14   C16   1.418573 A    
O3    Cu1   1.935321 S    
O6    C4    1.279204 A    
O3    C2    1.273103 A    
C5    C13   1.398728 A    
C17   Cl1   1.773568 S    
C21   C22   1.188946 T    
C18   Cl2   1.773533 S    
Cu1   Cu2   2.631403 S    
O5    C3    1.279204 A    
O2    C2    1.273134 A    
O6    Cu2   1.968303 S    
O1    C1    1.273134 A    
C11   C17   1.411761 A    
C5    H1    1.081743 S    
C7    C9    1.394569 A    
C8    C10   1.394573 A    
C17   C20   1.401593 A    
O4    Cu2   1.935322 S    
C18   C19   1.401593 A    
O2    Cu2   1.935340 S    
O7    C4    1.279205 A    
C12   C18   1.411749 A    
O1    Cu1   1.935341 S    
O8    C3    1.279205 A    
N1    N2    1.195555 T    
C12   C16   1.418574 A    
O5    Cu1   1.968304 S    
O8    Cu2   1.968304 S    
Cu1   N2    1.977286 S    
C15   C16   1.403548 A    
C20   Cl4   1.773535 S    
Cu2   N1    1.977286 S    
O7    Cu1   1.968302 S    
C19   Cl3   1.773529 S    
C6    C10   1.394575 A    
C6    H2    1.081749 S    
C4    C9    1.457066 S    
C8    C12   1.398728 A    
C5    C9    1.394567 A    
C2    C22   1.406362 S    
C1    C21   1.406362 S    
O4    C1    1.273103 A    
C6    C14   1.398728 A    
