data_mof_unit_13916.cif
_audit_creation_date              2012-12-11T14:05:41-0500
_audit_creation_method            fapswitch 2.2
_symmetry_space_group_name_H-M    P1
_symmetry_Int_Tables_number       1
_space_group_crystal_system       triclinic
_cell_length_a                    17.654386
_cell_length_b                    17.724869
_cell_length_c                    17.656885
_cell_angle_alpha                 90.356171
_cell_angle_beta                  89.988364
_cell_angle_gamma                 89.618617
_cell_volume                      5524.99278012

loop_
_atom_site_label
_atom_site_type_symbol
_atom_type_description
_atom_site_fract_x
_atom_site_fract_y
_atom_site_fract_z
_atom_type_partial_charge
C1    C     C_R   0.693521 0.783939 0.210414 -0.329288
C2    C     C_R   0.302990 0.792982 0.214831 -0.339675
C3    C     C_R   0.901806 0.815530 0.611720 0.717762
C4    C     C_R   0.098933 0.384908 0.817269 0.848670
C5    C     C_R   0.900313 0.609333 0.185598 0.762382
C6    C     C_R   0.097054 0.815591 0.613434 0.705829
C7    C     C_R   0.901750 0.181620 0.383394 0.840608
C8    C     C_R   0.815610 0.903302 0.614046 0.741828
C9    C     C_R   0.180959 0.091010 0.376740 0.701331
C10   C     C_R   0.614894 0.901273 0.182478 0.836797
C11   C     C_R   0.390651 0.098760 0.814352 0.766860
C12   C     C_R   0.185862 0.900926 0.390610 0.762167
C13   C     C_R   0.216929 0.306196 0.788810 -0.331110
C14   C     C_R   0.817412 0.099197 0.614913 0.833159
C15   C     C_R   0.376517 0.908606 0.819123 0.699364
C16   C     C_R   0.614109 0.097042 0.184495 0.742757
C17   C     C_R   0.182069 0.091065 0.621363 0.686974
C18   C     C_R   0.817245 0.900313 0.386303 0.858804
C19   C     C_R   0.390415 0.099571 0.185585 0.763377
C20   C     C_R   0.620085 0.908024 0.817333 0.706856
C21   C     C_R   0.818152 0.091617 0.378484 0.723116
C22   C     C_R   0.185314 0.900096 0.609892 0.771085
C23   C     C_R   0.614323 0.099770 0.817593 0.864542
C24   C     C_R   0.774070 0.673683 0.225430 -0.288653
C25   C     C_R   0.377416 0.909276 0.181359 0.700736
C26   C     C_R   0.302863 0.790602 0.785639 -0.334217
C27   C     C_R   0.673934 0.224705 0.224948 -0.278622
C28   C     C_R   0.789912 0.694738 0.783653 -0.326939
C29   C     C_R   0.216228 0.308040 0.210970 -0.350922
C30   C     C_R   0.217191 0.209447 0.693069 -0.328435
C31   C     C_R   0.789916 0.783678 0.306364 -0.329449
C32   C     C_R   0.225921 0.775038 0.327055 -0.275311
C33   C     C_R   0.327147 0.224672 0.774145 -0.284939
C34   C     C_R   0.789230 0.216266 0.694054 -0.330245
C35   C     C_R   0.784952 0.207979 0.303707 -0.343919
C36   C     C_R   0.223852 0.774238 0.674787 -0.277551
C37   C     C_R   0.775184 0.775672 0.673887 -0.289235
C38   C     C_R   0.214400 0.208963 0.303436 -0.332748
C39   C     C_R   0.639465 0.834560 0.827647 -0.247132
C40   C     C_R   0.369013 0.173828 0.173233 -0.317694
C41   C     C_R   0.167309 0.637009 0.828595 -0.239293
C42   C     C_R   0.831404 0.353929 0.162806 -0.245417
C43   C     C_R   0.369401 0.173125 0.826645 -0.321573
C44   C     C_R   0.207670 0.697541 0.214894 -0.338942
C45   C     C_R   0.641875 0.829622 0.164978 -0.252724
C46   C     C_R   0.827044 0.368961 0.826421 -0.322649
C47   C     C_R   0.163528 0.645123 0.169254 -0.246159
C48   C     C_R   0.630888 0.172541 0.173923 -0.330049
C49   C     C_R   0.354102 0.836156 0.831584 -0.250807
C50   C     C_R   0.171520 0.362840 0.167644 -0.236541
C51   C     C_R   0.835109 0.643092 0.829902 -0.236930
C52   C     C_R   0.355160 0.836900 0.169109 -0.241620
C53   C     C_R   0.642322 0.170580 0.836091 -0.244668
C54   C     C_R   0.825871 0.631087 0.172950 -0.324910
C55   C     C_R   0.774559 0.325939 0.775519 -0.292235
C56   C     C_R   0.170849 0.358183 0.834241 -0.237666
C57   C     C_R   0.834536 0.170742 0.641788 -0.248505
C58   C     C_R   0.174403 0.826235 0.371385 -0.327735
C59   C     C_R   0.835179 0.829188 0.358366 -0.242679
C60   C     C_R   0.171441 0.164428 0.641153 -0.241331
C61   C     C_R   0.168230 0.163503 0.354239 -0.252028
C62   C     C_R   0.827052 0.828038 0.632521 -0.319804
C63   C     C_R   0.172366 0.826076 0.631524 -0.314759
C64   C     C_R   0.830115 0.164082 0.356582 -0.249643
C65   C     C_R   0.708036 0.707030 0.196000 0.806726
C66   C     C_R   0.325896 0.225562 0.225389 -0.274948
C67   C     C_R   0.293985 0.291021 0.803397 0.798011
C68   C     C_R   0.254838 0.745507 0.175700 0.706903
C69   C     C_R   0.709449 0.292753 0.806687 0.786223
C70   C     C_R   0.293253 0.292036 0.196489 0.784387
C71   C     C_R   0.739364 0.740979 0.822142 0.693276
C72   C     C_R   0.708066 0.288842 0.193528 0.785360
C73   C     C_R   0.256963 0.740457 0.823905 0.708881
C74   C     C_R   0.194573 0.708122 0.707240 0.782628
C75   C     C_R   0.824499 0.254309 0.255041 0.710237
C76   C     C_R   0.178030 0.259441 0.739432 0.690647
C77   C     C_R   0.692336 0.789673 0.782519 -0.333560
C78   C     C_R   0.804568 0.706928 0.291116 0.789553
C79   C     C_R   0.176168 0.259468 0.257413 0.709150
C80   C     C_R   0.805350 0.709989 0.706937 0.790538
C81   C     C_R   0.195290 0.710322 0.292710 0.789778
C82   C     C_R   0.803381 0.292956 0.708953 0.809369
C83   C     C_R   0.740460 0.177372 0.741086 0.696302
C84   C     C_R   0.290512 0.805749 0.292664 0.789620
C85   C     C_R   0.707377 0.195612 0.290760 0.812126
C86   C     C_R   0.288985 0.804335 0.708570 0.786249
C87   C     C_R   0.291747 0.194955 0.289995 0.785257
C88   C     C_R   0.785611 0.301801 0.206761 -0.336618
C89   C     C_R   0.708246 0.804555 0.706011 0.809186
C90   C     C_R   0.293994 0.194164 0.708470 0.787681
C91   C     C_R   0.740320 0.822722 0.259939 0.698261
C92   C     C_R   0.612720 0.817191 0.899160 0.857692
C93   C     C_R   0.386963 0.184698 0.097862 0.710401
C94   C     C_R   0.182733 0.614556 0.902031 0.843774
C95   C     C_R   0.819096 0.376879 0.090492 0.703685
C96   C     C_R   0.387228 0.184604 0.902161 0.703608
C97   C     C_R   0.621069 0.817998 0.091629 0.716506
C98   C     C_R   0.814437 0.391206 0.900638 0.768222
C99   C     C_R   0.210043 0.691913 0.783910 -0.348233
C100  C     C_R   0.181579 0.617453 0.097766 0.857822
C101  C     C_R   0.608760 0.185252 0.099880 0.772278
C102  C     C_R   0.382436 0.818508 0.902585 0.845068
C103  C     C_R   0.184827 0.386332 0.095405 0.715504
C104  C     C_R   0.817613 0.616029 0.901403 0.843507
C105  C     C_R   0.382663 0.818699 0.097575 0.838754
C106  C     C_R   0.621855 0.181419 0.909373 0.698940
C107  C     C_R   0.815268 0.613843 0.097105 0.729227
C108  C     C_R   0.182386 0.379223 0.907440 0.675031
C109  C     C_R   0.908082 0.621281 0.818204 0.681895
C110  C     C_R   0.694192 0.216256 0.791295 -0.324703
C111  C     C_R   0.098013 0.385655 0.182872 0.841872
C112  C     C_R   0.907817 0.182054 0.621012 0.711875
C113  C     C_R   0.099601 0.814407 0.390777 0.758046
C114  C     C_R   0.902535 0.381800 0.181262 0.854707
C115  C     C_R   0.095301 0.612944 0.815218 0.723453
C116  C     C_R   0.908656 0.818213 0.378280 0.700986
C117  C     C_R   0.100140 0.182505 0.613521 0.855672
C118  C     C_R   0.090992 0.622814 0.181420 0.696566
C119  C     C_R   0.902863 0.385877 0.815496 0.731292
C120  C     C_R   0.096957 0.181416 0.382403 0.847070
F1    F     F_    0.659395 0.665116 0.154386 -0.466552
F2    F     F_    0.901224 0.247898 0.249392 -0.620816
F3    F     F_    0.101031 0.256512 0.742518 -0.642785
F4    F     F_    0.848198 0.665404 0.338309 -0.460362
F5    F     F_    0.099453 0.255112 0.251503 -0.616458
F6    F     F_    0.847228 0.661632 0.664411 -0.457907
F7    F     F_    0.153371 0.662089 0.334191 -0.463578
F8    F     F_    0.844172 0.335030 0.660174 -0.467027
F9    F     F_    0.743986 0.100673 0.744040 -0.643044
F10   F     F_    0.339008 0.847918 0.334176 -0.460773
F11   F     F_    0.665000 0.156088 0.340384 -0.464067
F12   F     F_    0.336497 0.339633 0.844362 -0.462037
F13   F     F_    0.336927 0.846687 0.667164 -0.462180
F14   F     F_    0.333124 0.151857 0.337761 -0.461987
F15   F     F_    0.659934 0.845837 0.663275 -0.463929
F16   F     F_    0.335732 0.150094 0.661346 -0.460857
F17   F     F_    0.743621 0.899387 0.257069 -0.639326
F18   F     F_    0.593057 0.746370 0.919417 -0.478592
F19   F     F_    0.400694 0.253053 0.068059 -0.455495
F20   F     F_    0.253421 0.602814 0.929497 -0.471670
F21   F     F_    0.754481 0.369389 0.050753 -0.504337
F22   F     F_    0.400851 0.253324 0.932091 -0.461329
F23   F     F_    0.248534 0.751280 0.099059 -0.622456
F24   F     F_    0.624275 0.752080 0.053318 -0.480453
F25   F     F_    0.746383 0.417915 0.924112 -0.452651
F26   F     F_    0.252997 0.606739 0.071658 -0.468359
F27   F     F_    0.582169 0.253174 0.077179 -0.443789
F28   F     F_    0.394638 0.747525 0.928036 -0.474935
F29   F     F_    0.253177 0.411946 0.073313 -0.457211
F30   F     F_    0.746169 0.601563 0.924824 -0.463725
F31   F     F_    0.393233 0.747538 0.071063 -0.477155
F32   F     F_    0.628982 0.245654 0.949715 -0.500490
F33   F     F_    0.746999 0.604700 0.064144 -0.463367
F34   F     F_    0.662585 0.334230 0.851259 -0.459513
F35   F     F_    0.249428 0.378050 0.943548 -0.492895
F36   F     F_    0.945025 0.623324 0.751673 -0.495503
F37   F     F_    0.070434 0.398111 0.253461 -0.474664
F38   F     F_    0.945529 0.247826 0.624057 -0.481172
F39   F     F_    0.075845 0.746681 0.415956 -0.443471
F40   F     F_    0.928400 0.391789 0.252792 -0.468180
F41   F     F_    0.073872 0.585567 0.746988 -0.452059
F42   F     F_    0.948313 0.753469 0.371019 -0.497811
F43   F     F_    0.079627 0.253593 0.594113 -0.477767
F44   F     F_    0.051695 0.630150 0.246452 -0.503722
F45   F     F_    0.335945 0.339179 0.154753 -0.457508
F46   F     F_    0.936025 0.393280 0.747142 -0.462054
F47   F     F_    0.070806 0.252502 0.394428 -0.474500
F48   F     F_    0.929707 0.746655 0.593930 -0.458284
F49   F     F_    0.075227 0.400336 0.746068 -0.463402
F50   F     F_    0.924070 0.583945 0.253690 -0.458018
F51   F     F_    0.065898 0.747437 0.601167 -0.459259
F52   F     F_    0.927801 0.252567 0.394260 -0.478102
F53   F     F_    0.747124 0.936401 0.605638 -0.462653
F54   F     F_    0.246045 0.051772 0.368977 -0.502807
F55   F     F_    0.599195 0.925074 0.253832 -0.472050
F56   F     F_    0.741839 0.744628 0.899154 -0.641857
F57   F     F_    0.415905 0.074051 0.746226 -0.451053
F58   F     F_    0.253918 0.925506 0.415237 -0.440840
F59   F     F_    0.746174 0.075656 0.599691 -0.474405
F60   F     F_    0.367975 0.947763 0.754563 -0.506972
F61   F     F_    0.607035 0.063897 0.252675 -0.457098
F62   F     F_    0.246967 0.051355 0.627660 -0.499341
F63   F     F_    0.745870 0.921047 0.405971 -0.471368
F64   F     F_    0.415703 0.075957 0.253773 -0.450020
F65   F     F_    0.621601 0.945599 0.751297 -0.477956
F66   F     F_    0.752183 0.053992 0.374868 -0.479968
F67   F     F_    0.666453 0.336757 0.150812 -0.459181
F68   F     F_    0.253900 0.922940 0.585326 -0.441403
F69   F     F_    0.595578 0.079631 0.745919 -0.463724
F70   F     F_    0.370303 0.948678 0.246441 -0.501290
F71   F     F_    0.251603 0.745191 0.900681 -0.617162
F72   F     F_    0.151947 0.661242 0.664601 -0.456509
N1    N     N_R   0.584840 0.879720 0.932190 -0.212756
N2    N     N_R   0.415160 0.879720 0.932190 -0.214659
N3    N     N_R   0.120280 0.415160 0.067810 -0.208075
N4    N     N_R   0.879720 0.584840 0.932190 -0.210717
N5    N     N_R   0.415160 0.879720 0.067810 -0.213894
N6    N     N_R   0.584840 0.120280 0.932190 -0.204691
N7    N     N_R   0.879720 0.584840 0.067810 -0.202272
N8    N     N_R   0.120280 0.415160 0.932190 -0.203772
N9    N     N_R   0.932190 0.584840 0.879720 -0.202577
N10   N     N_R   0.067810 0.415160 0.120280 -0.214780
N11   N     N_R   0.932190 0.120280 0.584840 -0.209229
N12   N     N_R   0.415160 0.120280 0.067810 -0.198446
N13   N     N_R   0.067810 0.879720 0.415160 -0.203709
N14   N     N_R   0.932190 0.415160 0.120280 -0.212009
N15   N     N_R   0.067810 0.584840 0.879720 -0.209165
N16   N     N_R   0.932190 0.879720 0.415160 -0.204037
N17   N     N_R   0.067810 0.120280 0.584840 -0.212486
N18   N     N_R   0.067810 0.584840 0.120280 -0.205352
N19   N     N_R   0.932190 0.415160 0.879720 -0.202059
N20   N     N_R   0.067810 0.120280 0.415160 -0.213422
N21   N     N_R   0.932190 0.879720 0.584840 -0.198599
N22   N     N_R   0.067810 0.415160 0.879720 -0.210475
N23   N     N_R   0.120280 0.584840 0.932190 -0.214528
N24   N     N_R   0.932190 0.584840 0.120280 -0.202978
N25   N     N_R   0.067810 0.879720 0.584840 -0.198958
N26   N     N_R   0.932190 0.120280 0.415160 -0.214115
N27   N     N_R   0.879720 0.932190 0.584840 -0.201460
N28   N     N_R   0.120280 0.067810 0.415160 -0.202341
N29   N     N_R   0.584840 0.932190 0.120280 -0.210736
N30   N     N_R   0.415160 0.067810 0.879720 -0.203277
N31   N     N_R   0.120280 0.932190 0.415160 -0.204487
N32   N     N_R   0.879720 0.067810 0.584840 -0.212258
N33   N     N_R   0.415160 0.932190 0.879720 -0.203654
N34   N     N_R   0.879720 0.415160 0.067810 -0.204239
N35   N     N_R   0.584840 0.067810 0.120280 -0.202547
N36   N     N_R   0.120280 0.067810 0.584840 -0.204847
N37   N     N_R   0.879720 0.932190 0.415160 -0.213126
N38   N     N_R   0.415160 0.067810 0.120280 -0.203698
N39   N     N_R   0.584840 0.932190 0.879720 -0.209084
N40   N     N_R   0.879720 0.067810 0.415160 -0.209135
N41   N     N_R   0.120280 0.932190 0.584840 -0.202692
N42   N     N_R   0.584840 0.067810 0.879720 -0.211610
N43   N     N_R   0.415160 0.932190 0.120280 -0.204623
N44   N     N_R   0.415160 0.120280 0.932190 -0.198538
N45   N     N_R   0.584840 0.879720 0.067810 -0.208526
N46   N     N_R   0.879720 0.415160 0.932190 -0.204167
N47   N     N_R   0.120280 0.584840 0.067810 -0.211470
N48   N     N_R   0.584840 0.120280 0.067810 -0.203507
Ni1   Ni    Ni4+2 0.500000 0.880920 0.000000 0.329045
Ni2   Ni    Ni4+2 0.119080 0.000000 0.500000 0.345406
Ni3   Ni    Ni4+2 0.500000 0.000000 0.119080 0.343280
Ni4   Ni    Ni4+2 0.500000 0.000000 0.880920 0.339121
Ni5   Ni    Ni4+2 0.500000 0.119080 0.000000 0.351407
Ni6   Ni    Ni4+2 0.119080 0.500000 0.000000 0.338340
Ni7   Ni    Ni4+2 0.880920 0.500000 0.000000 0.344578
Ni8   Ni    Ni4+2 1.000000 0.500000 0.880920 0.344886
Ni9   Ni    Ni4+2 1.000000 0.500000 0.119080 0.337831
Ni10  Ni    Ni4+2 0.000000 0.119080 0.500000 0.329038
Ni11  Ni    Ni4+2 1.000000 0.880920 0.500000 0.351804
Ni12  Ni    Ni4+2 0.880920 0.000000 0.500000 0.336297

loop_
_geom_bond_atom_site_label_1
_geom_bond_atom_site_label_2
_ccdc_geom_bond_type
C53   C110  S    
C120  N20   A    
C12   F58   S    
C16   N35   A    
C115  F41   S    
C89   F15   S    
N2    Ni1   S    
C115  N15   A    
C75   F2    S    
C94   F20   S    
C2    C84   A    
C67   F12   S    
C32   C58   S    
C40   C93   A    
C30   C90   A    
C92   F18   S    
N15   Ni8   S    
C16   C48   A    
C37   C62   S    
N5    N43   A    
C21   F66   S    
C72   F67   S    
N3    N10   A    
C117  F43   S    
N33   Ni4   S    
C32   C81   A    
C108  F35   S    
C77   C89   A    
C94   N23   A    
C112  F38   S    
C54   C107  A    
C68   F23   S    
N47   Ni6   S    
C93   F19   S    
C39   C77   S    
N2    N33   A    
C14   N32   A    
C83   F9    S    
C2    C68   A    
C25   F70   S    
N8    Ni6   S    
N35   Ni3   S    
C28   C51   S    
C57   C112  A    
N32   Ni12  S    
C38   C79   A    
C48   C101  A    
N31   Ni2   S    
C24   C54   S    
N11   Ni10  S    
C102  N2    A    
C26   C73   A    
C90   F16   S    
C71   F56   S    
C111  N10   A    
C100  N47   A    
C104  F30   S    
C27   C85   A    
N14   Ni9   S    
C116  F42   S    
C56   C108  A    
C21   C64   A    
C46   C55   S    
N38   Ni3   S    
C10   N29   A    
C102  F28   S    
C20   F65   S    
C91   F17   S    
C23   N42   A    
C17   F62   S    
C42   C114  A    
C47   C118  A    
C22   C63   A    
C100  F26   S    
N24   Ni9   S    
C30   C60   S    
N46   Ni7   S    
N14   N34   A    
C34   C57   S    
N8    N22   A    
C5    F50   S    
C41   C99   S    
C11   C43   A    
C35   C64   S    
N40   Ni12  S    
N17   N36   A    
C65   F1    S    
C109  F36   S    
C36   C63   S    
C78   F4    S    
N43   Ni3   S    
N18   Ni9   S    
C14   F59   S    
C44   C47   S    
N7    Ni7   S    
N17   Ni10  S    
C106  N6    A    
C38   C61   S    
C12   C58   A    
C105  N5    A    
C46   C98   A    
C50   C103  A    
C51   C109  A    
C20   N39   A    
C40   C66   S    
C15   F60   S    
N5    Ni1   S    
C101  N48   A    
C22   F68   S    
N26   Ni10  S    
C87   F14   S    
C21   N40   A    
C103  N3    A    
C41   C115  A    
C105  F31   S    
C79   F5    S    
C11   N30   A    
C72   C88   A    
N29   Ni3   S    
C3    F48   S    
C23   C53   A    
C12   N31   A    
C29   C50   S    
N21   N27   A    
C32   C84   A    
N3    Ni6   S    
C83   C110  A    
C106  F32   S    
C4    F49   S    
C42   C95   A    
C33   C43   S    
C5    C54   A    
C60   C117  A    
C4    N22   A    
C44   C81   A    
N6    N42   A    
C70   F45   S    
N25   N41   A    
C49   C102  A    
N9    Ni8   S    
C20   C39   A    
N30   Ni4   S    
C8    F53   S    
C59   C116  A    
N20   N28   A    
C36   C86   A    
C51   C104  A    
C5    N24   A    
N28   Ni2   S    
N13   N31   A    
C47   C100  A    
N7    N24   A    
N29   N45   A    
N16   Ni11  S    
C113  N13   A    
C6    C63   A    
C108  N8    A    
C97   F24   S    
C37   C80   A    
N13   Ni11  S    
C58   C113  A    
C6    N25   A    
C30   C76   A    
C69   C110  A    
N41   Ni2   S    
C86   F13   S    
C1    C65   A    
C41   C94   A    
C29   C79   A    
C13   C76   A    
C26   C86   A    
C22   N41   A    
N30   N44   A    
C10   C45   A    
N15   N23   A    
C43   C96   A    
C104  N4    A    
N19   N46   A    
C9    F54   S    
C55   C69   A    
C113  F39   S    
C55   C82   A    
C93   N12   A    
C53   C106  A    
C82   F8    S    
C107  F33   S    
C36   C74   A    
N6    Ni5   S    
C11   F57   S    
C24   C65   A    
C9    N28   A    
C24   C78   A    
C84   F10   S    
C15   N33   A    
C52   C105  A    
C92   N1    A    
C31   C91   A    
N27   Ni12  S    
N11   N32   A    
N4    Ni7   S    
C61   C120  A    
N48   Ni5   S    
C9    C61   A    
C26   C49   S    
C28   C71   A    
C42   C88   S    
C34   C83   A    
N1    N39   A    
C28   C80   A    
N20   Ni10  S    
C39   C92   A    
C71   C77   A    
C96   N44   A    
C31   C78   A    
C29   C70   A    
C13   C67   A    
C3    C62   A    
C119  F46   S    
C10   F55   S    
C73   C99   A    
C14   C57   A    
C101  F27   S    
C25   N43   A    
C34   C82   A    
C74   F72   S    
C76   F3    S    
N1    Ni1   S    
N44   Ni5   S    
C16   F61   S    
C35   C75   A    
N19   Ni8   S    
C19   F64   S    
C7    N26   A    
C95   F21   S    
C74   C99   A    
C98   N46   A    
C98   F25   S    
C37   C89   A    
C3    N21   A    
C97   N45   A    
N16   N37   A    
C119  N19   A    
C69   F34   S    
C112  N11   A    
C2    C52   S    
N45   Ni1   S    
C38   C87   A    
C118  N18   A    
N18   N47   A    
C13   C56   S    
C80   F6    S    
C109  N9    A    
N39   Ni4   S    
C114  F40   S    
C95   N34   A    
C33   C67   A    
C45   C97   A    
C33   C90   A    
C85   F11   S    
C107  N7    A    
C35   C85   A    
C1    C45   S    
C66   C70   A    
N12   Ni5   S    
C111  F37   S    
C18   F63   S    
C66   C87   A    
C31   C59   S    
N35   N48   A    
C117  N17   A    
C50   C111  A    
C17   N36   A    
C46   C119  A    
N21   Ni11  S    
C15   C49   A    
C27   C48   S    
N12   N38   A    
N26   N40   A    
C118  F44   S    
C19   N38   A    
C7    C64   A    
C25   C52   A    
N37   Ni12  S    
C44   C68   A    
C19   C40   A    
C103  F29   S    
C17   C60   A    
C96   F22   S    
C18   N37   A    
C114  N14   A    
C18   C59   A    
N10   Ni9   S    
N36   Ni2   S    
C116  N16   A    
N23   Ni6   S    
C1    C91   A    
C8    C62   A    
C8    N27   A    
C6    F51   S    
N22   Ni8   S    
C75   C88   A    
N25   Ni11  S    
C23   F69   S    
N4    N9    A    
C7    F52   S    
C4    C56   A    
C27   C72   A    
C81   F7    S    
C120  F47   S    
N42   Ni4   S    
C73   F71   S    
N34   Ni7   S    
