data_mof_unit_48846.cif
_audit_creation_date              2012-10-26T21:07:44-0400
_audit_creation_method            fapswitch 2.2
_symmetry_space_group_name_H-M    P1
_symmetry_Int_Tables_number       1
_space_group_crystal_system       triclinic
_cell_length_a                    10.893252
_cell_length_b                    9.098053
_cell_length_c                    7.776798
_cell_angle_alpha                 90.0
_cell_angle_beta                  100.615402
_cell_angle_gamma                 90.000017
_cell_volume                      757.547589703

loop_
_atom_site_label
_atom_site_type_symbol
_atom_type_description
_atom_site_fract_x
_atom_site_fract_y
_atom_site_fract_z
_atom_type_partial_charge
C1    C     C_R   0.500000 0.219981 0.500000 0.537925
C2    C     C_1   0.500000 0.934665 0.500000 -0.056767
C3    C     C_3   0.859377 0.311864 0.324111 -0.240396
C4    C     C_3   0.937548 0.201857 0.241093 -0.449340
C5    C     C_3   0.140623 0.311866 0.675892 -0.240396
C6    C     C_3   0.062453 0.201860 0.758911 -0.449340
C7    C     C_R   0.500000 0.780023 0.500000 0.558639
C8    C     C_R   0.261794 0.491149 0.433351 0.536665
C9    C     C_R   0.738206 0.491150 0.566649 0.536665
C10   C     C_2   0.126268 0.470518 0.404653 -0.124429
C11   C     C_2   0.873732 0.470519 0.595347 -0.124429
C12   C     C_2   0.068818 0.394020 0.517151 0.003320
C13   C     C_2   0.931182 0.394019 0.482850 0.003320
C14   C     C_1   0.500000 0.065374 0.500000 -0.061740
Cu1   Cu    Cu3+1 0.500010 0.500000 0.669080 0.994948
Cu2   Cu    Cu3+1 0.499990 0.500000 0.330920 0.994949
H1    H     H_    0.928841 0.519029 0.712397 0.091784
H2    H     H_    0.124410 0.139533 0.863212 0.142128
H3    H     H_    0.217756 0.248576 0.635094 0.161486
H4    H     H_    0.181318 0.392462 0.777919 0.172165
H5    H     H_    0.071159 0.519027 0.287603 0.091784
H6    H     H_    0.008475 0.259332 0.180038 0.149224
H7    H     H_    0.984453 0.122464 0.340195 0.156290
H8    H     H_    0.875591 0.139529 0.136793 0.142128
H9    H     H_    0.782245 0.248573 0.364911 0.161485
H10   H     H_    0.818681 0.392458 0.222082 0.172165
H11   H     H_    0.991524 0.259334 0.819963 0.149225
H12   H     H_    0.015549 0.122464 0.659809 0.156290
N1    N     N_1   0.499980 0.500000 0.076820 -0.088210
N2    N     N_1   0.500020 0.500000 0.923180 -0.088210
O1    O     O_R   0.500010 0.288400 0.642760 -0.502138
O2    O     O_R   0.499990 0.711600 0.357240 -0.489260
O3    O     O_R   0.499990 0.288400 0.357240 -0.502137
O4    O     O_R   0.500010 0.711600 0.642760 -0.489260
O5    O     O_R   0.320690 0.500000 0.590310 -0.507290
O6    O     O_R   0.679310 0.500000 0.409690 -0.507290
O7    O     O_R   0.320680 0.500000 0.304730 -0.495977
O8    O     O_R   0.679320 0.500000 0.695270 -0.495977

loop_
_geom_bond_atom_site_label_1
_geom_bond_atom_site_label_2
_ccdc_geom_bond_type
C9    O6    A    
Cu1   O8    S    
Cu1   O1    S    
N1    N2    T    
C5    H3    S    
Cu2   O3    S    
Cu2   O2    S    
C4    H6    S    
Cu1   O4    S    
C6    H11   S    
C3    C13   S    
C1    O1    A    
Cu2   O7    S    
C1    O3    A    
C5    H4    S    
Cu2   O6    S    
C9    C11   S    
C1    C14   S    
C10   C12   D    
C5    C12   S    
C2    C14   T    
Cu1   O5    S    
C9    O8    A    
C10   H5    S    
C5    C6    S    
C4    H8    S    
C7    O4    A    
C6    H2    S    
C11   C13   D    
C8    O7    A    
Cu1   Cu2   S    
C3    H9    S    
C12   C13   S    
Cu1   N2    S    
C8    C10   S    
C4    H7    S    
C11   H1    S    
C7    O2    A    
Cu2   N1    S    
C3    H10   S    
C6    H12   S    
C3    C4    S    
C2    C7    S    
C8    O5    A    
