data_mof_unit_65179.cif
_audit_creation_date              2012-12-10T19:50:45-0500
_audit_creation_method            fapswitch 2.2
_symmetry_space_group_name_H-M    P1
_symmetry_Int_Tables_number       1
_space_group_crystal_system       triclinic
_cell_length_a                    14.97274
_cell_length_b                    14.175762
_cell_length_c                    11.554678
_cell_angle_alpha                 90.001724
_cell_angle_beta                  90.033856
_cell_angle_gamma                 89.993104
_cell_volume                      2452.47994378

loop_
_atom_site_label
_atom_site_type_symbol
_atom_type_description
_atom_site_fract_x
_atom_site_fract_y
_atom_site_fract_z
_atom_type_partial_charge
C1    C     C_R   0.327830 0.500015 0.499133 0.919057
C2    C     C_R   0.672180 0.500007 0.499398 0.922781
C3    C     C_R   0.232228 0.500007 0.492456 -0.165410
C4    C     C_R   0.767824 0.500169 0.493706 -0.224496
C5    C     C_R   0.048425 0.499506 0.477572 -0.132341
C6    C     C_R   0.951941 0.501933 0.479505 -0.113013
C7    C     C_R   0.499997 0.053379 0.499989 0.134506
C8    C     C_R   0.499999 0.946656 0.499984 0.129324
C9    C     C_R   0.499981 0.499995 0.281753 0.904677
C10   C     C_R   0.500016 0.499998 0.718247 0.908742
C11   C     C_R   0.457450 0.105258 0.411575 -0.263595
C12   C     C_R   0.571808 0.894778 0.546850 -0.260422
C13   C     C_R   0.542541 0.105245 0.588411 -0.262437
C14   C     C_R   0.428194 0.894788 0.453116 -0.262411
C15   C     C_1   0.499976 0.499979 0.161380 -0.177838
C16   C     C_1   0.500015 0.499987 0.838623 -0.178478
C17   C     C_1   0.499984 0.499969 0.059287 0.011190
C18   C     C_1   0.500003 0.499973 0.940717 0.011088
C19   C     C_R   0.458020 0.204488 0.413440 0.031135
C20   C     C_R   0.570328 0.795550 0.546313 0.035492
C21   C     C_R   0.541974 0.204476 0.586557 0.034755
C22   C     C_R   0.429676 0.795559 0.453666 0.036248
C23   C     C_R   0.097374 0.568892 0.416615 0.406884
C24   C     C_R   0.903105 0.431927 0.418979 0.502066
C25   C     C_R   0.907663 0.571625 0.546424 0.462783
C26   C     C_R   0.091345 0.429531 0.543397 0.475353
C27   C     C_R   0.189363 0.569263 0.426969 -0.188700
C28   C     C_R   0.811182 0.430792 0.429337 -0.190216
C29   C     C_R   0.815432 0.570939 0.550145 -0.194089
C30   C     C_R   0.184135 0.429578 0.548968 -0.319384
H1    H     H_    0.424894 0.069771 0.340199 0.141733
H2    H     H_    0.629615 0.930266 0.582376 0.146583
H3    H     H_    0.575094 0.069749 0.659784 0.142265
H4    H     H_    0.370388 0.930284 0.417579 0.145169
H5    H     H_    0.424976 0.243225 0.345070 0.133639
H6    H     H_    0.625890 0.756903 0.582826 0.132158
H7    H     H_    0.575015 0.243201 0.654934 0.135697
H8    H     H_    0.374122 0.756920 0.417143 0.131640
H9    H     H_    0.227637 0.622640 0.381634 0.176888
H10   H     H_    0.773274 0.377047 0.384079 0.187652
H11   H     H_    0.780882 0.624289 0.600323 0.179733
H12   H     H_    0.218703 0.376353 0.599327 0.164031
N1    N     N_R   0.500000 0.252470 0.500000 -0.098054
N2    N     N_R   0.500000 0.747530 0.500000 -0.097230
O1    O     O_R   0.369060 0.579480 0.500010 -0.631664
O2    O     O_R   0.630940 0.420520 0.499990 -0.615115
O3    O     O_R   0.630940 0.579480 0.499990 -0.629027
O4    O     O_R   0.369060 0.420520 0.500010 -0.616663
O5    O     O_R   0.500010 0.579480 0.334450 -0.610171
O6    O     O_R   0.499990 0.420520 0.665550 -0.622977
O7    O     O_R   0.499990 0.579480 0.665550 -0.609289
O8    O     O_R   0.500010 0.420520 0.334450 -0.623046
Zn1   Zn    Zn3+2 0.500000 0.606140 0.500000 0.957008
Zn2   Zn    Zn3+2 0.500000 0.393860 0.500000 0.954572
O9    O     O_3   0.058648 0.637673 0.348204 -0.736934
H13   H     H_    0.994415 0.624066 0.337370 0.342380
O10   O     O_3   0.941784 0.363520 0.349922 -0.734241
H14   H     H_    0.005319 0.378648 0.335944 0.342114
O11   O     O_3   0.950851 0.640633 0.609971 -0.737935
H15   H     H_    0.015702 0.628098 0.612941 0.349672
O12   O     O_3   0.041063 0.363299 0.602294 -0.731143
H16   H     H_    0.081688 0.319730 0.644035 0.337307

loop_
_geom_bond_atom_site_label_1
_geom_bond_atom_site_label_2
_ccdc_geom_bond_type
C14   H4    S    
C3    C30   A    
C2    C4    S    
O9    H13   S    
C1    O4    A    
C23   O9    S    
C21   N1    A    
C23   C27   A    
C2    O3    A    
N1    Zn2   S    
C4    C29   A    
C5    C23   A    
O3    Zn1   S    
C8    C12   A    
C6    C24   A    
C12   C20   A    
C3    C27   A    
C17   C18   S    
C9    C15   S    
C11   H1    S    
C7    C8    S    
C1    O1    A    
C10   C16   S    
C12   H2    S    
C7    C11   A    
C14   C22   A    
O10   H14   S    
O6    Zn2   S    
C9    O8    A    
O5    Zn1   S    
C10   O7    A    
C20   N2    A    
O2    Zn2   S    
C19   N1    A    
C26   C30   A    
C30   H12   S    
C2    O2    A    
C25   C29   A    
C5    C6    S    
C8    C14   A    
C6    C25   A    
O12   H16   S    
C28   H10   S    
O7    Zn1   S    
O1    Zn1   S    
C5    C26   A    
C10   O6    A    
O11   H15   S    
C13   C21   A    
C9    O5    A    
C21   H7    S    
C16   C18   T    
C13   H3    S    
C27   H9    S    
O4    Zn2   S    
C29   H11   S    
C11   C19   A    
C19   H5    S    
C7    C13   A    
C25   O11   S    
C4    C28   A    
C15   C17   T    
N2    Zn1   S    
C26   O12   S    
C22   N2    A    
C24   C28   A    
O8    Zn2   S    
C24   O10   S    
C1    C3    S    
C22   H8    S    
C20   H6    S    
