data_mof_unit_57250.cif
_audit_creation_date              2012-12-10T19:45:43-0500
_audit_creation_method            fapswitch 2.2
_symmetry_space_group_name_H-M    P1
_symmetry_Int_Tables_number       1
_space_group_crystal_system       triclinic
_cell_length_a                    11.016759
_cell_length_b                    15.164429
_cell_length_c                    15.032964
_cell_angle_alpha                 63.337647
_cell_angle_beta                  113.431671
_cell_angle_gamma                 101.143256
_cell_volume                      2058.9776088

loop_
_atom_site_label
_atom_site_type_symbol
_atom_type_description
_atom_site_fract_x
_atom_site_fract_y
_atom_site_fract_z
_atom_type_partial_charge
C1    C     C_R   0.480433 0.118901 0.310917 0.838850
C2    C     C_R   0.520825 0.880984 0.689329 0.839420
C3    C     C_R   0.870537 0.994240 0.500877 -0.069397
C4    C     C_R   0.129626 0.005576 0.499233 -0.063505
C5    C     C_R   0.904316 0.939511 0.457694 0.047003
C6    C     C_R   0.095963 0.060247 0.542397 0.061195
C7    C     C_R   0.464491 0.188897 0.198102 -0.153397
C8    C     C_R   0.538158 0.810992 0.802445 -0.115626
C9    C     C_R   0.359948 0.240063 0.006661 -0.139666
C10   C     C_R   0.643927 0.759947 0.993871 -0.133259
C11   C     C_R   0.400549 0.165037 0.109335 0.180491
C12   C     C_R   0.602498 0.834961 0.891151 0.184706
C13   C     C_R   0.508315 0.287395 0.178260 -0.191203
C14   C     C_R   0.495219 0.712364 0.822597 -0.215166
C15   C     C_R   0.478068 0.363030 0.074037 0.080963
C16   C     C_R   0.525908 0.636800 0.926846 0.071297
C17   C     C_R   0.392026 0.339204 0.988399 0.041809
C18   C     C_R   0.612187 0.660709 0.012302 0.047867
C19   C     C_R   0.526184 0.462220 0.053035 0.046370
C20   C     C_R   0.478078 0.537584 0.947909 0.036865
C21   C     C_R   0.380559 0.512022 0.867754 -0.159041
C22   C     C_R   0.624016 0.487788 0.133106 -0.168029
C23   C     C_R   0.263119 0.001283 0.499746 0.819776
C24   C     C_R   0.737013 0.998540 0.500501 0.810317
C25   C     C_R   0.339978 0.414852 0.886485 0.162648
C26   C     C_R   0.664909 0.585041 0.114130 0.161066
C27   C     C_R   0.679772 0.251119 0.705885 -0.267625
C28   C     C_R   0.315858 0.747895 0.294504 -0.261011
C29   C     C_R   0.677804 0.190747 0.659222 0.541474
C30   C     C_R   0.320047 0.808678 0.341429 0.542703
C31   C     C_R   0.497615 0.284376 0.503029 0.470947
C32   C     C_R   0.502782 0.715588 0.495823 0.468162
C33   C     C_R   0.525433 0.362899 0.540329 -0.109207
C34   C     C_R   0.475417 0.637790 0.457555 -0.101389
C35   C     C_R   0.622483 0.342879 0.643643 -0.149979
C36   C     C_R   0.377906 0.657870 0.354510 -0.155379
C37   C     C_R   0.470433 0.461829 0.481761 -0.063845
C38   C     C_R   0.531732 0.539217 0.515198 -0.052641
C39   C     C_R   0.648097 0.514362 0.602227 -0.001935
C40   C     C_R   0.355800 0.487177 0.393217 -0.004262
C41   C     C_R   0.675841 0.419232 0.677532 0.420234
C42   C     C_R   0.329602 0.582547 0.318408 0.407519
C43   C     C_R   0.366361 0.165716 0.719909 -0.123279
C44   C     C_R   0.634329 0.833768 0.280058 -0.121470
C45   C     C_R   0.294296 0.101331 0.673246 -0.143469
C46   C     C_R   0.705599 0.897878 0.327369 -0.142102
C47   C     C_R   0.181162 0.133744 0.580772 0.005779
C48   C     C_R   0.819665 0.865869 0.419109 0.005099
C49   C     C_R   0.136765 0.231916 0.538361 0.510777
C50   C     C_R   0.865859 0.768407 0.459921 0.504896
C51   C     C_R   0.211797 0.295128 0.586394 -0.151528
C52   C     C_R   0.791772 0.705637 0.411014 -0.149005
C53   C     C_R   0.326293 0.262429 0.675890 -0.187568
C54   C     C_R   0.676344 0.737858 0.322396 -0.188945
C55   C     C_R   0.969985 0.048315 0.547251 -0.131732
C56   C     C_R   0.030274 0.951613 0.452791 -0.139191
Cu1   Cu    Cu3+1 0.466270 0.918260 0.475690 1.103145
Cu2   Cu    Cu3+1 0.533730 0.081740 0.524310 1.112739
H1    H     H_    0.384184 0.312158 0.711716 0.186037
H2    H     H_    0.619202 0.688368 0.285987 0.185536
H3    H     H_    0.305499 0.219579 0.940763 0.195283
H4    H     H_    0.698646 0.780502 0.059685 0.192912
H5    H     H_    0.330894 0.566492 0.789366 0.169702
H6    H     H_    0.673813 0.433213 0.211461 0.183884
H7    H     H_    0.744659 0.232547 0.787141 0.260894
H8    H     H_    0.247195 0.765130 0.214589 0.263474
H9    H     H_    0.734776 0.552741 0.587508 0.194824
H10   H     H_    0.268002 0.450436 0.407332 0.194179
H11   H     H_    0.452827 0.140944 0.791216 0.186777
H12   H     H_    0.547015 0.858141 0.209448 0.188959
H13   H     H_    0.324938 0.025446 0.710476 0.161017
H14   H     H_    0.673666 0.973321 0.291100 0.158220
H15   H     H_    0.181627 0.370381 0.554310 0.188214
H16   H     H_    0.823239 0.630929 0.441997 0.188608
H17   H     H_    0.948741 0.084436 0.586369 0.220979
H18   H     H_    0.051755 0.915464 0.413819 0.228059
H19   H     H_    0.442380 0.694884 0.754991 0.178366
H20   H     H_    0.561940 0.304608 0.246043 0.200350
N1    N     N_R   0.584450 0.204570 0.560790 -0.289255
N2    N     N_R   0.415550 0.795430 0.439210 -0.295178
O1    O     O_R   0.455540 0.022090 0.338120 -0.538516
O2    O     O_R   0.544460 0.977910 0.661880 -0.543680
O3    O     O_R   0.512510 0.160150 0.379180 -0.512969
O4    O     O_R   0.487490 0.839850 0.620820 -0.534275
O5    O     O_R   0.291160 0.930970 0.479480 -0.513630
O6    O     O_R   0.708840 0.069030 0.520520 -0.509705
O7    O     O_R   0.348130 0.069020 0.520540 -0.547515
O8    O     O_R   0.651870 0.930980 0.479460 -0.557392
S1    S     S_3+6 0.804658 0.402909 0.801604 0.052163
O9    O     O_2   0.753390 0.338310 0.890012 -0.296611
O10   O     O_2   0.920250 0.354174 0.813990 -0.234196
O11   O     O_3   0.856267 0.511591 0.809974 -0.435926
H21   H     H_    0.926536 0.494792 0.881111 0.382077
S2    S     S_3+6 0.207450 0.599669 0.191518 0.062048
O12   O     O_2   0.082941 0.637123 0.179793 -0.238964
O13   O     O_2   0.258544 0.674000 0.106325 -0.286173
O14   O     O_3   0.172115 0.493149 0.176613 -0.419319
H22   H     H_    0.104557 0.510108 0.104313 0.379505
S3    S     S_3+6 0.640335 0.702391 0.620838 0.037547
O15   O     O_2   0.764704 0.679423 0.620616 -0.258868
O16   O     O_2   0.687079 0.787010 0.651956 -0.258215
O17   O     O_3   0.599814 0.607848 0.719738 -0.544326
H23   H     H_    0.663499 0.612143 0.786331 0.396798
S4    S     S_3+6 0.361797 0.296452 0.377464 0.048367
O18   O     O_2   0.238011 0.322672 0.375847 -0.265703
O19   O     O_2   0.401005 0.378838 0.289497 -0.292621
O20   O     O_3   0.300659 0.203312 0.340098 -0.491460
H24   H     H_    0.242370 0.234320 0.264449 0.379107
S5    S     S_3+6 0.176462 0.882911 0.277978 0.067396
O21   O     O_2   0.113201 0.898277 0.163187 -0.237629
O22   O     O_2   0.078746 0.825218 0.330719 -0.271427
O23   O     O_3   0.202256 0.995071 0.279302 -0.514228
H25   H     H_    0.113823 0.025294 0.242145 0.365208
S6    S     S_3+6 0.823392 0.119491 0.720853 0.068658
O24   O     O_2   0.916749 0.178207 0.663921 -0.277412
O25   O     O_2   0.890132 0.106680 0.834697 -0.234484
O26   O     O_3   0.798952 0.006451 0.721779 -0.510480
H26   H     H_    0.887976 0.977228 0.758183 0.371761
S7    S     S_3+6 0.993088 0.281055 0.422159 0.037024
O27   O     O_2   0.872780 0.261550 0.452262 -0.287920
O28   O     O_2   0.009773 0.390781 0.366081 -0.233822
O29   O     O_3   0.969688 0.229289 0.338123 -0.505567
H27   H     H_    0.881867 0.252080 0.282482 0.367695
S8    S     S_3+6 0.009813 0.718821 0.575951 0.044263
O30   O     O_2   0.031022 0.764312 0.651777 -0.255198
O31   O     O_2   0.992874 0.609006 0.631145 -0.232192
O32   O     O_3   0.144713 0.740368 0.542797 -0.507610
H28   H     H_    0.219518 0.715608 0.611403 0.358133
I1    I     I_    0.186987 0.392459 0.757146 -0.180535
I2    I     I_    0.819920 0.607785 0.242394 -0.174004
I3    I     I_    0.632323 0.978012 0.886190 -0.264206
I4    I     I_    0.370680 0.022053 0.114228 -0.263080

loop_
_geom_bond_atom_site_label_1
_geom_bond_atom_site_label_2
_ccdc_geom_bond_type
C41   S1    S    
C29   S6    S    
C56   H18   S    
C12   I3    S    
C45   H13   S    
C5    C56   A    
C36   C42   A    
C19   C20   A    
C18   C26   A    
C6    C55   A    
C25   I1    S    
C11   I4    S    
S4    O19   D    
S6    O24   D    
C53   H1    S    
C39   C41   A    
C54   H2    S    
C15   C19   A    
C9    H3    S    
C37   C40   A    
C52   H16   S    
Cu2   O2    S    
C38   C39   A    
C27   C29   A    
C1    O1    A    
C23   O5    A    
C14   H19   S    
S4    O18   D    
C1    C7    S    
C3    C55   A    
C43   C53   A    
C44   C46   A    
C49   C51   A    
C50   C52   A    
O20   H24   S    
C31   C33   A    
C44   H12   S    
C14   C16   A    
S1    O10   D    
C46   H14   S    
C26   I2    S    
C8    C12   A    
C30   N2    A    
C40   C42   A    
C43   H11   S    
C23   O7    A    
Cu2   O7    S    
Cu1   N2    S    
C42   S2    S    
C3    C24   S    
O17   H23   S    
Cu2   O6    S    
O23   H25   S    
C52   C54   A    
O14   H22   S    
C45   C47   A    
C5    C48   S    
C46   C48   A    
C6    C47   S    
C30   S5    S    
C19   C22   A    
C50   S8    S    
C47   C49   A    
S5    O23   S    
C4    C23   S    
S2    O14   S    
C27   C35   A    
C33   C37   A    
C51   C53   A    
C32   C34   A    
C28   H8    S    
C37   C38   A    
C27   H7    S    
C32   N2    A    
C9    C11   A    
C7    C11   A    
S3    O15   D    
C29   N1    A    
C16   C20   A    
C2    O4    A    
Cu1   O4    S    
S1    O11   S    
S2    O13   D    
C48   C50   A    
C43   C45   A    
S7    O28   D    
C10   C12   A    
Cu2   N1    S    
S8    O32   S    
C4    C6    A    
S3    O16   D    
C13   C15   A    
C40   H10   S    
Cu1   O1    S    
C2    O2    A    
O32   H28   S    
S8    O31   D    
S7    O29   S    
C9    C17   A    
C15   C17   A    
C21   C25   A    
C13   H20   S    
C8    C14   A    
C34   C38   A    
C39   H9    S    
C24   O8    A    
C2    C8    S    
C51   H15   S    
C3    C5    A    
S6    O25   D    
S7    O27   D    
C32   S3    S    
C31   N1    A    
C1    O3    A    
O26   H26   S    
Cu1   O8    S    
C17   C25   A    
C31   S4    S    
S5    O22   D    
O29   H27   S    
C55   H17   S    
Cu2   O3    S    
Cu1   Cu2   S    
C49   S7    S    
C10   C18   A    
C28   C30   A    
O11   H21   S    
C33   C35   A    
Cu1   O5    S    
C34   C36   A    
S2    O12   D    
C35   C41   A    
C21   H5    S    
S6    O26   S    
C10   H4    S    
C22   H6    S    
C44   C54   A    
C7    C13   A    
S3    O17   S    
C20   C21   A    
C28   C36   A    
C16   C18   A    
C22   C26   A    
S1    O9    D    
S5    O21   D    
C24   O6    A    
S4    O20   S    
C4    C56   A    
S8    O30   D    
