data_mof_unit_27288.cif
_audit_creation_date              2012-12-10T16:55:00-0500
_audit_creation_method            fapswitch 2.2
_symmetry_space_group_name_H-M    P1
_symmetry_Int_Tables_number       1
_space_group_crystal_system       triclinic
_cell_length_a                    7.764669
_cell_length_b                    8.613314
_cell_length_c                    15.715403
_cell_angle_alpha                 90.885494
_cell_angle_beta                  85.878587
_cell_angle_gamma                 93.557174
_cell_volume                      1046.23727416

loop_
_atom_site_label
_atom_site_type_symbol
_atom_type_description
_atom_site_fract_x
_atom_site_fract_y
_atom_site_fract_z
_atom_type_partial_charge
C1    C     C_R   0.546072 0.794213 0.500876 0.901679
C2    C     C_2   0.434449 0.042077 0.506852 -0.395572
C3    C     C_R   0.502064 0.500058 0.661630 0.900924
C4    C     C_R   0.455190 0.205519 0.504926 0.969358
C5    C     C_R   0.497948 0.499979 0.338373 0.907554
C6    C     C_3   0.346275 0.586298 0.955475 -0.398347
C7    C     C_3   0.671711 0.582779 0.947017 -0.400286
C8    C     C_3   0.667557 0.583075 0.045346 -0.397098
C9    C     C_1   0.493776 0.500376 0.249592 -0.185913
C10   C     C_3   0.503537 0.499768 0.917310 0.371328
C11   C     C_3   0.342120 0.586567 0.053803 -0.398400
C12   C     C_3   0.496538 0.500242 0.082678 0.371677
C13   C     C_3   0.484183 0.330757 0.048324 -0.401481
C14   C     C_3   0.488379 0.330476 0.949991 -0.398442
C15   C     C_1   0.493442 0.500445 0.174223 -0.130158
C16   C     C_1   0.506619 0.499576 0.825768 -0.129980
C17   C     C_1   0.506257 0.499657 0.750403 -0.181744
C18   C     C_2   0.572629 0.956305 0.511533 -0.080378
H1    H     H_    0.348344 0.708679 0.078215 0.165277
H2    H     H_    0.685316 0.704697 0.923793 0.164315
H3    H     H_    0.679249 0.705157 0.069575 0.164775
H4    H     H_    0.780412 0.523030 0.065761 0.164898
H5    H     H_    0.368428 0.268503 0.928879 0.164914
H6    H     H_    0.600092 0.266041 0.923022 0.165310
H7    H     H_    0.362217 0.268943 0.074673 0.164421
H8    H     H_    0.777033 0.966614 0.585650 0.173160
H9    H     H_    0.830467 0.991945 0.480149 0.192902
H10   H     H_    0.223858 0.528673 0.934490 0.165235
H11   H     H_    0.217801 0.528993 0.080262 0.165379
H12   H     H_    0.593872 0.266415 0.068817 0.164667
H13   H     H_    0.305093 0.991352 0.497932 0.155458
H14   H     H_    0.013572 0.381878 0.436773 0.192906
H15   H     H_    0.986405 0.618116 0.563227 0.187751
H16   H     H_    0.354404 0.708309 0.932437 0.164833
H17   H     H_    0.786461 0.522520 0.919985 0.165814
N1    N     N_2   0.950340 0.457950 0.477370 -0.168911
N2    N     N_2   0.049660 0.542050 0.522630 -0.173062
N3    N     N_3   0.742018 0.019761 0.530588 -0.405304
O1    O     O_R   0.389240 0.738570 0.505550 -0.624227
O2    O     O_R   0.678400 0.711630 0.491050 -0.636761
O3    O     O_R   0.355360 0.513470 0.630110 -0.613800
O4    O     O_R   0.644510 0.486530 0.615610 -0.622053
O5    O     O_R   0.321600 0.288370 0.508950 -0.637092
O6    O     O_R   0.610760 0.261430 0.494450 -0.576916
O7    O     O_R   0.355490 0.513470 0.384390 -0.621589
O8    O     O_R   0.644640 0.486530 0.369890 -0.614261
Zn1   Zn    Zn3+2 0.306930 0.517990 0.509680 0.938963
Zn2   Zn    Zn3+2 0.693070 0.482010 0.490320 0.948275

loop_
_geom_bond_atom_site_label_1
_geom_bond_atom_site_label_2
_ccdc_geom_bond_type
C14   H5    S    
C6    C10   S    
C7    C10   S    
C8    H4    S    
C11   C12   S    
C3    O4    A    
C5    C9    S    
C4    O5    A    
N2    Zn1   S    
C5    O8    A    
C2    H13   S    
C2    C4    S    
C12   C15   S    
C8    C12   S    
C13   H7    S    
C8    H3    S    
O3    Zn1   S    
C7    C8    S    
O4    Zn2   S    
C13   C14   S    
C11   H1    S    
C1    C18   S    
C5    O7    A    
H14   N1    S    
H8    N3    S    
C7    H17   S    
N1    N2    D    
C3    C17   S    
N1    Zn2   S    
O8    Zn2   S    
O7    Zn1   S    
C18   N3    S    
H15   N2    S    
C2    C18   D    
C1    O1    A    
H9    N3    S    
C6    H16   S    
C13   H12   S    
C12   C13   S    
C11   H11   S    
O1    Zn1   S    
C7    H2    S    
C10   C14   S    
C14   H6    S    
C6    C11   S    
O2    Zn2   S    
C3    O3    A    
C10   C16   S    
C4    O6    A    
C1    O2    A    
C9    C15   T    
O5    Zn1   S    
C6    H10   S    
O6    Zn2   S    
C16   C17   T    
