data_mof_unit_29176.cif
_audit_creation_date              2012-12-11T15:16:44-0500
_audit_creation_method            fapswitch 2.2
_symmetry_space_group_name_H-M    P1
_symmetry_Int_Tables_number       1
_space_group_crystal_system       triclinic
_cell_length_a                    25.106109
_cell_length_b                    7.232625
_cell_length_c                    21.903338
_cell_angle_alpha                 89.997675
_cell_angle_beta                  110.342077
_cell_angle_gamma                 89.997851
_cell_volume                      3729.22822238

loop_
_atom_site_label
_atom_site_type_symbol
_atom_type_description
_atom_site_fract_x
_atom_site_fract_y
_atom_site_fract_z
_atom_type_partial_charge
O1    O     O_R   0.554350 0.505270 0.581390 -0.520915
O2    O     O_R   0.445650 0.005270 0.418610 -0.520932
O3    O     O_R   0.553380 0.177580 0.454800 -0.513699
O4    O     O_R   0.446620 0.677580 0.545200 -0.513719
C1    C     C_R   0.564463 0.343510 0.436547 0.725326
C2    C     C_R   0.435538 0.843510 0.563452 0.725337
O5    O     O_R   0.560970 0.175640 0.583140 -0.538620
O6    O     O_R   0.439030 0.675640 0.416860 -0.538606
O7    O     O_R   0.453290 0.004120 0.547860 -0.536360
O8    O     O_R   0.546710 0.504120 0.452140 -0.536362
C3    C     C_R   0.576207 0.343767 0.607574 0.716466
C4    C     C_R   0.423794 0.843780 0.392426 0.716456
O9    O     O_3   0.464660 0.338800 0.488280 -0.370274
O10   O     O_3   0.535340 0.838800 0.511720 -0.370255
V1    V     V_3+5 0.506560 0.064420 0.502170 1.508283
V2    V     V_3+5 0.493440 0.564420 0.497830 1.508271
C5    C     C_R   0.147585 0.030026 0.288199 0.177184
C6    C     C_R   0.852378 0.530543 0.711833 0.177161
H1    H     H_    0.063806 0.066124 0.216307 0.111990
H2    H     H_    0.936153 0.566627 0.783727 0.112022
C7    C     C_R   0.119915 0.945608 0.173664 -0.079897
C8    C     C_R   0.880081 0.445681 0.826336 -0.079937
C9    C     C_R   0.394567 0.811125 0.273570 -0.120778
C10   C     C_R   0.605452 0.310749 0.726421 -0.120671
C11   C     C_R   0.354449 0.809983 0.210726 0.191704
C12   C     C_R   0.645577 0.309452 0.789260 0.191688
C13   C     C_R   0.297239 0.843915 0.201142 -0.154989
C14   C     C_R   0.702780 0.343528 0.798848 -0.154994
C15   C     C_R   0.278457 0.877702 0.254135 0.051291
C16   C     C_R   0.721548 0.377620 0.745863 0.051288
C17   C     C_R   0.320272 0.882524 0.317837 0.016642
C18   C     C_R   0.679724 0.382605 0.682166 0.016622
C19   C     C_R   0.219815 0.911523 0.245369 0.017027
C20   C     C_R   0.780182 0.411580 0.754632 0.017024
C21   C     C_R   0.204402 0.964585 0.300219 0.096068
C22   C     C_R   0.795576 0.464952 0.699797 0.096077
C23   C     C_R   0.246518 0.950153 0.363971 0.148736
C24   C     C_R   0.753456 0.450673 0.636044 0.148738
C25   C     C_R   0.303162 0.914183 0.371163 -0.183558
C26   C     C_R   0.696820 0.414554 0.628847 -0.183558
C27   C     C_R   0.175977 0.894897 0.183291 -0.208066
C28   C     C_R   0.824031 0.394805 0.816698 -0.208084
C29   C     C_R   0.106720 0.016927 0.225495 -0.164532
C30   C     C_R   0.893252 0.517300 0.774527 -0.164509
C31   C     C_R   0.378569 0.849301 0.327268 -0.118204
C32   C     C_R   0.621434 0.349232 0.672732 -0.118183
H3    H     H_    0.183906 0.844341 0.141003 0.105118
H4    H     H_    0.816118 0.344026 0.858970 0.105153
H5    H     H_    0.438701 0.782274 0.280829 0.157829
H6    H     H_    0.561325 0.281773 0.719157 0.157772
H7    H     H_    0.268776 0.846022 0.151329 0.116302
H8    H     H_    0.731249 0.345494 0.848660 0.116300
H9    H     H_    0.334442 0.908842 0.419873 0.101874
H10   H     H_    0.665537 0.409332 0.580137 0.101912
C33   C     C_R   0.130401 0.779112 0.891230 -0.172676
C34   C     C_R   0.869601 0.279120 0.108774 -0.172676
H11   H     H_    0.125726 0.653830 0.915985 0.132888
H12   H     H_    0.874278 0.153839 0.084022 0.132884
C35   C     C_R   0.165271 0.775881 0.853385 -0.177643
C36   C     C_R   0.834731 0.275893 0.146619 -0.177642
H13   H     H_    0.186859 0.648279 0.850781 0.142906
H14   H     H_    0.813143 0.148299 0.149226 0.142896
C37   C     C_R   0.173123 0.934505 0.820119 0.016628
C38   C     C_R   0.826878 0.434517 0.179880 0.016644
C39   C     C_R   0.144446 0.099719 0.825647 0.152626
C40   C     C_R   0.855552 0.599723 0.174350 0.152625
C41   C     C_R   0.110140 0.101521 0.864719 -0.145070
C42   C     C_R   0.889859 0.601522 0.135278 -0.145062
H15   H     H_    0.088294 0.227920 0.868430 0.122928
H16   H     H_    0.911704 0.727916 0.131565 0.122926
C43   C     C_R   0.102670 0.942246 0.897778 -0.082548
C44   C     C_R   0.897330 0.442248 0.102223 -0.082546
N1    N     N_R   0.239927 0.069188 0.770290 -0.283058
N2    N     N_R   0.760048 0.569193 0.229674 -0.283056
N3    N     N_R   0.274730 0.053719 0.736350 -0.284449
N4    N     N_R   0.725245 0.553729 0.263614 -0.284450
C45   C     C_R   0.282217 0.888264 0.711102 0.529141
C46   C     C_R   0.717785 0.388296 0.288898 0.529132
N5    N     N_R   0.252527 0.740181 0.720243 -0.283699
N6    N     N_R   0.747503 0.240231 0.279794 -0.283704
N7    N     N_R   0.217755 0.755773 0.754157 -0.291624
N8    N     N_R   0.782274 0.255818 0.245879 -0.291615
C47   C     C_R   0.210672 0.920665 0.780107 0.515893
C48   C     C_R   0.789330 0.420687 0.219893 0.515889
C49   C     C_R   0.360177 0.716286 0.684261 0.106420
C50   C     C_R   0.639848 0.216270 0.315762 0.106419
C51   C     C_R   0.397872 0.706512 0.648443 0.264164
C52   C     C_R   0.602156 0.206475 0.351583 0.264163
C53   C     C_R   0.398092 0.849463 0.603755 -0.127900
C54   C     C_R   0.601909 0.349464 0.396244 -0.127907
C55   C     C_R   0.362072 0.002022 0.597647 -0.188039
C56   C     C_R   0.637902 0.502072 0.402322 -0.188014
H17   H     H_    0.361582 0.113540 0.564429 0.159637
H18   H     H_    0.638372 0.613621 0.435517 0.159716
C57   C     C_R   0.325281 0.012160 0.632828 -0.159107
C58   C     C_R   0.674694 0.512221 0.367142 -0.159093
H19   H     H_    0.297719 0.131492 0.625977 0.149081
H20   H     H_    0.702236 0.631588 0.373971 0.149095
C59   C     C_R   0.322809 0.869798 0.675249 -0.028020
C60   C     C_R   0.677192 0.369826 0.324749 -0.028019
O11   O     O_R   0.953220 0.285790 0.047790 -0.536724
O12   O     O_R   0.046780 0.785790 0.952210 -0.536722
O13   O     O_R   0.939020 0.617570 0.916840 -0.533198
O14   O     O_R   0.060980 0.117570 0.083160 -0.533188
C61   C     C_R   0.924061 0.448987 0.892193 0.692273
C62   C     C_R   0.075938 0.948973 0.107807 0.692275
O15   O     O_R   0.946600 0.615450 0.045180 -0.541272
O16   O     O_R   0.053400 0.115450 0.954820 -0.541273
O17   O     O_R   0.054370 0.786770 0.081410 -0.531969
O18   O     O_R   0.945630 0.286770 0.918590 -0.531971
C63   C     C_R   0.934770 0.447531 0.062217 0.684596
C64   C     C_R   0.065231 0.947531 0.937783 0.684580
O19   O     O_3   0.035300 0.454160 0.011680 -0.373498
O20   O     O_3   0.964700 0.954160 0.988320 -0.373504
V3    V     V_3+5 0.993450 0.728620 0.997830 1.407905
V4    V     V_3+5 0.006550 0.228620 0.002170 1.407903
C65   C     C_3   0.147750 0.273235 0.788984 -0.740743
H21   H     H_    0.117941 0.381187 0.793698 0.193101
H22   H     H_    0.191268 0.331653 0.808492 0.236503
H23   H     H_    0.136331 0.242044 0.736342 0.224483
C66   C     C_3   0.852246 0.773232 0.211009 -0.740767
H24   H     H_    0.882055 0.881177 0.206296 0.193108
H25   H     H_    0.808728 0.831661 0.191500 0.236499
H26   H     H_    0.863663 0.742027 0.263652 0.224475
C67   C     C_3   0.360632 0.568365 0.733580 -0.659472
H27   H     H_    0.397691 0.474968 0.746698 0.242784
H28   H     H_    0.361961 0.633707 0.779966 0.205055
H29   H     H_    0.321954 0.481482 0.714111 0.231451
C68   C     C_3   0.639416 0.068324 0.266465 -0.659473
H30   H     H_    0.602365 0.974908 0.253350 0.242783
H31   H     H_    0.638088 0.133642 0.220074 0.205057
H32   H     H_    0.678102 0.981470 0.285952 0.231445
Br1   Br    Br    0.450910 0.502311 0.663460 -0.604293
Br2   Br    Br    0.549166 0.002168 0.336609 -0.604377
C69   C     C_3   0.233160 0.950677 0.426218 -0.772445
H33   H     H_    0.197158 0.856144 0.421461 0.214510
H34   H     H_    0.269181 0.897528 0.468276 0.202775
H35   H     H_    0.224901 0.092581 0.439632 0.214789
C70   C     C_3   0.766807 0.451515 0.573793 -0.772464
H36   H     H_    0.802830 0.357096 0.578512 0.214517
H37   H     H_    0.730795 0.398416 0.531720 0.202762
H38   H     H_    0.775034 0.593508 0.560430 0.214802
C71   C     C_3   0.129601 0.135819 0.337345 -0.777441
H39   H     H_    0.123825 0.042168 0.374514 0.215336
H40   H     H_    0.160627 0.247314 0.359557 0.214465
H41   H     H_    0.088108 0.206384 0.314293 0.203053
C72   C     C_3   0.870327 0.636656 0.662725 -0.777442
H42   H     H_    0.876118 0.543216 0.625512 0.215334
H43   H     H_    0.839274 0.748135 0.640567 0.214479
H44   H     H_    0.911806 0.707274 0.685800 0.203049
C73   C     C_3   0.372214 0.772845 0.153088 -0.755262
H45   H     H_    0.418694 0.748592 0.167975 0.221830
H46   H     H_    0.349793 0.648419 0.126798 0.208308
H47   H     H_    0.361074 0.893209 0.119542 0.212643
C74   C     C_3   0.627830 0.271979 0.846888 -0.755244
H48   H     H_    0.581355 0.247629 0.832000 0.221820
H49   H     H_    0.650279 0.147510 0.873124 0.208308
H50   H     H_    0.638951 0.392224 0.880484 0.212650

loop_
_geom_bond_atom_site_label_1
_geom_bond_atom_site_label_2
_ccdc_geom_bond_type
C69   H35   S    
C40   C42   A    
C61   O18   A    
C37   C39   A    
C9    C31   A    
C71   H40   S    
C33   C35   A    
C74   H49   S    
C14   H8    S    
C51   Br1   S    
C49   C67   S    
C72   H42   S    
O1    C3    A    
O2    C4    A    
C2    O7    A    
O14   C62   A    
O20   V3    S    
C69   H33   S    
C8    C28   A    
O5    C3    A    
N2    N4    A    
C72   H43   S    
N4    C46   A    
C65   H22   S    
C70   H38   S    
C57   C59   A    
C9    H5    S    
C13   C15   A    
C71   H39   S    
C15   C19   A    
C56   C58   A    
C50   C52   A    
C36   H14   S    
C73   H47   S    
C38   C48   S    
C66   H26   S    
O12   V3    S    
H2    C30   S    
O14   V4    S    
O12   C64   A    
C8    C30   A    
C13   H7    S    
C20   C28   A    
C34   C44   A    
C58   H20   S    
C67   H29   S    
C73   H45   S    
C23   C69   S    
C53   C55   A    
C50   C60   A    
C11   C73   S    
C41   C43   A    
C7    C62   S    
C42   C44   A    
O19   V4    S    
C42   H16   S    
O5    V1    S    
C44   C63   S    
O6    V2    S    
C24   C26   A    
C7    C29   A    
C74   H50   S    
N1    N3    A    
C12   C74   S    
C18   C32   A    
C12   C14   A    
N7    C47   A    
H1    C29   S    
C45   N5    A    
C10   H6    S    
C35   H13   S    
C16   C20   A    
C49   C51   A    
C72   H44   S    
N6    N8    A    
C6    C72   S    
C65   H23   S    
N5    N7    A    
C39   C41   A    
O16   C64   A    
C37   C47   S    
C41   H15   S    
C38   C40   A    
O4    V2    S    
O13   V3    S    
C5    C29   A    
C49   C59   A    
C6    C30   A    
C55   H17   S    
C54   C56   A    
O6    C4    A    
C43   C64   S    
C56   H18   S    
C27   H3    S    
C40   C66   S    
O13   C61   A    
O1    V2    S    
C28   H4    S    
O2    V1    S    
N3    C45   A    
O15   V3    S    
C66   H24   S    
C7    C27   A    
O4    C2    A    
C52   C54   A    
N8    C48   A    
C33   H11   S    
C46   C60   S    
C67   H27   S    
C35   C37   A    
C11   C13   A    
C71   H41   S    
C8    C61   S    
O18   V4    S    
C18   C26   A    
O3    V1    S    
C67   H28   S    
C68   H30   S    
C24   C70   S    
C69   H34   S    
O11   V4    S    
C21   C23   A    
O15   C63   A    
C1    C54   S    
N2    C48   A    
C4    C31   S    
O3    C1    A    
C70   H36   S    
C57   H19   S    
C50   C68   S    
O11   C63   A    
C2    C53   S    
C26   H10   S    
C5    C71   S    
C36   C38   A    
C19   C27   A    
C68   H32   S    
C22   C24   A    
O7    V1    S    
C52   Br2   S    
C1    O8    A    
C15   C17   A    
O8    V2    S    
C65   H21   S    
C16   C18   A    
C70   H37   S    
C10   C12   A    
O16   V4    S    
C25   H9    S    
C58   C60   A    
C14   C16   A    
C19   C21   A    
C20   C22   A    
C34   H12   S    
C45   C59   S    
C46   N6    A    
C73   H46   S    
C66   H25   S    
O17   V3    S    
C55   C57   A    
C34   C36   A    
C9    C11   A    
C23   C25   A    
C17   C31   A    
O9    V2    S    
C74   H48   S    
C17   C25   A    
C51   C53   A    
C39   C65   S    
O10   V1    S    
C3    C32   S    
C5    C21   A    
C6    C22   A    
N1    C47   A    
C33   C43   A    
C10   C32   A    
C68   H31   S    
C62   O17   A    
