data_mof_unit_36291.cif
_audit_creation_date              2012-12-11T14:08:20-0500
_audit_creation_method            fapswitch 2.2
_symmetry_space_group_name_H-M    P1
_symmetry_Int_Tables_number       1
_space_group_crystal_system       triclinic
_cell_length_a                    27.811084
_cell_length_b                    7.208274
_cell_length_c                    17.201765
_cell_angle_alpha                 89.997765
_cell_angle_beta                  99.914796
_cell_angle_gamma                 89.999604
_cell_volume                      3396.93358174

loop_
_atom_site_label
_atom_site_type_symbol
_atom_type_description
_atom_site_fract_x
_atom_site_fract_y
_atom_site_fract_z
_atom_type_partial_charge
O1    O     O_R   0.000700 0.436510 0.857920 -0.531923
O2    O     O_R   0.999300 0.563490 0.142080 -0.531931
O3    O     O_R   0.999300 0.936510 0.642080 -0.531917
O4    O     O_R   0.000700 0.063490 0.357920 -0.531927
O5    O     O_R   0.930080 0.766380 0.721890 -0.537236
O6    O     O_R   0.069920 0.233620 0.278110 -0.537217
O7    O     O_R   0.069920 0.266380 0.778110 -0.537214
O8    O     O_R   0.930080 0.733620 0.221890 -0.537193
C1    C     C_R   0.910836 0.597801 0.709165 0.692381
C2    C     C_R   0.089162 0.402198 0.290838 0.692360
C3    C     C_R   0.089163 0.097797 0.790833 0.692390
C4    C     C_R   0.910838 0.902203 0.209164 0.692349
O9    O     O_R   0.996180 0.766230 0.862310 -0.546199
O10   O     O_R   0.003820 0.233770 0.137690 -0.546196
O11   O     O_R   0.003820 0.266230 0.637690 -0.546194
O12   O     O_R   0.996180 0.733770 0.362310 -0.546199
O13   O     O_R   0.065870 0.936460 0.783500 -0.534398
O14   O     O_R   0.934130 0.063540 0.216500 -0.534381
O15   O     O_R   0.934130 0.436460 0.716500 -0.534410
O16   O     O_R   0.065870 0.563540 0.283500 -0.534401
C5    C     C_R   0.998465 0.596507 0.894472 0.755608
C6    C     C_R   0.001535 0.403493 0.105528 0.755634
C7    C     C_R   0.001535 0.096510 0.605527 0.755591
C8    C     C_R   0.998465 0.903490 0.394473 0.755580
O17   O     O_3   0.022790 0.603020 0.723980 -0.376224
O18   O     O_3   0.977210 0.396980 0.276020 -0.376228
O19   O     O_3   0.977210 0.103020 0.776020 -0.376247
O20   O     O_3   0.022790 0.896980 0.223980 -0.376242
V1    V     V_3+5 0.995770 0.877900 0.754830 1.409774
V2    V     V_3+5 0.004230 0.122100 0.245170 1.409896
V3    V     V_3+5 0.004230 0.377900 0.745170 1.409810
V4    V     V_3+5 0.995770 0.622100 0.254830 1.409914
C9    C     C_2   0.001707 0.082560 0.519498 -0.337665
C10   C     C_2   0.998293 0.917440 0.480502 -0.337657
C11   C     C_2   0.998293 0.582558 0.980500 -0.337681
C12   C     C_2   0.001707 0.417442 0.019500 -0.337660
H1    H     H_    0.004489 0.211141 0.487652 0.151239
H2    H     H_    0.995511 0.788859 0.512348 0.151243
H3    H     H_    0.995510 0.711140 0.012343 0.151234
H4    H     H_    0.004490 0.288860 0.987657 0.151237
C13   C     C_R   0.681224 0.832570 0.048201 0.563595
C14   C     C_R   0.318791 0.167926 0.951792 0.563683
C15   C     C_R   0.318787 0.332127 0.451889 0.563480
C16   C     C_R   0.681195 0.667832 0.548206 0.563460
O21   O     O_2   0.706913 0.690407 0.025274 -0.560186
O22   O     O_2   0.293106 0.310144 0.974686 -0.560049
O23   O     O_2   0.293105 0.189977 0.474850 -0.560125
O24   O     O_2   0.706867 0.810043 0.525277 -0.560157
N1    N     N_R   0.704715 0.965755 0.096853 -0.544836
N2    N     N_R   0.295294 0.034654 0.903192 -0.544818
N3    N     N_R   0.295285 0.465310 0.403238 -0.544826
N4    N     N_R   0.704702 0.534649 0.596848 -0.544812
C17   C     C_R   0.679344 0.107933 0.123725 0.543959
C18   C     C_R   0.320660 0.892389 0.876373 0.544560
C19   C     C_R   0.320646 0.607490 0.376346 0.544416
C20   C     C_R   0.679347 0.392411 0.623712 0.544373
C21   C     C_R   0.773836 0.853986 0.194692 -0.146760
C22   C     C_R   0.226162 0.146678 0.805433 -0.147061
C23   C     C_R   0.226160 0.353329 0.305465 -0.147002
C24   C     C_R   0.773841 0.646986 0.694507 -0.147116
C25   C     C_R   0.824040 0.834286 0.222171 -0.212993
C26   C     C_R   0.175954 0.166228 0.777937 -0.213138
C27   C     C_R   0.175955 0.333799 0.277953 -0.213114
C28   C     C_R   0.824049 0.666536 0.721987 -0.213101
C29   C     C_R   0.840936 0.005391 0.108990 -0.229941
C30   C     C_R   0.159081 0.994241 0.890902 -0.230121
C31   C     C_R   0.159069 0.505646 0.390944 -0.230084
C32   C     C_R   0.840912 0.494022 0.609175 -0.230093
C33   C     C_R   0.790793 0.021175 0.079789 0.032826
C34   C     C_R   0.209222 0.978651 0.920133 0.032657
C35   C     C_R   0.209209 0.521221 0.420190 0.032688
C36   C     C_R   0.790770 0.478494 0.579937 0.032705
C37   C     C_R   0.756685 0.949263 0.124004 0.359536
C38   C     C_R   0.243323 0.051106 0.876041 0.359534
C39   C     C_R   0.243314 0.448826 0.376092 0.359635
C40   C     C_R   0.756674 0.551147 0.623982 0.359476
C41   C     C_R   0.603144 0.983939 0.050451 -0.064487
C42   C     C_R   0.396867 0.016502 0.949568 -0.064567
C43   C     C_R   0.396858 0.483523 0.449594 -0.064446
C44   C     C_R   0.603132 0.516340 0.550461 -0.064489
C45   C     C_R   0.630503 0.841715 0.022443 -0.043623
C46   C     C_R   0.369512 0.158788 0.977544 -0.043518
C47   C     C_R   0.369511 0.341273 0.477614 -0.043575
C48   C     C_R   0.630475 0.658618 0.522451 -0.043645
C49   C     C_R   0.606511 0.705626 0.972394 -0.165708
C50   C     C_R   0.393510 0.294929 0.027559 -0.165719
C51   C     C_R   0.393522 0.205163 0.527639 -0.165737
C52   C     C_R   0.606464 0.794712 0.472419 -0.165711
C53   C     C_R   0.627506 0.115129 0.104670 -0.069334
C54   C     C_R   0.372500 0.885233 0.895392 -0.069553
C55   C     C_R   0.372483 0.614701 0.395377 -0.069434
C56   C     C_R   0.627509 0.385172 0.604677 -0.069415
C57   C     C_R   0.857852 0.912796 0.179986 -0.037422
C58   C     C_R   0.142152 0.087215 0.820004 -0.037506
C59   C     C_R   0.142149 0.412759 0.320024 -0.037480
C60   C     C_R   0.857846 0.587225 0.680002 -0.037630
H5    H     H_    0.867016 0.063258 0.075451 0.122593
H6    H     H_    0.133010 0.936017 0.924369 0.122709
H7    H     H_    0.132993 0.563823 0.424412 0.122692
H8    H     H_    0.866978 0.435636 0.575746 0.122751
H9    H     H_    0.626493 0.591248 0.952256 0.155801
H10   H     H_    0.373532 0.409361 0.047667 0.155991
H11   H     H_    0.373552 0.090738 0.547769 0.155904
H12   H     H_    0.626430 0.909158 0.452296 0.155918
C61   C     C_R   0.476129 0.867625 0.945178 0.018146
C62   C     C_R   0.523881 0.132804 0.054844 0.018148
C63   C     C_R   0.523885 0.367368 0.554872 0.018122
C64   C     C_R   0.476107 0.632455 0.445173 0.018118
C65   C     C_R   0.472388 0.143881 0.028190 0.043133
C66   C     C_R   0.527626 0.856590 0.971807 0.043117
C67   C     C_R   0.527600 0.643588 0.471818 0.043143
C68   C     C_R   0.472390 0.356244 0.528230 0.043138
C69   C     C_R   0.448609 0.008771 0.974594 0.058738
C70   C     C_R   0.551403 0.991677 0.025418 0.058734
C71   C     C_R   0.551391 0.508532 0.525434 0.058767
C72   C     C_R   0.448600 0.491305 0.474614 0.058774
C73   C     C_R   0.451372 0.745674 0.887514 -0.216692
C74   C     C_R   0.548631 0.254683 0.112546 -0.216679
C75   C     C_R   0.548651 0.245512 0.612577 -0.216663
C76   C     C_R   0.451345 0.754298 0.387463 -0.216657
C77   C     C_R   0.400910 0.753984 0.861923 0.001278
C78   C     C_R   0.599091 0.246325 0.138157 0.001237
C79   C     C_R   0.599110 0.253947 0.638182 0.001271
C80   C     C_R   0.400885 0.745904 0.361867 0.001236
O25   O     O_2   0.295617 0.757580 0.832654 -0.539240
O26   O     O_2   0.704382 0.242619 0.167530 -0.539390
O27   O     O_2   0.704399 0.257715 0.667498 -0.539293
O28   O     O_2   0.295599 0.742161 0.332536 -0.539320
C81   C     C_R   0.556321 0.711977 0.947926 -0.170881
C82   C     C_R   0.443699 0.288558 0.052034 -0.171027
C83   C     C_R   0.443713 0.211568 0.552102 -0.170875
C84   C     C_R   0.556275 0.788284 0.447952 -0.170885
H13   H     H_    0.163530 0.239111 0.723093 0.115378
H14   H     H_    0.836455 0.761686 0.277089 0.115281
H15   H     H_    0.836479 0.739662 0.776754 0.115382
H16   H     H_    0.163537 0.260973 0.223094 0.115387
H17   H     H_    0.251889 0.205756 0.771707 0.123432
H18   H     H_    0.748103 0.795258 0.228498 0.123142
H19   H     H_    0.748117 0.706294 0.728174 0.123606
H20   H     H_    0.251891 0.294301 0.271734 0.123263
H21   H     H_    0.470611 0.645085 0.858208 0.120993
H22   H     H_    0.529387 0.355223 0.141870 0.121026
H23   H     H_    0.529422 0.144927 0.641905 0.121009
H24   H     H_    0.470579 0.854839 0.358120 0.121027
H25   H     H_    0.541216 0.597817 0.911409 0.121240
H26   H     H_    0.458815 0.402760 0.088518 0.121295
H27   H     H_    0.458837 0.097402 0.588605 0.121268
H28   H     H_    0.541150 0.902460 0.411456 0.121261
C85   C     C_R   0.775921 0.108410 0.001944 0.073580
C86   C     C_R   0.762112 0.295715 0.996310 -0.092745
C87   C     C_R   0.755291 0.385444 0.923058 -0.155720
C88   C     C_R   0.762213 0.288795 0.855505 -0.090077
C89   C     C_R   0.775335 0.101548 0.860572 -0.088761
C90   C     C_R   0.782288 0.011433 0.933608 -0.151878
H29   H     H_    0.758368 0.373170 0.048853 0.185445
H30   H     H_    0.745553 0.530701 0.918473 0.155212
H31   H     H_    0.757489 0.359322 0.799354 0.159041
H32   H     H_    0.780545 0.026901 0.808072 0.133569
H33   H     H_    0.793728 0.867562 0.937275 0.118762
C91   C     C_R   0.224098 0.891251 0.997935 0.073346
C92   C     C_R   0.218094 0.988654 0.066349 -0.152136
C93   C     C_R   0.225026 0.898578 0.139391 -0.088815
C94   C     C_R   0.237785 0.710970 0.144389 -0.090618
C95   C     C_R   0.244329 0.613866 0.076744 -0.155174
C96   C     C_R   0.237504 0.703533 0.003481 -0.091658
H34   H     H_    0.206945 0.132849 0.062743 0.118749
H35   H     H_    0.220100 0.973573 0.191957 0.133991
H36   H     H_    0.242514 0.640515 0.200555 0.159052
H37   H     H_    0.253768 0.468328 0.081262 0.154750
H38   H     H_    0.240937 0.625773 0.950872 0.184946
C97   C     C_R   0.224076 0.608549 0.498009 0.073366
C98   C     C_R   0.237584 0.796117 0.503602 -0.091997
C99   C     C_R   0.244407 0.885741 0.576872 -0.155327
C100  C     C_R   0.237760 0.788743 0.644478 -0.090734
C101  C     C_R   0.224905 0.601271 0.639439 -0.088982
C102  C     C_R   0.217974 0.511243 0.566390 -0.151915
H39   H     H_    0.241102 0.873812 0.451024 0.184961
H40   H     H_    0.253934 0.031161 0.581428 0.154942
H41   H     H_    0.242491 0.859166 0.700650 0.159057
H42   H     H_    0.219903 0.526353 0.691977 0.133894
H43   H     H_    0.206748 0.367166 0.562751 0.118812
C103  C     C_R   0.775892 0.391189 0.502120 0.073356
C104  C     C_R   0.781981 0.488559 0.433740 -0.152044
C105  C     C_R   0.775024 0.398579 0.360680 -0.088785
C106  C     C_R   0.762153 0.211097 0.355630 -0.090655
C107  C     C_R   0.755524 0.114031 0.423237 -0.155318
C108  C     C_R   0.762373 0.203606 0.496519 -0.091823
H44   H     H_    0.793214 0.632653 0.437387 0.118789
H45   H     H_    0.780016 0.473548 0.308142 0.134039
H46   H     H_    0.757400 0.140715 0.299451 0.159061
H47   H     H_    0.745995 0.968593 0.418669 0.154895
H48   H     H_    0.758865 0.125873 0.549099 0.185049
C109  C     C_R   0.380309 0.628242 0.796573 0.158277
C110  C     C_R   0.364464 0.697775 0.720172 -0.094108
C111  C     C_R   0.345354 0.577010 0.658942 -0.078728
C112  C     C_R   0.341022 0.387719 0.674083 -0.102784
C113  C     C_R   0.358111 0.317289 0.749348 -0.139334
C114  C     C_R   0.378439 0.436899 0.810041 -0.091079
H49   H     H_    0.366849 0.844658 0.708202 0.088301
H50   H     H_    0.333157 0.630476 0.600061 0.128245
H51   H     H_    0.324582 0.295368 0.627565 0.133746
H52   H     H_    0.355666 0.170264 0.760624 0.105944
H53   H     H_    0.392680 0.381578 0.867561 0.121416
C115  C     C_R   0.619690 0.371939 0.203545 0.158190
C116  C     C_R   0.621748 0.563217 0.190071 -0.090575
C117  C     C_R   0.642104 0.682666 0.250802 -0.139437
C118  C     C_R   0.659047 0.612143 0.326096 -0.102728
C119  C     C_R   0.654543 0.422937 0.341225 -0.078579
C120  C     C_R   0.635393 0.302326 0.279965 -0.094473
H54   H     H_    0.607642 0.618601 0.132514 0.121333
H55   H     H_    0.644692 0.829636 0.239533 0.105951
H56   H     H_    0.675511 0.704363 0.372643 0.133760
H57   H     H_    0.666641 0.369407 0.400119 0.128132
H58   H     H_    0.632872 0.155496 0.291923 0.088404
C121  C     C_R   0.619731 0.128382 0.703582 0.158208
C122  C     C_R   0.635440 0.198065 0.780003 -0.094648
C123  C     C_R   0.654630 0.077488 0.841259 -0.078409
C124  C     C_R   0.659180 0.888264 0.826120 -0.102371
C125  C     C_R   0.642240 0.817670 0.750822 -0.139581
C126  C     C_R   0.621830 0.937069 0.690101 -0.090409
H59   H     H_    0.632888 0.344920 0.791966 0.088336
H60   H     H_    0.666720 0.131052 0.900159 0.128019
H61   H     H_    0.675672 0.796081 0.872665 0.133684
H62   H     H_    0.644873 0.670678 0.739540 0.105869
H63   H     H_    0.607715 0.881625 0.632543 0.121292
C127  C     C_R   0.380276 0.871474 0.296464 0.158228
C128  C     C_R   0.378202 0.062762 0.309919 -0.090557
C129  C     C_R   0.357856 0.182181 0.249166 -0.139508
C130  C     C_R   0.340942 0.111620 0.173868 -0.102689
C131  C     C_R   0.345454 0.922400 0.158763 -0.078707
C132  C     C_R   0.364591 0.801819 0.220046 -0.094565
H64   H     H_    0.392290 0.118179 0.367478 0.121322
H65   H     H_    0.355255 0.329159 0.260422 0.105955
H66   H     H_    0.324489 0.203818 0.127301 0.133789
H67   H     H_    0.333371 0.868835 0.099869 0.128143
H68   H     H_    0.367124 0.654982 0.208104 0.088428

loop_
_geom_bond_atom_site_label_1
_geom_bond_atom_site_label_2
_ccdc_geom_bond_type
C98   H39   S    
C22   C26   A    
C47   C51   A    
C97   C98   A    
N1    C17   A    
O1    C5    A    
C119  H57   S    
C79   C121  S    
O19   V1    S    
C75   H23   S    
C63   C68   A    
C64   C76   A    
O3    C7    A    
C11   C12   D    
C14   C46   A    
C61   C66   A    
N1    C37   S    
O15   V3    S    
C92   C93   A    
C124  C125  A    
C34   C38   A    
C85   C86   A    
C124  H61   S    
C116  C117  A    
C42   C54   A    
O7    C3    A    
C41   C53   A    
C32   C60   A    
C62   C70   A    
C99   H40   S    
C26   H13   S    
O9    V1    S    
C95   C96   A    
N3    C39   S    
C18   C54   A    
N2    C38   S    
C74   C78   A    
C98   C99   A    
O4    C8    A    
C25   C57   A    
C31   C35   A    
C82   H26   S    
C53   C78   A    
C78   C115  S    
C127  C132  A    
C27   C59   A    
O1    V3    S    
C15   C47   A    
C105  C106  A    
C66   C81   A    
O2    V4    S    
C14   O22   S    
C20   O27   S    
C51   C83   A    
C130  H66   S    
O3    V1    S    
C73   C77   A    
C103  C104  A    
C19   C55   A    
C113  H52   S    
C49   C81   A    
C125  H62   S    
C122  H59   S    
C76   C80   A    
C117  H55   S    
C1    O15   A    
C101  C102  A    
C2    O16   A    
C119  C120  A    
C7    C9    S    
C76   H24   S    
C115  C120  A    
O2    C6    A    
C104  H44   S    
C87   C88   A    
C83   H27   S    
C132  H68   S    
O14   V2    S    
C66   C70   A    
C81   H25   S    
C92   H34   S    
C65   C69   A    
C30   C58   A    
C16   N4    A    
O11   C7    A    
C128  H64   S    
C28   H15   S    
O12   C8    A    
C85   C90   A    
C43   C72   A    
C62   C74   A    
C31   C59   A    
C114  H53   S    
C61   C73   A    
C95   H37   S    
C113  C114  A    
C100  C101  A    
O10   V2    S    
C77   C109  S    
C129  C130  A    
C52   H12   S    
O16   V4    S    
C25   H14   S    
O5    V1    S    
C102  H43   S    
C18   O25   S    
O7    V3    S    
C89   H32   S    
C118  C119  A    
O8    V4    S    
C12   H4    S    
C122  C123  A    
C28   C60   A    
C56   C79   A    
C125  C126  A    
C117  C118  A    
C50   C82   A    
N4    C40   S    
C123  C124  A    
C99   C100  A    
O11   V3    S    
C24   C40   A    
C93   C94   A    
C8    C10   S    
C111  C112  A    
C32   C36   A    
C24   C28   A    
C84   H28   S    
C44   C56   A    
C11   H3    S    
C121  C122  A    
C32   H8    S    
C104  C105  A    
O5    C1    A    
C130  C131  A    
C21   H18   S    
C42   C46   A    
C128  C129  A    
C44   C71   A    
C41   C45   A    
O8    C4    A    
C13   C45   A    
C9    C10   D    
C108  H48   S    
O9    C5    A    
C131  H67   S    
N2    C18   A    
C87   H30   S    
C115  C116  A    
C33   C37   A    
C1    C60   S    
C63   C71   A    
C129  H65   S    
C14   N2    A    
C51   H11   S    
C123  H60   S    
C3    C58   S    
C116  H54   S    
O6    V2    S    
C127  C128  A    
C75   C79   A    
C86   H29   S    
C26   C58   A    
C17   C53   A    
C118  H56   S    
C54   C77   A    
C35   C97   S    
C4    C57   S    
C42   C69   A    
C52   C84   A    
O10   C6    A    
C41   C70   A    
C50   H10   S    
C23   C39   A    
C68   C72   A    
C49   H9    S    
C73   H21   S    
C22   C38   A    
C9    H1    S    
C111  H50   S    
C107  H47   S    
C61   C69   A    
C96   H38   S    
C88   H31   S    
C3    O13   A    
C10   H2    S    
C21   C37   A    
O17   V3    S    
C48   C52   A    
C2    C59   S    
C112  C113  A    
C74   H22   S    
O6    C2    A    
C80   C127  S    
C30   H6    S    
O20   V2    S    
C21   C25   A    
C101  H42   S    
C5    C11   S    
C31   H7    S    
O12   V4    S    
C13   N1    A    
C6    C12   S    
C97   C102  A    
C23   C27   A    
C120  H58   S    
C63   C75   A    
C64   C67   A    
C16   C48   A    
C55   C80   A    
C33   C85   S    
C27   H16   S    
C64   C72   A    
C91   C96   A    
C94   H36   S    
C107  C108  A    
C29   H5    S    
C90   H33   S    
C46   C50   A    
O13   V1    S    
C91   C92   A    
C44   C48   A    
C35   C39   A    
C15   N3    A    
C106  C107  A    
C30   C34   A    
N4    C20   A    
C23   H20   S    
C36   C40   A    
C29   C33   A    
C29   C57   A    
C34   C91   S    
C106  H46   S    
C126  H63   S    
C110  C111  A    
N3    C19   A    
C103  C108  A    
C68   C83   A    
C131  C132  A    
C43   C55   A    
C22   H17   S    
C94   C95   A    
C17   O26   S    
C24   H19   S    
C36   C103  S    
C93   H35   S    
C43   C47   A    
C110  H49   S    
C16   O24   S    
C67   C84   A    
C20   C56   A    
C19   O28   S    
C45   C49   A    
C109  C110  A    
C4    O14   A    
C65   C82   A    
C13   O21   S    
C86   C87   A    
C67   C71   A    
C88   C89   A    
C112  H51   S    
C121  C126  A    
C15   O23   S    
C100  H41   S    
C105  H45   S    
O18   V4    S    
O4    V2    S    
C109  C114  A    
C89   C90   A    
C62   C65   A    
