data_mof_unit_46962.cif
_audit_creation_date              2012-12-11T16:35:19-0500
_audit_creation_method            fapswitch 2.2
_symmetry_space_group_name_H-M    P1
_symmetry_Int_Tables_number       1
_space_group_crystal_system       triclinic
_cell_length_a                    6.929401
_cell_length_b                    17.6659
_cell_length_c                    19.522918
_cell_angle_alpha                 109.131434
_cell_angle_beta                  90.317776
_cell_angle_gamma                 90.671555
_cell_volume                      2257.6190803

loop_
_atom_site_label
_atom_site_type_symbol
_atom_type_description
_atom_site_fract_x
_atom_site_fract_y
_atom_site_fract_z
_atom_type_partial_charge
O1    O     O_R   0.505700 0.440210 0.561730 -0.555963
O2    O     O_R   0.169350 0.406300 0.412660 -0.548790
O3    O     O_R   0.005650 0.559790 0.438270 -0.519105
C1    C     C_R   0.337804 0.383500 0.384598 0.802428
O4    O     O_R   0.175560 0.430650 0.559600 -0.515300
O5    O     O_R   0.011900 0.584320 0.586250 -0.515855
C2    C     C_R   0.344336 0.416051 0.581559 0.721591
O6    O     O_R   0.499450 0.415680 0.413750 -0.532016
O7    O     O_3   0.341370 0.550390 0.508570 -0.359607
V1    V     V_3+5 0.063940 0.490650 0.498410 1.583675
O8    O     O_R   0.682570 0.593700 0.587340 -0.553084
C3    C     C_R   0.852722 0.617237 0.614533 0.822886
O9    O     O_R   0.676370 0.569350 0.440400 -0.531591
C4    C     C_R   0.845368 0.584160 0.418640 0.812595
V2    V     V_3+5 0.564750 0.509350 0.501590 1.540613
O10   O     O_3   0.837190 0.449610 0.491430 -0.383850
C5    C     C_R   0.047212 0.711594 0.311259 -0.120128
H1    H     H_    0.186087 0.736938 0.304739 0.106995
C6    C     C_R   0.035179 0.665727 0.357569 -0.068842
C7    C     C_R   0.857190 0.633494 0.369914 -0.068156
C8    C     C_R   0.691722 0.648019 0.334436 -0.095043
H2    H     H_    0.552503 0.623853 0.342319 0.184600
C9    C     C_R   0.704171 0.692810 0.287219 -0.069242
C10   C     C_R   0.882002 0.725668 0.275107 0.107925
C11   C     C_R   0.739789 0.823053 0.219367 -0.202855
H3    H     H_    0.611370 0.826963 0.251589 0.134248
C12   C     C_R   0.749143 0.868476 0.172678 0.616890
C13   C     C_R   0.915650 0.867650 0.131152 -0.184083
C14   C     C_R   0.071604 0.820314 0.138009 -0.218734
H4    H     H_    0.201567 0.818026 0.106866 0.182417
C15   C     C_R   0.060746 0.774091 0.184124 -0.110616
C16   C     C_R   0.894499 0.774732 0.225546 0.012473
H5    H     H_    0.632449 0.648751 0.929183 0.165474
C17   C     C_R   0.052270 0.898615 0.750468 -0.261670
C18   C     C_R   0.112811 0.909437 0.686489 0.622708
C19   C     C_R   0.089894 0.847949 0.621031 -0.226585
C20   C     C_R   0.007764 0.774758 0.618727 0.501266
C21   C     C_R   0.948801 0.760904 0.683449 -0.047269
C22   C     C_R   0.969993 0.824859 0.750525 -0.080180
C23   C     C_R   0.866594 0.686328 0.682811 -0.121548
C24   C     C_R   0.802969 0.676718 0.748540 -0.044196
C25   C     C_R   0.821769 0.741196 0.815015 0.081008
C26   C     C_R   0.905475 0.815119 0.816004 -0.075333
C27   C     C_R   0.723024 0.602907 0.749694 -0.221020
C28   C     C_R   0.661296 0.593367 0.814214 0.709735
C29   C     C_R   0.679400 0.656466 0.879048 -0.181487
C30   C     C_R   0.759435 0.729455 0.879815 -0.253547
H6    H     H_    0.069918 0.949042 0.799735 0.144753
H7    H     H_    0.134412 0.857250 0.571270 0.185127
H8    H     H_    0.707995 0.551539 0.700991 0.150301
H9    H     H_    0.773237 0.776139 0.931883 0.134521
C31   C     C_R   0.253823 0.219425 0.375098 -0.259666
C32   C     C_R   0.221135 0.140902 0.373588 0.698327
C33   C     C_R   0.252652 0.077306 0.310426 -0.168483
C34   C     C_R   0.317800 0.091714 0.248425 -0.231851
C35   C     C_R   0.351676 0.170780 0.248073 0.065877
C36   C     C_R   0.317951 0.236118 0.312747 -0.034020
C37   C     C_R   0.420799 0.184912 0.184943 -0.059112
C38   C     C_R   0.453742 0.264851 0.186498 -0.081220
C39   C     C_R   0.415994 0.330760 0.250668 -0.121584
C40   C     C_R   0.350720 0.316172 0.314472 -0.083123
C41   C     C_R   0.519811 0.280577 0.124022 -0.369057
C42   C     C_R   0.548131 0.358657 0.124061 0.547433
C43   C     C_R   0.508368 0.422959 0.185672 0.543716
C44   C     C_R   0.441511 0.409935 0.248211 0.396034
H10   H     H_    0.227993 0.266707 0.425681 0.123338
H11   H     H_    0.227637 0.016350 0.309470 0.165446
H12   H     H_    0.342724 0.040066 0.201063 0.189034
H13   H     H_    0.549867 0.232758 0.074245 0.173502
C45   C     C_R   0.534541 0.280115 0.681910 -0.067019
H14   H     H_    0.665315 0.247317 0.682359 0.172225
C46   C     C_R   0.523003 0.325763 0.635373 -0.163893
C47   C     C_R   0.354174 0.367604 0.631171 -0.166816
C48   C     C_R   0.197939 0.363822 0.675941 0.622096
C49   C     C_R   0.211105 0.319110 0.723264 -0.085622
C50   C     C_R   0.378377 0.275748 0.726309 0.037643
C51   C     C_R   0.230692 0.181174 0.785714 0.689848
C52   C     C_R   0.243265 0.136330 0.832843 -0.154942
C53   C     C_R   0.416117 0.133809 0.870125 -0.156707
C54   C     C_R   0.576511 0.177989 0.859462 -0.100994
C55   C     C_R   0.563478 0.224135 0.813293 -0.124079
H15   H     H_    0.688799 0.258702 0.807611 0.179697
C56   C     C_R   0.390512 0.226579 0.775763 -0.031341
O11   O     O_R   0.273230 0.084330 0.086440 -0.539626
O12   O     O_R   0.596660 0.069390 0.940470 -0.546629
O13   O     O_R   0.760270 0.915710 0.913690 -0.539785
C57   C     C_R   0.427567 0.084632 0.919087 0.721206
O14   O     O_R   0.603330 0.093680 0.087390 -0.533073
O15   O     O_R   0.766990 0.940160 0.061660 -0.502916
C58   C     C_R   0.434808 0.116632 0.115422 0.706681
O16   O     O_R   0.266510 0.059870 0.938470 -0.547149
O17   O     O_3   0.431050 0.949630 0.991510 -0.359228
V3    V     V_3+5 0.708490 0.009340 0.001580 1.492733
O18   O     O_R   0.096270 0.930570 0.059390 -0.543808
C59   C     C_R   0.927292 0.916036 0.081479 0.741105
O19   O     O_R   0.089600 0.906290 0.912460 -0.543808
C60   C     C_R   0.919480 0.883244 0.885035 0.677437
V4    V     V_3+5 0.207670 0.990600 0.998190 1.468490
O20   O     O_3   0.935250 0.050360 0.008480 -0.375093
F1    F     F_    0.191789 0.980520 0.687874 -0.641272
F2    F     F_    0.982808 0.719385 0.552202 -0.714815
F3    F     F_    0.584647 0.522212 0.813805 -0.658127
F4    F     F_    0.532106 0.498900 0.184595 -0.615410
F5    F     F_    0.159048 0.126479 0.433943 -0.654080
H16   H     H_    0.165574 0.656255 0.384333 0.152690
F6    F     F_    0.611720 0.371908 0.063342 -0.612437
F7    F     F_    0.395686 0.475699 0.304764 -0.684535
H17   H     H_    0.645941 0.327397 0.601836 0.182608
F8    F     F_    0.034065 0.405140 0.675733 -0.685980
H18   H     H_    0.090575 0.319605 0.758435 0.175224
F9    F     F_    0.063685 0.177513 0.748022 -0.680571
H19   H     H_    0.117538 0.102231 0.839006 0.148244
H20   H     H_    0.711783 0.177658 0.887413 0.153139
H21   H     H_    0.574123 0.700632 0.259469 0.123323
F10   F     F_    0.595931 0.914499 0.169663 -0.709000
H22   H     H_    0.182070 0.736905 0.186330 0.141240

loop_
_geom_bond_atom_site_label_1
_geom_bond_atom_site_label_2
_ccdc_geom_bond_type
C43   F4    S    
C21   C23   A    
C34   C35   A    
C3    C23   S    
C57   O16   A    
C47   C48   A    
O12   V3    S    
C6    C7    A    
C1    O6    A    
C48   F8    S    
C53   C57   S    
C34   H12   S    
O17   V4    S    
C2    C47   S    
C51   C52   A    
C31   C32   A    
C20   C21   A    
C13   C59   S    
C19   C20   A    
O5    C3    A    
C21   C22   A    
C51   C56   A    
C32   F5    S    
V2    O10   S    
C35   C36   A    
C17   C18   A    
C24   C25   A    
C51   F9    S    
O13   C60   A    
C29   C30   A    
O8    V2    S    
C46   H17   S    
C32   C33   A    
C38   C41   A    
O19   V4    S    
C9    C10   A    
C45   H14   S    
O1    V2    S    
O7    V1    S    
V3    O20   S    
C11   C16   A    
C38   C39   A    
O9    C4    A    
O15   V3    S    
H5    C29   S    
O11   C58   A    
C50   C56   S    
C55   C56   A    
C55   H15   S    
O12   C57   A    
C5    C10   A    
C45   C46   A    
C48   C49   A    
C17   C22   A    
C4    C7    S    
C28   F3    S    
O4    C2    A    
O14   V3    S    
C52   C53   A    
C54   C55   A    
C30   H9    S    
C33   H11   S    
C11   H3    S    
C28   C29   A    
C1    C40   S    
C53   C54   A    
C41   H13   S    
C39   C40   A    
C18   C19   A    
O15   C59   A    
O2    C1    A    
C49   C50   A    
C10   C16   S    
C14   H4    S    
O13   V3    S    
C15   C16   A    
O19   C60   A    
C41   C42   A    
C5    H1    S    
C7    C8    A    
C42   F6    S    
C37   C58   S    
O3    C4    A    
C6    H16   S    
C23   C24   A    
O14   C58   A    
C39   C44   A    
O6    V2    S    
C8    C9    A    
C45   C50   A    
C24   C27   A    
C17   H6    S    
C25   C26   A    
C18   F1    S    
O2    V1    S    
C15   H22   S    
C31   H10   S    
C27   C28   A    
C27   H8    S    
C33   C34   A    
C13   C14   A    
C49   H18   S    
O1    C2    A    
C26   C60   S    
C46   C47   A    
O5    V1    S    
C22   C26   A    
O8    C3    A    
C36   C40   A    
C11   C12   A    
O11   V4    S    
C43   C44   A    
O9    V2    S    
C37   C38   A    
O4    V1    S    
C14   C15   A    
O3    V1    S    
V1    O10   S    
C9    H21   S    
C20   F2    S    
O17   V3    S    
C5    C6    A    
C35   C37   A    
C25   C30   A    
O16   V4    S    
O7    V2    S    
O18   C59   A    
C31   C36   A    
C42   C43   A    
C54   H20   S    
V4    O20   S    
C12   C13   A    
O18   V4    S    
C52   H19   S    
C8    H2    S    
C44   F7    S    
C19   H7    S    
C12   F10   S    
