data_mof_unit_10422.cif
_audit_creation_date              2012-12-11T14:54:38-0500
_audit_creation_method            fapswitch 2.2
_symmetry_space_group_name_H-M    P1
_symmetry_Int_Tables_number       1
_space_group_crystal_system       triclinic
_cell_length_a                    18.863526
_cell_length_b                    11.025119
_cell_length_c                    18.781787
_cell_angle_alpha                 90.18342
_cell_angle_beta                  89.317607
_cell_angle_gamma                 89.797981
_cell_volume                      3905.77557318

loop_
_atom_site_label
_atom_site_type_symbol
_atom_type_description
_atom_site_fract_x
_atom_site_fract_y
_atom_site_fract_z
_atom_type_partial_charge
C1    C     C_R   0.732557 0.383126 0.648280 0.543167
C2    C     C_R   0.299785 0.855395 0.455424 -0.147099
C3    C     C_R   0.021631 0.556674 0.455855 -0.162931
C4    C     C_R   0.197515 0.363684 0.543061 -0.139804
C5    C     C_R   0.827186 0.450840 0.474321 -0.147235
C6    C     C_R   0.677671 0.926414 0.452030 0.054491
C7    C     C_R   0.297766 0.842083 0.529272 0.077183
C8    C     C_R   0.200155 0.353305 0.469165 0.079561
C9    C     C_R   0.821864 0.424885 0.547721 0.055388
C10   C     C_R   0.742606 0.947651 0.416692 0.030717
C11   C     C_R   0.239017 0.889856 0.567418 0.033363
C12   C     C_R   0.262683 0.387465 0.433202 0.031684
C13   C     C_R   0.272504 0.369600 0.357146 0.559333
C14   C     C_R   0.756929 0.446631 0.583143 0.031825
C15   C     C_R   0.792125 0.022966 0.449429 -0.132849
C16   C     C_R   0.181062 0.937964 0.530599 -0.143669
C17   C     C_R   0.322965 0.421086 0.471849 -0.128062
C18   C     C_R   0.707122 0.521919 0.550542 -0.133072
C19   C     C_R   0.788798 0.045807 0.521764 0.064309
C20   C     C_R   0.181931 0.946268 0.457858 0.085749
C21   C     C_R   0.320712 0.429617 0.545053 0.093582
C22   C     C_R   0.710659 0.545391 0.478349 0.064603
C23   C     C_R   0.730105 0.003724 0.561940 0.014245
C24   C     C_R   0.228074 0.870323 0.643151 0.555033
C25   C     C_R   0.243916 0.913435 0.420315 0.045575
C26   C     C_R   0.255756 0.409697 0.580286 0.031140
C27   C     C_R   0.769517 0.503120 0.438104 0.014588
C28   C     C_R   0.445360 0.154682 0.951432 -0.109512
C29   C     C_R   0.430469 0.157077 0.023698 -0.122727
C30   C     C_R   0.945808 0.665298 0.951710 -0.099029
C31   C     C_R   0.931355 0.666540 0.024073 -0.128526
C32   C     C_R   0.485223 0.169460 0.072761 0.133885
C33   C     C_R   0.514853 0.171126 0.928440 0.087563
C34   C     C_R   0.986729 0.670435 0.073007 0.114090
C35   C     C_R   0.767354 0.883366 0.351642 0.544294
C36   C     C_R   0.015869 0.670916 0.928469 0.105833
C37   C     C_R   0.553526 0.199071 0.050708 0.141097
C38   C     C_R   0.568491 0.201156 0.977388 0.104731
C39   C     C_R   0.056363 0.690884 0.050594 0.144800
C40   C     C_R   0.071399 0.689651 0.977153 0.125154
C41   C     C_R   0.532567 0.155280 0.646576 0.530466
C42   C     C_R   0.463597 0.154125 0.355724 0.549869
C43   C     C_R   0.034998 0.654170 0.645100 0.543748
C44   C     C_R   0.966661 0.655056 0.353857 0.544501
C45   C     C_R   0.795524 0.020136 0.971802 -0.132622
C46   C     C_3   0.553069 0.352932 0.449587 -0.254880
C47   C     C_R   0.212936 0.044198 0.025190 -0.149193
C48   C     C_R   0.312521 0.450857 0.959780 -0.131382
C49   C     C_R   0.715032 0.549506 0.023442 -0.150509
C50   C     C_R   0.802260 0.009826 0.044116 0.183262
C51   C     C_R   0.202760 0.022830 0.953822 0.182250
C52   C     C_R   0.315965 0.463048 0.032525 0.184903
C53   C     C_R   0.706684 0.531058 0.951191 0.183076
C54   C     C_R   0.749391 0.943968 0.083052 -0.022573
C55   C     C_R   0.252402 0.946045 0.916338 -0.025961
C56   C     C_R   0.257507 0.421548 0.075301 -0.025393
C57   C     C_3   0.566139 0.354704 0.529047 -0.245544
C58   C     C_R   0.754612 0.450706 0.914576 -0.017284
C59   C     C_R   0.683177 0.921581 0.051163 0.189719
C60   C     C_R   0.316138 0.911624 0.950141 0.190000
C61   C     C_R   0.191905 0.396740 0.043457 0.170412
C62   C     C_R   0.818422 0.417462 0.948221 0.196543
C63   C     C_R   0.675718 0.944615 0.978091 -0.099233
C64   C     C_R   0.322205 0.929710 0.023783 -0.117868
C65   C     C_R   0.187655 0.401821 0.969207 -0.101634
C66   C     C_R   0.824716 0.436729 0.022092 -0.113493
C67   C     C_R   0.733692 0.986527 0.937586 -0.083477
C68   C     C_3   0.933269 0.856831 0.471661 -0.249018
C69   C     C_R   0.268896 0.992713 0.061732 -0.104374
C70   C     C_R   0.248241 0.427781 0.927369 -0.073621
C71   C     C_R   0.770358 0.496731 0.060611 -0.108571
C72   C     C_R   0.727182 0.021993 0.640052 0.559175
C73   C     C_R   0.257052 0.966174 0.350963 0.579372
C74   C     C_R   0.242974 0.465536 0.649200 0.559052
C75   C     C_R   0.772675 0.522003 0.360124 0.560320
C76   C     C_R   0.731627 0.386058 0.849487 0.602595
C77   C     C_R   0.271089 0.379541 0.147482 0.587210
C78   C     C_R   0.231009 0.884700 0.850146 0.600674
C79   C     C_3   0.946175 0.856061 0.551131 -0.255645
C80   C     C_R   0.769354 0.883744 0.149570 0.583349
C81   C     C_R   0.533228 0.157834 0.853945 0.577368
C82   C     C_R   0.467020 0.157334 0.146640 0.610479
C83   C     C_R   0.033053 0.657813 0.853798 0.593592
C84   C     C_R   0.967843 0.657572 0.146941 0.602896
C85   C     C_R   0.728035 0.017203 0.862136 0.581742
C86   C     C_R   0.272779 0.019361 0.138092 0.543306
C87   C     C_R   0.240831 0.470920 0.854642 0.563459
C88   C     C_R   0.773071 0.520314 0.137966 0.552985
C89   C     C_R   0.478440 0.158355 0.431011 0.023225
C90   C     C_R   0.672377 0.952295 0.525550 -0.147559
C91   C     C_R   0.498065 0.165121 0.578424 0.020386
C92   C     C_R   0.998907 0.663379 0.423042 0.031006
C93   C     C_R   0.017299 0.657626 0.570627 0.027172
C94   C     C_R   0.493833 0.267421 0.464658 -0.005832
C95   C     C_R   0.505169 0.269937 0.537135 -0.007596
C96   C     C_R   0.993057 0.768891 0.464158 -0.006318
C97   C     C_R   0.004335 0.767183 0.536678 -0.000926
C98   C     C_R   0.470841 0.060610 0.546517 -0.160506
C99   C     C_R   0.461499 0.056863 0.473375 -0.159060
C100  C     C_R   0.030401 0.553486 0.528796 -0.157958
Cr1   Cr    Cr6+3 0.771950 0.169480 0.750100 1.125006
Cr2   Cr    Cr6+3 0.383410 0.010620 0.249390 1.050043
Cr3   Cr    Cr6+3 0.116590 0.510620 0.750610 1.055711
Cr4   Cr    Cr6+3 0.883410 0.510620 0.249390 1.048290
Cr5   Cr    Cr6+3 0.228050 0.169480 0.249900 1.129404
Cr6   Cr    Cr6+3 0.271950 0.669480 0.750100 1.144605
Cr7   Cr    Cr6+3 0.728050 0.669480 0.249900 1.118241
Cr8   Cr    Cr6+3 0.614930 0.323340 0.749170 1.082719
Cr9   Cr    Cr6+3 0.385070 0.323340 0.250830 1.096715
Cr10  Cr    Cr6+3 0.114930 0.823340 0.749170 1.106361
Cr11  Cr    Cr6+3 0.885070 0.823340 0.250830 1.087376
Cr12  Cr    Cr6+3 0.616590 0.010620 0.750610 1.050824
H1    H     H_    0.463843 0.978189 0.576645 0.130758
H2    H     H_    0.369205 0.898677 0.050832 0.197678
H3    H     H_    0.136348 0.394899 0.944481 0.218845
H4    H     H_    0.872412 0.408855 0.048973 0.205900
H5    H     H_    0.881588 0.815964 0.457237 0.152985
H6    H     H_    0.966793 0.943646 0.571609 0.163095
H7    H     H_    0.533587 0.441108 0.428834 0.163046
H8    H     H_    0.617398 0.311830 0.543499 0.154227
H9    H     H_    0.597047 0.310635 0.418178 0.164467
H10   H     H_    0.554836 0.444088 0.554202 0.138496
H11   H     H_    0.945745 0.945148 0.446228 0.139472
H12   H     H_    0.443534 0.972729 0.450017 0.136326
H13   H     H_    0.901554 0.816815 0.582611 0.163168
H14   H     H_    0.623924 0.930900 0.554283 0.138525
H15   H     H_    0.346429 0.825853 0.425865 0.125926
H16   H     H_    0.148417 0.343364 0.570911 0.127260
H17   H     H_    0.875678 0.429023 0.445543 0.136446
H18   H     H_    0.838158 0.054962 0.420197 0.142225
H19   H     H_    0.133148 0.968364 0.557756 0.144614
H20   H     H_    0.372980 0.439981 0.445291 0.143031
H21   H     H_    0.660972 0.554108 0.579839 0.141268
H22   H     H_    0.403197 0.139581 0.913816 0.145561
H23   H     H_    0.045310 0.467858 0.552342 0.133124
H24   H     H_    0.376273 0.148596 0.041881 0.082234
H25   H     H_    0.902882 0.657174 0.914203 0.148879
H26   H     H_    0.876864 0.662876 0.042352 0.090245
H27   H     H_    0.898894 0.193923 0.173790 0.362859
H28   H     H_    0.096791 0.193603 0.825540 0.357729
H29   H     H_    0.410105 0.682785 0.143608 0.362501
H30   H     H_    0.611361 0.703233 0.815658 0.359194
H31   H     H_    0.495902 0.866440 0.083938 0.389868
H32   H     H_    0.503592 0.851240 0.909898 0.399331
H33   H     H_    0.001551 0.380832 0.076825 0.400279
H34   H     H_    0.025100 0.472450 0.426605 0.131516
H35   H     H_    0.005660 0.355130 0.908457 0.397337
H36   H     H_    0.602850 0.951715 0.377899 0.263534
H37   H     H_    0.574480 0.869872 0.447729 0.218745
H38   H     H_    0.378127 0.841123 0.599337 0.230566
H39   H     H_    0.393242 0.751280 0.528486 0.212932
H40   H     H_    0.124994 0.377594 0.395111 0.243270
H41   H     H_    0.096726 0.296290 0.465330 0.194892
H42   H     H_    0.897582 0.450525 0.620868 0.260973
H43   H     H_    0.924535 0.364536 0.551600 0.215736
H44   H     H_    0.825401 0.187953 0.573999 0.288775
H45   H     H_    0.839236 0.058314 0.942248 0.241687
H46   H     H_    0.885907 0.131499 0.517462 0.210081
H47   H     H_    0.107767 0.077943 0.446326 0.244373
H48   H     H_    0.078675 0.936423 0.431649 0.227684
H49   H     H_    0.424528 0.487471 0.548537 0.216765
H50   H     H_    0.399069 0.391640 0.613832 0.234263
H51   H     H_    0.674292 0.688858 0.427129 0.286994
H52   H     H_    0.613500 0.632101 0.482837 0.210517
H53   H     H_    0.624490 0.315809 0.093279 0.254705
H54   H     H_    0.648741 0.167644 0.096750 0.252223
H55   H     H_    0.675799 0.191291 0.978175 0.202335
H56   H     H_    0.174749 0.098936 0.053603 0.238414
H57   H     H_    0.641296 0.329226 0.968417 0.253018
H58   H     H_    0.129714 0.801716 0.093749 0.247606
H59   H     H_    0.152060 0.653065 0.094075 0.263255
H60   H     H_    0.174943 0.641048 0.972740 0.219639
H61   H     H_    0.159395 0.790534 0.971579 0.230671
H62   H     H_    0.358557 0.474506 0.927755 0.213812
H63   H     H_    0.676447 0.603955 0.051604 0.238224
H64   H     H_    0.624794 0.933293 0.953130 0.213137
N1    N     N_3   0.617614 0.883277 0.413215 -0.617135
N2    N     N_3   0.636419 0.239565 0.952101 -0.617839
N3    N     N_3   0.110293 0.714168 0.102103 -0.575373
N4    N     N_3   0.142310 0.707745 0.951444 -0.601165
N5    N     N_3   0.354161 0.779618 0.564894 -0.562471
N6    N     N_3   0.139832 0.309950 0.430806 -0.594428
N7    N     N_3   0.881936 0.381239 0.586393 -0.619807
N8    N     N_3   0.846675 0.107580 0.554586 -0.588479
N9    N     N_3   0.120920 0.994784 0.422852 -0.572483
N10   N     N_3   0.382897 0.465627 0.583329 -0.570441
N11   N     N_3   0.652963 0.608365 0.445722 -0.586500
N12   N     N_3   0.606199 0.227843 0.102622 -0.578647
O1    O     O_R   0.787510 0.042610 0.670410 -0.464074
O2    O     O_R   0.454250 0.051070 0.169440 -0.492514
O3    O     O_R   0.045750 0.551070 0.830560 -0.481164
O4    O     O_R   0.954250 0.551070 0.169440 -0.500939
O5    O     O_R   0.681210 0.959150 0.825320 -0.473562
O6    O     O_R   0.318790 0.959150 0.174680 -0.491711
O7    O     O_R   0.181210 0.459150 0.825320 -0.497225
O8    O     O_R   0.818790 0.459150 0.174680 -0.477228
O9    O     O_3   0.667820 0.167810 0.749960 -0.323580
O10   O     O_3   0.332180 0.167810 0.250040 -0.323445
O11   O     O_3   0.167820 0.667810 0.749960 -0.288699
O12   O     O_R   0.212490 0.042610 0.329590 -0.448196
O13   O     O_3   0.832180 0.667810 0.250040 -0.337670
O14   O     O_R   0.765670 0.292090 0.675090 -0.494500
O15   O     O_R   0.234330 0.292090 0.324910 -0.461851
O16   O     O_R   0.265670 0.792090 0.675090 -0.466622
O17   O     O_R   0.734330 0.792090 0.324910 -0.491987
O18   O     O_R   0.670220 0.409020 0.668560 -0.536233
O19   O     O_R   0.329780 0.409020 0.331440 -0.530443
O20   O     O_R   0.170220 0.909020 0.668560 -0.533893
O21   O     O_R   0.829780 0.909020 0.331440 -0.534192
O22   O     O_R   0.556580 0.251590 0.674980 -0.509206
O23   O     O_R   0.287510 0.542610 0.670410 -0.455665
O24   O     O_R   0.443420 0.251590 0.325020 -0.499259
O25   O     O_R   0.056580 0.751590 0.674980 -0.504547
O26   O     O_R   0.943420 0.751590 0.325020 -0.498635
O27   O     O_R   0.545890 0.049670 0.670030 -0.529185
O28   O     O_R   0.454110 0.049670 0.329970 -0.516737
O29   O     O_R   0.045890 0.549670 0.670030 -0.522309
O30   O     O_R   0.954110 0.549670 0.329970 -0.529729
O31   O     O_R   0.681340 0.957860 0.676500 -0.499678
O32   O     O_R   0.318660 0.957860 0.323500 -0.520667
O33   O     O_R   0.181340 0.457860 0.676500 -0.524026
O34   O     O_R   0.712490 0.542610 0.329590 -0.458640
O35   O     O_R   0.818660 0.457860 0.323500 -0.497384
O36   O     O_R   0.787380 0.044010 0.830940 -0.474173
O37   O     O_R   0.212620 0.044010 0.169060 -0.475325
O38   O     O_R   0.287380 0.544010 0.830940 -0.479384
O39   O     O_R   0.712620 0.544010 0.169060 -0.466389
O40   O     O_R   0.765540 0.293390 0.823910 -0.448919
O41   O     O_R   0.234460 0.293390 0.176090 -0.465121
O42   O     O_R   0.265540 0.793390 0.823910 -0.431819
O43   O     O_R   0.734460 0.793390 0.176090 -0.463453
O44   O     O_R   0.670090 0.410410 0.829090 -0.423792
O45   O     O_R   0.556450 0.252890 0.823790 -0.461476
O46   O     O_R   0.329910 0.410410 0.170910 -0.434477
O47   O     O_R   0.170090 0.910410 0.829090 -0.424159
O48   O     O_R   0.829910 0.910410 0.170910 -0.432880
O49   O     O_2   0.936461 0.993564 0.091316 -0.223195
O50   O     O_2   0.904564 0.180860 0.031192 -0.240188
O51   O     O_3   0.855881 0.149459 0.159161 -0.502951
O52   O     O_2   0.068260 0.991585 0.909511 -0.221269
O53   O     O_2   0.093122 0.182714 0.967932 -0.247183
O54   O     O_3   0.141504 0.153066 0.839317 -0.523156
O55   O     O_2   0.446263 0.455129 0.090605 -0.248439
O56   O     O_R   0.443550 0.252890 0.176210 -0.470088
O57   O     O_2   0.424913 0.618021 0.006804 -0.190495
O58   O     O_3   0.366825 0.636658 0.131736 -0.507393
O59   O     O_2   0.571623 0.517105 0.905928 -0.220724
O60   O     O_2   0.607209 0.707767 0.959299 -0.264574
O61   O     O_3   0.654164 0.659580 0.831962 -0.502989
O62   O     O_2   0.607461 0.749180 0.119643 -0.250684
O63   O     O_2   0.608616 0.952004 0.172489 -0.274760
O64   O     O_3   0.533072 0.916015 0.060494 -0.490683
O65   O     O_2   0.382159 0.722348 0.886598 -0.208819
O66   O     O_2   0.394439 0.921018 0.830206 -0.315277
O67   O     O_R   0.056450 0.752890 0.823790 -0.462815
O68   O     O_3   0.465929 0.877829 0.943693 -0.475395
O69   O     O_2   0.105563 0.247592 0.118323 -0.240558
O70   O     O_2   0.117131 0.455048 0.162133 -0.279056
O71   O     O_3   0.041855 0.417673 0.050564 -0.490089
O72   O     O_2   0.888343 0.233801 0.882300 -0.239994
O73   O     O_2   0.893832 0.433679 0.826740 -0.301248
O74   O     O_3   0.968648 0.394691 0.938388 -0.478340
O75   O     O_R   0.943550 0.752890 0.176210 -0.474698
O76   O     O_R   0.545750 0.051070 0.830560 -0.497089
S1    S     S_3+6 0.877858 0.084320 0.080758 0.053247
S2    S     S_3+6 0.123463 0.088345 0.918469 0.039346
S3    S     S_3+6 0.391591 0.543357 0.064761 0.056487
S4    S     S_3+6 0.631952 0.605043 0.912725 0.044802
S5    S     S_3+6 0.607603 0.882450 0.103540 0.038882
S6    S     S_3+6 0.390192 0.855752 0.900309 0.036110
S7    S     S_3+6 0.113519 0.377649 0.096247 0.035288
S8    S     S_3+6 0.892733 0.367449 0.896604 0.034434

loop_
_geom_bond_atom_site_label_1
_geom_bond_atom_site_label_2
_ccdc_geom_bond_type
C58   C62   A    
C21   C26   A    
C73   O12   A    
H36   N1    S    
C38   N2    S    
Cr7   O43   S    
H33   O71   S    
C88   O8    A    
C19   C23   A    
C2    C7    A    
Cr11  O26   S    
C81   O45   A    
C4    C8    A    
H52   N11   S    
H59   N3    S    
Cr11  O13   S    
H44   N8    S    
C58   C76   S    
C21   N10   S    
O57   S3    D    
C15   C19   A    
H32   O68   S    
C74   O33   A    
C59   S5    S    
C68   C96   S    
C66   H4    S    
C89   C99   A    
Cr1   O40   S    
C44   O26   A    
O61   S4    S    
C83   O3    A    
C28   C29   A    
C25   C73   S    
O55   S3    D    
Cr7   O13   S    
C29   C32   A    
Cr1   O1    S    
Cr1   O14   S    
Cr2   O10   S    
C30   C31   A    
C41   O27   A    
H43   N7    S    
O64   S5    S    
Cr5   O15   S    
C37   N12   S    
C76   O40   A    
C20   C25   A    
C70   C87   S    
C36   C83   S    
C65   C70   A    
Cr4   O4    S    
C51   S2    S    
C11   C24   S    
C92   C96   A    
C81   O76   A    
O51   S1    S    
C18   H21   S    
O49   S1    D    
H51   N11   S    
Cr12  O27   S    
Cr8   O9    S    
Cr9   O19   S    
C16   H19   S    
C80   O48   A    
C47   C69   A    
O73   S8    D    
Cr2   O2    S    
C57   H10   S    
C5    C27   A    
C3    C100  A    
C35   O17   A    
Cr5   O12   S    
C75   O34   A    
C78   O47   A    
Cr7   O39   S    
C12   C17   A    
C76   O44   A    
C6    N1    S    
Cr6   O38   S    
C46   H9    S    
C10   C35   S    
O69   S7    D    
C42   O24   A    
Cr5   O37   S    
C8    C12   A    
Cr9   O24   S    
C72   O1    A    
Cr10  O67   S    
Cr4   O35   S    
C54   C80   S    
C44   C92   S    
C100  H23   S    
Cr2   O32   S    
Cr7   O34   S    
C2    H15   S    
H60   N4    S    
C68   C79   S    
C5    H17   S    
C20   N9    S    
C50   S1    S    
C75   O35   A    
H30   O61   S    
C40   N4    S    
C55   C60   A    
C96   C97   A    
C17   H20   S    
C65   H3    S    
Cr8   O22   S    
O63   S5    D    
Cr9   O10   S    
C43   O29   A    
C34   C84   S    
H48   N9    S    
C42   O28   A    
C27   C75   S    
C1    O14   A    
Cr2   O6    S    
C68   H11   S    
H39   N5    S    
H38   N5    S    
C48   H62   S    
C54   C59   A    
Cr4   O8    S    
C63   C67   A    
C67   C85   S    
H53   N12   S    
C64   H2    S    
H31   O64   S    
C62   C66   A    
H27   O51   S    
C34   C39   A    
O52   S2    D    
C63   H64   S    
Cr10  O25   S    
C45   H45   S    
Cr8   O18   S    
H55   N2    S    
C39   C40   A    
H50   N10   S    
C55   C78   S    
C7    N5    S    
C98   H1    S    
C47   C51   A    
C79   H6    S    
Cr9   O56   S    
C6    C90   A    
O68   S6    S    
O66   S6    D    
C17   C21   A    
C56   C77   S    
C13   O15   A    
C73   O32   A    
C83   O67   A    
C3    C92   A    
C31   H26   S    
Cr5   O41   S    
Cr12  O9    S    
O72   S8    D    
C7    C11   A    
C9    C14   A    
Cr11  O21   S    
C5    C9    A    
C37   C38   A    
C9    N7    S    
C68   H5    S    
C11   C16   A    
C39   N3    S    
C66   C71   A    
C46   C94   S    
C36   C40   A    
O65   S6    D    
C16   C20   A    
C87   O38   A    
Cr11  O75   S    
H42   N7    S    
C52   S3    S    
H28   O54   S    
H37   N1    S    
H29   O58   S    
C90   H14   S    
C31   C34   A    
C44   O30   A    
C84   O75   A    
Cr3   O11   S    
C32   C37   A    
H41   N6    S    
H35   O74   S    
C1    O18   A    
C93   C100  A    
Cr4   O30   S    
C22   N11   S    
Cr12  O76   S    
C57   H8    S    
O60   S4    D    
O59   S4    D    
C10   C15   A    
Cr1   O36   S    
Cr2   O28   S    
Cr5   O10   S    
C41   C91   S    
Cr3   O29   S    
C28   C33   A    
C22   C27   A    
C46   C57   S    
C57   C95   S    
C28   H22   S    
Cr3   O3    S    
C41   O22   A    
C80   O43   A    
H40   N6    S    
O58   S3    S    
C43   O25   A    
C93   C97   A    
H57   N2    S    
C49   H63   S    
C89   C94   A    
O71   S7    S    
Cr10  O47   S    
Cr8   O44   S    
C8    N6    S    
C72   O31   A    
Cr1   O9    S    
Cr8   O45   S    
C24   O16   A    
C4    H16   S    
Cr6   O16   S    
Cr10  O11   S    
C18   C22   A    
C59   C63   A    
C14   C18   A    
C79   C97   S    
O50   S1    D    
H54   N12   S    
C48   C70   A    
C19   N8    S    
C6    C10   A    
Cr9   O46   S    
C4    C26   A    
C53   C58   A    
Cr6   O42   S    
C45   C67   A    
Cr3   O7    S    
C78   O42   A    
C53   S4    S    
C32   C82   S    
H58   N3    S    
C77   O41   A    
C33   C38   A    
H61   N4    S    
C30   C36   A    
C74   O23   A    
C60   C64   A    
C42   C89   S    
Cr4   O13   S    
H47   N9    S    
C35   O21   A    
C87   O7    A    
C50   C54   A    
Cr3   O33   S    
C23   C90   A    
C47   H56   S    
C85   O5    A    
C15   H18   S    
H46   N8    S    
C45   C50   A    
O70   S7    D    
Cr6   O23   S    
O53   S2    D    
C77   O46   A    
C43   C93   S    
Cr12  O31   S    
C24   O20   A    
C46   H7    S    
C84   O4    A    
C2    C25   A    
C51   C55   A    
C23   C72   S    
O54   S2    S    
C91   C98   A    
C79   H13   S    
C94   C95   A    
C82   O2    A    
C85   O36   A    
Cr12  O5    S    
Cr7   O17   S    
C49   C53   A    
Cr11  O48   S    
C13   O19   A    
O74   S8    S    
C71   C88   S    
C88   O39   A    
C61   C65   A    
C48   C52   A    
C29   H24   S    
C12   C13   S    
C3    H34   S    
C26   C74   S    
C98   C99   A    
C49   C71   A    
C30   H25   S    
C86   O37   A    
C91   C95   A    
C56   C61   A    
Cr6   O11   S    
Cr10  O20   S    
C1    C14   S    
O62   S5    D    
C60   S6    S    
C82   O56   A    
C33   C81   S    
C61   S7    S    
C86   O6    A    
C69   C86   S    
C52   C56   A    
C62   S8    S    
C99   H12   S    
C64   C69   A    
H49   N10   S    
