data_mof_unit_13837.cif
_audit_creation_date              2012-12-11T17:08:28-0500
_audit_creation_method            fapswitch 2.2
_symmetry_space_group_name_H-M    P1
_symmetry_Int_Tables_number       1
_space_group_crystal_system       triclinic
_cell_length_a                    6.958204
_cell_length_b                    14.511377
_cell_length_c                    16.079914
_cell_angle_alpha                 89.971028
_cell_angle_beta                  89.979035
_cell_angle_gamma                 89.998498
_cell_volume                      1623.638793

loop_
_atom_site_label
_atom_site_type_symbol
_atom_type_description
_atom_site_fract_x
_atom_site_fract_y
_atom_site_fract_z
_atom_type_partial_charge
O1    O     O_R   0.505700 0.583890 0.413310 -0.544722
O2    O     O_R   0.175960 0.594920 0.586080 -0.546676
O3    O     O_R   0.005660 0.416110 0.586690 -0.543002
C1    C     C_R   0.344612 0.616868 0.614852 0.780720
O4    O     O_R   0.175980 0.594920 0.413930 -0.549246
O5    O     O_R   0.005680 0.416110 0.413310 -0.546225
C2    C     C_R   0.344653 0.616939 0.385263 0.709593
O6    O     O_R   0.505680 0.583890 0.586690 -0.538268
O7    O     O_3   0.339200 0.441330 0.500000 -0.360152
V1    V     V_3+5 0.064350 0.510880 0.500000 1.431184
O8    O     O_R   0.675960 0.405080 0.413920 -0.540086
C3    C     C_R   0.845033 0.383138 0.385079 0.689919
O9    O     O_R   0.675940 0.405080 0.586070 -0.496777
C4    C     C_R   0.844657 0.382635 0.614485 0.787188
V2    V     V_3+5 0.564340 0.489120 0.500000 1.497534
O10   O     O_3   0.839360 0.558670 0.500000 -0.385537
C5    C     C_R   0.993903 0.322902 0.746149 -0.001662
C6    C     C_R   0.851899 0.316373 0.684607 -0.270008
C7    C     C_R   0.710205 0.247517 0.694778 0.620482
C8    C     C_R   0.720868 0.184243 0.761181 -0.259349
H1    H     H_    0.613663 0.130331 0.765351 0.140682
C9    C     C_R   0.875573 0.186219 0.817846 -0.164449
C10   C     C_R   0.006738 0.258924 0.810462 0.020397
C11   C     C_3   0.221070 0.258239 0.807811 -0.416533
C12   C     C_3   0.206897 0.328602 0.737906 0.523678
H2    H     H_    0.279596 0.190766 0.787158 0.135412
H3    H     H_    0.285600 0.286194 0.865771 0.203178
H4    H     H_    0.259904 0.304463 0.676614 0.125666
C13   C     C_R   0.728314 0.182067 0.241932 0.094395
C14   C     C_R   0.882067 0.182259 0.185611 -0.108827
C15   C     C_R   0.033378 0.244434 0.201002 -0.168135
H5    H     H_    0.155608 0.246894 0.159611 0.135341
C16   C     C_R   0.022143 0.308663 0.266515 -0.169006
H6    H     H_    0.136622 0.358406 0.273756 0.128287
C17   C     C_R   0.858976 0.312859 0.318430 -0.107901
C18   C     C_R   0.716749 0.245882 0.306517 0.120284
C19   C     C_3   0.505596 0.257435 0.295279 -0.399483
C20   C     C_3   0.518085 0.187456 0.225229 -0.408060
H7    H     H_    0.468032 0.327877 0.273564 0.166327
H8    H     H_    0.422684 0.232252 0.349845 0.185601
H9    H     H_    0.486887 0.217048 0.162908 0.174961
H10   H     H_    0.443280 0.121611 0.239467 0.165065
C21   C     C_R   0.498262 0.752895 0.685740 0.079812
C22   C     C_R   0.351933 0.686756 0.681885 -0.176664
C23   C     C_R   0.207306 0.690863 0.743212 -0.216139
H11   H     H_    0.090198 0.641771 0.742260 0.168616
C24   C     C_R   0.220329 0.753508 0.810108 0.611348
C25   C     C_R   0.376464 0.815415 0.816259 -0.214027
C26   C     C_R   0.509387 0.816024 0.750793 -0.007201
C27   C     C_3   0.723141 0.810268 0.753298 -0.349096
C28   C     C_3   0.711018 0.741529 0.682164 -0.371727
H12   H     H_    0.774551 0.779388 0.812313 0.248926
H13   H     H_    0.792717 0.876344 0.735475 0.158800
H14   H     H_    0.757657 0.670905 0.699761 0.186572
H15   H     H_    0.772661 0.768127 0.623063 0.159506
C29   C     C_R   0.480846 0.760260 0.319615 0.028433
C30   C     C_R   0.351633 0.686359 0.317914 -0.157536
C31   C     C_R   0.220928 0.682906 0.250920 -0.262871
H16   H     H_    0.114465 0.628530 0.248102 0.143499
C32   C     C_R   0.235692 0.745441 0.183765 0.683718
C33   C     C_R   0.376850 0.815443 0.183629 -0.221960
C34   C     C_R   0.491176 0.823846 0.254962 -0.090188
C35   C     C_3   0.704001 0.834021 0.265721 0.234758
C36   C     C_3   0.691669 0.763937 0.336555 -0.422973
H17   H     H_    0.747130 0.904278 0.285958 0.103568
H18   H     H_    0.723456 0.794487 0.398417 0.141015
H19   H     H_    0.765323 0.697378 0.323759 0.180795
O11   O     O_R   0.229000 0.916070 0.913330 -0.511471
O12   O     O_R   0.558770 0.905070 0.086080 -0.523210
O13   O     O_R   0.729000 0.083900 0.086690 -0.545496
C37   C     C_R   0.389789 0.882720 0.114536 0.785469
O14   O     O_R   0.558720 0.905070 0.913930 -0.544351
O15   O     O_R   0.728960 0.083900 0.913310 -0.550481
C38   C     C_R   0.389621 0.882399 0.885687 0.767385
O16   O     O_R   0.229050 0.916070 0.086710 -0.506101
O17   O     O_3   0.395460 0.058650 0.000020 -0.398910
V3    V     V_3+5 0.670340 0.989120 0.000000 1.522426
O18   O     O_R   0.058670 0.094960 0.913900 -0.549629
C39   C     C_R   0.889658 0.116750 0.885037 0.713645
O19   O     O_R   0.058720 0.094960 0.086050 -0.552935
C40   C     C_R   0.889936 0.116886 0.114875 0.686076
V4    V     V_3+5 0.170330 0.010930 0.999970 1.508681
O20   O     O_3   0.895340 0.941350 0.999980 -0.322867
F1    F     F_    0.570577 0.236221 0.636855 -0.713896
F2    F     F_    0.089062 0.748262 0.872319 -0.661947
F3    F     F_    0.121515 0.733227 0.116255 -0.635811
O21   O     O_3   0.809712 0.802662 0.196785 -0.591041
H20   H     H_    0.760982 0.740838 0.180597 0.334803
F4    F     F_    0.275046 0.414455 0.761040 -0.661112

loop_
_geom_bond_atom_site_label_1
_geom_bond_atom_site_label_2
_ccdc_geom_bond_type
O21   H20   S    
C35   H17   S    
C4    C6    S    
O12   V3    S    
C7    C8    A    
C11   H3    S    
C1    O6    A    
C23   H11   S    
C12   H4    S    
C13   C18   A    
C13   C14   A    
C24   F2    S    
C18   C19   S    
C19   C20   S    
C11   H2    S    
C9    C39   S    
C20   H10   S    
C19   H8    S    
O5    C3    A    
C14   C15   A    
V3    O20   S    
C31   C32   A    
V2    O10   S    
C29   C30   A    
C6    C7    A    
O12   C37   A    
O13   C40   A    
O8    V2    S    
C15   H5    S    
C13   C20   S    
C27   H12   S    
C10   C11   S    
C29   C36   S    
O1    V2    S    
O7    V1    S    
C33   C37   S    
O9    C4    A    
O13   V3    S    
C5    C6    A    
C23   C24   A    
C27   H13   S    
C36   H19   S    
C25   C38   S    
C11   C12   S    
C20   H9    S    
O14   C38   A    
O17   V4    S    
O4    C2    A    
C32   F3    S    
O18   C39   A    
C21   C26   A    
C1    C22   S    
C27   C28   S    
C31   H16   S    
C32   C33   A    
C17   C18   A    
C36   H18   S    
O2    C1    A    
C21   C22   A    
O14   V3    S    
O18   V4    S    
C24   C25   A    
C34   C35   S    
C15   C16   A    
C16   H6    S    
O15   C39   A    
C5    C10   A    
O17   V3    S    
C3    C17   S    
O3    C4    A    
O19   V4    S    
C25   C26   A    
C8    C9    A    
V4    O20   S    
O6    V2    S    
O9    V2    S    
C29   C34   A    
C7    F1    S    
O2    V1    S    
C22   C23   A    
C35   O21   S    
O1    C2    A    
O19   C40   A    
O5    V1    S    
O8    C3    A    
O16   V4    S    
C12   F4    S    
C28   H14   S    
C5    C12   S    
C14   C40   S    
O7    V2    S    
O11   V4    S    
O4    V1    S    
C19   H7    S    
O3    V1    S    
V1    O10   S    
C37   O16   A    
C21   C28   S    
C30   C31   A    
C16   C17   A    
C28   H15   S    
C33   C34   A    
C35   C36   S    
C8    H1    S    
C26   C27   S    
O15   V3    S    
C9    C10   A    
O11   C38   A    
C2    C30   S    
