data_mof_unit_12536.cif
_audit_creation_date              2013-03-05T15:44:13-0500
_audit_creation_method            fapswitch 2.2
_symmetry_space_group_name_H-M    P1
_symmetry_Int_Tables_number       1
_space_group_crystal_system       triclinic
_cell_length_a                    26.153482
_cell_length_b                    27.431797
_cell_length_c                    8.376914
_cell_angle_alpha                 90.000119
_cell_angle_beta                  96.118426
_cell_angle_gamma                 89.978742
_cell_volume                      5975.67358309

loop_
_atom_site_label
_atom_site_type_symbol
_atom_site_description
_atom_site_fract_x
_atom_site_fract_y
_atom_site_fract_z
_atom_type_partial_charge
P1    P     P_3+3 0.893960 0.447890 0.040050 0.472483
P2    P     P_3+3 0.893960 0.552110 0.540050 0.473174
P3    P     P_3+3 0.393960 0.947890 0.040050 0.472486
P4    P     P_3+3 0.393960 0.052110 0.540050 0.473135
O1    O     O_2   0.898940 0.431940 0.867860 -0.358419
O2    O     O_2   0.898940 0.568060 0.367860 -0.358700
O3    O     O_2   0.398940 0.931940 0.867860 -0.358484
O4    O     O_2   0.398940 0.068060 0.367860 -0.358736
O5    O     O_3   0.941140 0.476130 0.123050 -0.409312
O6    O     O_3   0.941140 0.523870 0.623050 -0.409357
O7    O     O_3   0.441140 0.976130 0.123050 -0.409310
O8    O     O_3   0.441140 0.023870 0.623050 -0.409370
O9    O     O_3   0.982430 0.389880 0.635700 -0.364479
O10   O     O_3   0.982430 0.610120 0.135700 -0.397538
O11   O     O_3   0.482430 0.889880 0.635700 -0.363941
O12   O     O_3   0.482430 0.110120 0.135700 -0.397907
O13   O     O_2   0.897419 0.351326 0.731951 -0.353757
O14   O     O_2   0.898735 0.650594 0.236243 -0.352335
O15   O     O_2   0.397479 0.851269 0.732093 -0.353757
O16   O     O_2   0.398733 0.150610 0.236146 -0.352258
O17   O     O_3   0.839553 0.485393 0.023874 -0.565333
O18   O     O_3   0.839773 0.514345 0.523216 -0.566076
O19   O     O_3   0.339557 0.985398 0.023868 -0.565322
O20   O     O_3   0.339773 0.014345 0.523215 -0.566066
O21   O     O_3   0.966649 0.288977 0.664752 -0.459837
O22   O     O_3   0.966846 0.712049 0.151410 -0.488814
O23   O     O_3   0.466781 0.789004 0.664697 -0.459514
O24   O     O_3   0.466838 0.212075 0.151289 -0.489003
H1    H     H_    0.023060 0.306127 0.515592 0.061583
H2    H     H_    0.041445 0.685572 0.176343 0.139131
H3    H     H_    0.522400 0.806125 0.512565 0.059909
H4    H     H_    0.541385 0.185514 0.178384 0.140242
C1    C     C_3   0.031904 0.233138 0.604822 -0.875126
C2    C     C_3   0.039448 0.760698 0.104496 -0.932577
C3    C     C_3   0.532499 0.733643 0.605063 -0.874126
C4    C     C_3   0.539687 0.260560 0.105728 -0.931890
H5    H     H_    0.057356 0.244107 0.713593 0.288448
H6    H     H_    0.043109 0.774560 0.229802 0.288931
H7    H     H_    0.558328 0.745412 0.711963 0.288235
H8    H     H_    0.542766 0.274675 0.230640 0.289217
H9    H     H_    0.007944 0.201658 0.634647 0.267036
H10   H     H_    0.014856 0.785968 0.026153 0.262253
H11   H     H_    0.509125 0.702140 0.638084 0.266983
H12   H     H_    0.515486 0.285709 0.025847 0.261420
P5    P     P_3+3 0.105800 0.447360 0.649510 0.477409
P6    P     P_3+3 0.105800 0.552640 0.149510 0.473818
P7    P     P_3+3 0.605800 0.947360 0.649510 0.477437
P8    P     P_3+3 0.605800 0.052640 0.149510 0.473731
P9    P     P_3+3 0.064538 0.344355 0.084105 0.527475
P10   P     P_3+3 0.064198 0.655907 0.583836 0.513090
P11   P     P_3+3 0.564527 0.844345 0.084109 0.527505
P12   P     P_3+3 0.564185 0.155914 0.583831 0.512899
O25   O     O_2   0.100770 0.431440 0.821660 -0.355766
O26   O     O_2   0.100770 0.568560 0.321660 -0.359337
O27   O     O_2   0.600770 0.931440 0.821660 -0.355776
O28   O     O_2   0.600770 0.068560 0.321660 -0.359450
O29   O     O_3   0.017130 0.389790 0.053700 -0.365365
O30   O     O_3   0.017130 0.610210 0.553700 -0.364726
O31   O     O_3   0.517130 0.889790 0.053700 -0.365345
O32   O     O_3   0.517130 0.110210 0.553700 -0.364790
O33   O     O_2   0.105912 0.355586 0.971139 -0.337555
O34   O     O_2   0.104505 0.645880 0.466031 -0.348330
O35   O     O_2   0.605898 0.855572 0.971122 -0.337703
O36   O     O_2   0.604421 0.145976 0.465713 -0.348675
O37   O     O_3   0.160235 0.484826 0.667752 -0.559601
O38   O     O_3   0.160058 0.514891 0.168339 -0.556060
O39   O     O_3   0.660241 0.984818 0.667725 -0.559621
O40   O     O_3   0.660054 0.014885 0.168350 -0.556031
O41   O     O_3   0.038229 0.289819 0.005257 -0.452087
O42   O     O_3   0.036585 0.710707 0.511323 -0.472741
O43   O     O_3   0.538200 0.789817 0.005251 -0.451638
O44   O     O_3   0.536488 0.210732 0.511812 -0.472964
C5    C     C_3   0.010808 0.267465 0.120156 0.430257
C6    C     C_3   0.011959 0.733060 0.632889 0.407566
C7    C     C_3   0.510768 0.767470 0.120135 0.430405
C8    C     C_3   0.511937 0.233003 0.633713 0.407531
H13   H     H_    0.974889 0.288113 0.133479 0.085989
H14   H     H_    0.976777 0.712356 0.654436 0.097856
H15   H     H_    0.474860 0.788131 0.133497 0.085725
H16   H     H_    0.476728 0.212323 0.655147 0.097420
H17   H     H_    0.034352 0.264766 0.238132 0.016670
H18   H     H_    0.037889 0.736050 0.746220 0.051947
H19   H     H_    0.534309 0.764753 0.238102 0.016497
H20   H     H_    0.537899 0.235869 0.747023 0.051607
C9    C     C_3   0.997473 0.215765 0.064759 -0.724849
C10   C     C_3   0.997393 0.784718 0.580066 -0.726397
C11   C     C_3   0.497414 0.715779 0.064689 -0.724493
C12   C     C_3   0.497439 0.284724 0.581470 -0.727279
H21   H     H_    0.969096 0.216578 0.956242 0.269153
H22   H     H_    0.968416 0.783850 0.473034 0.274251
H23   H     H_    0.469022 0.716612 0.956216 0.269051
H24   H     H_    0.468483 0.283990 0.474382 0.274457
H25   H     H_    0.032630 0.196485 0.035358 0.250694
H26   H     H_    0.031961 0.804644 0.549076 0.246407
H27   H     H_    0.532558 0.696498 0.035200 0.250773
H28   H     H_    0.532037 0.304655 0.550776 0.246633
C13   C     C_3   0.146850 0.468726 0.221495 0.408849
C14   C     C_3   0.147369 0.531023 0.721507 0.406552
C15   C     C_3   0.646840 0.968718 0.221475 0.409009
C16   C     C_3   0.647393 0.031012 0.721530 0.406473
H29   H     H_    0.130975 0.471770 0.338238 0.091525
H30   H     H_    0.131819 0.527999 0.838782 0.094030
H31   H     H_    0.630972 0.971758 0.338231 0.091474
H32   H     H_    0.631873 0.027983 0.838848 0.094095
H33   H     H_    0.118483 0.450813 0.132246 0.129913
H34   H     H_    0.118875 0.549106 0.632977 0.129540
H35   H     H_    0.618465 0.950816 0.132225 0.129891
H36   H     H_    0.618884 0.049103 0.633063 0.129434
C17   C     C_3   0.195288 0.437652 0.242734 -0.898478
C18   C     C_3   0.195977 0.561834 0.741689 -0.893925
C19   C     C_3   0.695273 0.937636 0.242659 -0.898859
C20   C     C_3   0.696008 0.061816 0.741620 -0.893922
H37   H     H_    0.223863 0.454283 0.334343 0.266913
H38   H     H_    0.224755 0.544926 0.832110 0.266610
H39   H     H_    0.723856 0.954255 0.334272 0.266979
H40   H     H_    0.724809 0.044890 0.831932 0.266644
H41   H     H_    0.186267 0.400491 0.282494 0.218427
H42   H     H_    0.187307 0.598960 0.782531 0.220103
H43   H     H_    0.686249 0.900473 0.282385 0.218372
H44   H     H_    0.687360 0.098935 0.782561 0.220057
H45   H     H_    0.212225 0.434888 0.126974 0.272822
H46   H     H_    0.212503 0.564705 0.625274 0.271949
H47   H     H_    0.712203 0.934880 0.126883 0.272794
H48   H     H_    0.712496 0.064703 0.625149 0.271933
Ba1   Ba    Ba6+2 0.999910 0.465960 0.844870 1.576269
Ba2   Ba    Ba6+2 0.999910 0.534040 0.344870 1.570344
Ba3   Ba    Ba6+2 0.499910 0.965960 0.844870 1.576326
Ba4   Ba    Ba6+2 0.499910 0.034040 0.344870 1.570246
C21   C     C_3   0.851890 0.531384 0.967854 0.430449
C22   C     C_3   0.852514 0.468351 0.468032 0.431301
C23   C     C_3   0.351901 0.031390 0.967874 0.430432
C24   C     C_3   0.352516 0.968348 0.468055 0.431340
H49   H     H_    0.866082 0.527946 0.848727 0.092273
H50   H     H_    0.867099 0.471743 0.349487 0.091749
H51   H     H_    0.366095 0.027957 0.848747 0.092252
H52   H     H_    0.367102 0.971737 0.349509 0.091721
H53   H     H_    0.881196 0.549566 0.053498 0.122930
H54   H     H_    0.881670 0.450329 0.554604 0.124753
H55   H     H_    0.381209 0.049566 0.053529 0.122993
H56   H     H_    0.381673 0.950331 0.554636 0.124716
C25   C     C_3   0.803223 0.562184 0.951735 -0.966197
C26   C     C_3   0.804008 0.437359 0.450741 -0.962079
C27   C     C_3   0.303239 0.062197 0.951767 -0.966112
C28   C     C_3   0.304012 0.937353 0.450779 -0.962170
H57   H     H_    0.773509 0.544889 0.865294 0.268590
H58   H     H_    0.774506 0.454402 0.362941 0.267690
H59   H     H_    0.273525 0.044913 0.865299 0.268574
H60   H     H_    0.274512 0.954388 0.362952 0.267690
H61   H     H_    0.811238 0.599093 0.907759 0.217186
H62   H     H_    0.812397 0.400393 0.407933 0.219512
H63   H     H_    0.311262 0.099109 0.907833 0.217267
H64   H     H_    0.312406 0.900384 0.408015 0.219547
H65   H     H_    0.788170 0.565611 0.070320 0.271598
H66   H     H_    0.788497 0.434089 0.568667 0.271114
H67   H     H_    0.288182 0.065615 0.070348 0.271589
H68   H     H_    0.288497 0.934095 0.568701 0.271126
O45   O     O_3   0.058810 0.523750 0.066650 -0.409255
O46   O     O_3   0.058810 0.476250 0.566650 -0.411405
O47   O     O_3   0.558810 0.023750 0.066650 -0.409236
O48   O     O_3   0.558810 0.976250 0.566650 -0.411418
P13   P     P_3+3 0.936195 0.656296 0.106492 0.485885
P14   P     P_3+3 0.936076 0.343820 0.606826 0.495296
P15   P     P_3+3 0.436207 0.156306 0.106432 0.485710
P16   P     P_3+3 0.436102 0.843802 0.606840 0.495648
C29   C     C_3   0.997666 0.275611 0.545144 0.385762
C30   C     C_3   0.015900 0.710013 0.097553 0.511635
C31   C     C_3   0.497532 0.775500 0.544533 0.383866
C32   C     C_3   0.516065 0.209907 0.098757 0.511417
H69   H     H_    0.972971 0.263854 0.435678 0.062583
H70   H     H_    0.013765 0.696864 0.971491 -0.030312
H71   H     H_    0.472639 0.763073 0.436374 0.064912
H72   H     H_    0.514241 0.196623 0.972925 -0.030017
H73   H     H_    0.056214 0.221976 0.510189 0.204743
H74   H     H_    0.078217 0.759240 0.062083 0.206943
H75   H     H_    0.556404 0.722177 0.509766 0.204484
H76   H     H_    0.578708 0.258948 0.065288 0.207177
H77   H     H_    0.981241 0.195273 0.161838 0.239177
H78   H     H_    0.981434 0.804532 0.679141 0.240731
H79   H     H_    0.481193 0.695276 0.161765 0.238940
H80   H     H_    0.481485 0.304443 0.680744 0.240634
C33   C     C_R   0.914760 0.382753 0.298476 -0.496790
C34   C     C_R   0.914096 0.616818 0.799437 -0.508576
C35   C     C_R   0.414765 0.882747 0.298492 -0.496404
C36   C     C_R   0.414115 0.116824 0.799386 -0.508623
C37   C     C_R   0.885203 0.390352 0.151530 0.334995
C38   C     C_R   0.884658 0.609339 0.652269 0.333557
C39   C     C_R   0.385201 0.890352 0.151556 0.334884
C40   C     C_R   0.384665 0.109340 0.652244 0.333564
C41   C     C_R   0.845498 0.357224 0.101132 -0.239073
C42   C     C_R   0.844596 0.642192 0.602530 -0.235626
C43   C     C_R   0.345488 0.857229 0.101179 -0.239085
C44   C     C_R   0.344595 0.142185 0.602517 -0.235383
C45   C     C_R   0.834744 0.317136 0.199015 0.093731
C46   C     C_R   0.833594 0.682056 0.700960 0.082605
C47   C     C_R   0.334738 0.817139 0.199059 0.094192
C48   C     C_R   0.333590 0.182047 0.700949 0.081726
C49   C     C_R   0.862998 0.312509 0.351696 -0.185182
C50   C     C_R   0.861946 0.686748 0.853464 -0.174060
C51   C     C_R   0.363006 0.812500 0.351715 -0.185856
C52   C     C_R   0.361968 0.186752 0.853410 -0.175009
C53   C     C_R   0.902616 0.345366 0.401351 0.144962
C54   C     C_R   0.901721 0.653973 0.902784 0.193439
C55   C     C_R   0.402628 0.845354 0.401366 0.144454
C56   C     C_R   0.401745 0.153981 0.902721 0.193757
C57   C     C_R   0.799019 0.230239 0.162358 0.365919
C58   C     C_R   0.798103 0.768917 0.661216 0.365882
C59   C     C_R   0.299000 0.730250 0.162300 0.366119
C60   C     C_R   0.297969 0.268857 0.662091 0.366358
C61   C     C_R   0.257310 0.698730 0.117082 -0.234568
C62   C     C_R   0.256275 0.300398 0.617085 -0.238652
C63   C     C_R   0.757335 0.198713 0.117130 -0.234462
C64   C     C_R   0.756385 0.800446 0.616222 -0.238953
C65   C     C_R   0.209342 0.716745 0.051980 0.159870
C66   C     C_R   0.208040 0.282358 0.554766 0.156816
C67   C     C_R   0.709374 0.216721 0.051908 0.159955
C68   C     C_R   0.708083 0.782389 0.554651 0.156878
C69   C     C_R   0.203085 0.767501 0.037256 -0.059189
C70   C     C_R   0.201487 0.231583 0.542783 -0.053652
C71   C     C_R   0.703115 0.267476 0.037076 -0.059489
C72   C     C_R   0.701478 0.731614 0.543272 -0.053505
C73   C     C_R   0.743962 0.299335 0.083323 -0.194621
C74   C     C_R   0.742402 0.699740 0.589106 -0.198371
C75   C     C_R   0.243939 0.799353 0.083499 -0.194838
C76   C     C_R   0.242414 0.199704 0.588573 -0.198189
C77   C     C_R   0.792492 0.281595 0.146150 -0.012911
C78   C     C_R   0.791259 0.717529 0.648332 -0.010180
C79   C     C_R   0.292474 0.781607 0.146208 -0.013033
C80   C     C_R   0.291212 0.217489 0.648423 -0.010041
C81   C     C_R   0.139237 0.687735 0.838974 0.221502
C82   C     C_R   0.137902 0.311259 0.341743 0.231870
C83   C     C_R   0.639288 0.187692 0.838870 0.221650
C84   C     C_R   0.637904 0.811248 0.341735 0.232238
C85   C     C_R   0.097688 0.656029 0.790550 0.053664
C86   C     C_R   0.096813 0.343390 0.292271 0.032669
C87   C     C_R   0.597741 0.155983 0.790452 0.054271
C88   C     C_R   0.596810 0.843376 0.292274 0.032671
C89   C     C_R   0.114619 0.610314 0.039388 0.325073
C90   C     C_R   0.114142 0.389461 0.540202 0.349365
C91   C     C_R   0.614640 0.110299 0.039351 0.324994
C92   C     C_R   0.614151 0.889459 0.540195 0.349621
C93   C     C_R   0.154467 0.642844 0.091251 -0.278967
C94   C     C_R   0.153658 0.356652 0.592800 -0.264959
C95   C     C_R   0.654492 0.142827 0.091205 -0.279196
C96   C     C_R   0.653690 0.856666 0.592742 -0.265213
C97   C     C_R   0.166556 0.682498 0.994131 -0.112881
C98   C     C_R   0.165313 0.316630 0.496660 -0.107689
C99   C     C_R   0.666596 0.182466 0.994047 -0.113150
C100  C     C_R   0.665338 0.816642 0.496603 -0.107946
C101  C     C_R   0.084945 0.618800 0.893483 -0.547530
C102  C     C_R   0.084423 0.380987 0.394371 -0.534566
C103  C     C_R   0.584986 0.118766 0.893405 -0.547596
C104  C     C_R   0.584422 0.880975 0.394384 -0.533676
H81   H     H_    0.176736 0.636639 0.205995 0.184387
H82   H     H_    0.176052 0.362936 0.707284 0.179984
H83   H     H_    0.676748 0.136632 0.205978 0.184423
H84   H     H_    0.676111 0.862963 0.707175 0.179959
H85   H     H_    0.263069 0.659677 0.125911 0.173054
H86   H     H_    0.262207 0.339457 0.623847 0.172817
H87   H     H_    0.763096 0.159659 0.126049 0.173031
H88   H     H_    0.762323 0.839511 0.622408 0.173338
H89   H     H_    0.822757 0.363006 0.986961 0.157498
H90   H     H_    0.821827 0.636428 0.488396 0.157537
H91   H     H_    0.322739 0.863016 0.987025 0.157450
H92   H     H_    0.321821 0.136409 0.488401 0.157484
H93   H     H_    0.166370 0.782647 0.989706 0.136918
H94   H     H_    0.164478 0.216495 0.497822 0.138451
H95   H     H_    0.666404 0.282617 0.989425 0.136911
H96   H     H_    0.664426 0.716524 0.498764 0.138211
H97   H     H_    0.737364 0.338212 0.071660 0.146474
H98   H     H_    0.735650 0.660838 0.580004 0.147032
H99   H     H_    0.237342 0.838231 0.071924 0.146520
H100  H     H_    0.235704 0.160806 0.578949 0.146985
H101  H     H_    0.853555 0.284037 0.433145 0.163566
H102  H     H_    0.852537 0.715288 0.934751 0.165328
H103  H     H_    0.353567 0.784024 0.433156 0.163465
H104  H     H_    0.352549 0.215271 0.934759 0.165846
H105  H     H_    0.054449 0.593581 0.853354 0.182992
H106  H     H_    0.054329 0.406549 0.353386 0.178097
H107  H     H_    0.554483 0.093553 0.853292 0.182999
H108  H     H_    0.554319 0.906530 0.353418 0.177873
H109  H     H_    0.944794 0.408426 0.338745 0.165613
H110  H     H_    0.944421 0.591355 0.839123 0.167896
H111  H     H_    0.444802 0.908418 0.338750 0.165555
H112  H     H_    0.444442 0.091363 0.839068 0.167952
N1    N     N_R   0.848154 0.209238 0.215949 0.230859
O49   O     O_R   0.889761 0.227365 0.167838 -0.446118
O50   O     O_R   0.850934 0.168168 0.294159 -0.376563
N2    N     N_R   0.847535 0.789887 0.711129 0.233404
O51   O     O_R   0.888847 0.770614 0.664502 -0.434752
O52   O     O_R   0.850890 0.831872 0.783955 -0.373907
N3    N     N_R   0.348140 0.709245 0.215739 0.230830
O53   O     O_R   0.389733 0.727383 0.167599 -0.446433
O54   O     O_R   0.350935 0.668160 0.293769 -0.376646
N4    N     N_R   0.347336 0.289801 0.712741 0.233136
O55   O     O_R   0.388603 0.271152 0.663901 -0.433741
O56   O     O_R   0.350613 0.331252 0.788697 -0.373523
N5    N     N_R   0.157605 0.720928 0.725548 0.246520
O57   O     O_R   0.204887 0.717970 0.691405 -0.370953
O58   O     O_R   0.128532 0.756095 0.664201 -0.404017
N6    N     N_R   0.155749 0.277415 0.229413 0.245733
O59   O     O_R   0.202831 0.280011 0.193219 -0.371040
O60   O     O_R   0.126586 0.241724 0.172709 -0.409718
N7    N     N_R   0.657650 0.220892 0.725448 0.246466
O61   O     O_R   0.704952 0.217991 0.691461 -0.371036
O62   O     O_R   0.628525 0.255985 0.663819 -0.403666
N8    N     N_R   0.655731 0.777374 0.229455 0.245720
O63   O     O_R   0.702828 0.779905 0.193366 -0.371393
O64   O     O_R   0.626523 0.741735 0.172618 -0.409495

loop_
_geom_bond_atom_site_label_1
_geom_bond_atom_site_label_2
_geom_bond_distance
_ccdc_geom_bond_type
C24   C28   1.521421 S    
C15   H31   1.105568 S    
C48   C80   1.504160 S    
C63   H87   1.083267 S    
C36   C56   1.397271 A    
C11   H23   1.110729 S    
C26   H58   1.110692 S    
N3    O53   1.298991 A    
C2    H10   1.111129 S    
C18   H42   1.105438 S    
N7    O62   1.299640 A    
C67   C99   1.501589 S    
C93   C97   1.414289 A    
O38   C13   1.398022 S    
C20   H48   1.110793 S    
C57   C63   1.411604 A    
C73   C77   1.407771 A    
C4    C32   1.519473 S    
C95   H83   1.082906 S    
O42   C6    1.402635 S    
P4    O8    1.556442 S    
O6    Ba1   2.779968 S    
C82   C98   1.421801 A    
P11   O35   1.542689 D    
C25   H57   1.110704 S    
O9    Ba1   2.732171 S    
C27   H63   1.105155 S    
P9    O41   1.746914 S    
O18   C22   1.396109 S    
C86   C102  1.399666 A    
C22   H50   1.105029 S    
P11   O43   1.746917 S    
C76   C80   1.407914 A    
C60   N4    1.435589 S    
C29   H69   1.111724 S    
C83   C99   1.422124 A    
C17   H41   1.105747 S    
O32   Ba4   2.731616 S    
O11   Ba3   2.732171 S    
C10   H22   1.110824 S    
C20   H44   1.105417 S    
Ba1   O46   2.941101 S    
C31   H71   1.111490 S    
C14   H30   1.105708 S    
O16   P15   1.546873 D    
C61   C65   1.403256 A    
C38   C42   1.410623 A    
P10   C85   1.855371 S    
C44   H92   1.082769 S    
C75   H99   1.082982 S    
C2    H74   1.110271 S    
C76   H100  1.083069 S    
C61   H85   1.083210 S    
N7    O61   1.301115 A    
C36   H112  1.082038 S    
N8    O63   1.301103 A    
O39   C16   1.397791 S    
C21   H49   1.105189 S    
H3    C31   1.112650 S    
H4    C32   1.112070 S    
C71   H95   1.082428 S    
C4    H12   1.110719 S    
C24   H56   1.110685 S    
C22   H54   1.110685 S    
C44   C48   1.417326 A    
P8    C91   1.858098 S    
C23   C27   1.521409 S    
N6    O59   1.301119 A    
C65   C69   1.405718 A    
C33   C53   1.397844 A    
P3    C39   1.860678 S    
C34   H110  1.082037 S    
P1    C37   1.860567 S    
C68   C100  1.500828 S    
O22   P13   1.749249 S    
O10   Ba2   2.731918 S    
C47   C79   1.504766 S    
C3    H75   1.110561 S    
P4    C40   1.858884 S    
O10   P13   1.749958 S    
P10   O42   1.748121 S    
C45   C77   1.504743 S    
N1    O50   1.301375 A    
C52   H104  1.082918 S    
P2    O18   1.749286 S    
C17   H45   1.110790 S    
C70   H94   1.082872 S    
C101  H105  1.082112 S    
C82   C86   1.416951 A    
O28   Ba4   2.829112 S    
P3    O7    1.556896 S    
O24   C32   1.405501 S    
C58   C64   1.411451 A    
C21   H53   1.110863 S    
C96   H84   1.082977 S    
C5    H13   1.112525 S    
C91   C95   1.405469 A    
C7    H15   1.112521 S    
C69   C75   1.402736 A    
C51   H103  1.082864 S    
C92   C96   1.405206 A    
C83   N7    1.435403 S    
C35   H111  1.081989 S    
N3    O54   1.300981 A    
O29   Ba1   2.731366 S    
O14   P13   1.546851 D    
C75   C79   1.407693 A    
O31   Ba3   2.731366 S    
C84   C88   1.416996 A    
P9    O29   1.757036 S    
C19   H43   1.105736 S    
P12   O32   1.756415 S    
C9    H25   1.110737 S    
O4    Ba4   2.826304 S    
C11   H27   1.110711 S    
C50   C54   1.403163 A    
C3    H11   1.110616 S    
C18   H38   1.110661 S    
C52   C56   1.403111 A    
C81   C97   1.422115 A    
P5    O25   1.525818 D    
C90   C102  1.395790 A    
N5    O58   1.299647 A    
C88   C104  1.399720 A    
C47   C51   1.412975 A    
C16   H36   1.110566 S    
P13   C54   1.844165 S    
C66   C70   1.405696 A    
C84   C100  1.421752 A    
N2    O52   1.301915 A    
C28   H68   1.110820 S    
C65   C97   1.501596 S    
C58   C78   1.423688 A    
P9    C86   1.854783 S    
C13   C17   1.521245 S    
C27   H67   1.110829 S    
C24   H52   1.105028 S    
C15   C19   1.521263 S    
O19   C23   1.395914 S    
C26   H66   1.110824 S    
C57   C77   1.423805 A    
O17   C21   1.395905 S    
O25   Ba1   2.828457 S    
C7    C11   1.521214 S    
O27   Ba3   2.828457 S    
O30   Ba2   2.731616 S    
P5    O37   1.749629 S    
C93   H81   1.082904 S    
C20   H40   1.110658 S    
Ba2   O45   2.940990 S    
C1    C29   1.520856 S    
C68   C72   1.405570 A    
P7    Ba3   3.401924 S    
C89   C93   1.405471 A    
C40   C44   1.410605 A    
C13   H33   1.110335 S    
C28   H64   1.105256 S    
C60   C80   1.423314 A    
C25   H65   1.110833 S    
C46   C50   1.413002 A    
C94   H82   1.082966 S    
C81   C85   1.417227 A    
C22   C26   1.521424 S    
C43   C47   1.417793 A    
C23   H55   1.110862 S    
C41   C45   1.417789 A    
O1    Ba1   2.826951 S    
C59   C61   1.411607 A    
C83   C87   1.417226 A    
O3    Ba3   2.826951 S    
Ba3   O48   2.941101 S    
O24   P15   1.749321 S    
P2    O6    1.556442 S    
C12   H28   1.110748 S    
C14   C18   1.521209 S    
C63   C67   1.403343 A    
C8    H20   1.109432 S    
C85   C101  1.399678 A    
O9    P14   1.750244 S    
O26   Ba2   2.829112 S    
C94   C98   1.413843 A    
P1    O1    1.526102 D    
C102  H106  1.082133 S    
O37   C14   1.397824 S    
P6    O38   1.749890 S    
P3    O3    1.526102 D    
N4    O55   1.299072 A    
P4    O20   1.749288 S    
Ba1   O45   2.780170 S    
C21   C25   1.521414 S    
C34   C38   1.397312 A    
P6    C89   1.858190 S    
H1    C29   1.112922 S    
N8    O64   1.299622 A    
O41   C5    1.401501 S    
P4    O4    1.526131 D    
C51   C55   1.402808 A    
C6    H18   1.109395 S    
N6    O60   1.299697 A    
C12   H80   1.109983 S    
P15   C56   1.844092 S    
P9    O33   1.542678 D    
P4    Ba4   3.400286 S    
C19   H47   1.110796 S    
P10   O30   1.756535 S    
C8    H16   1.112481 S    
O11   P16   1.750116 S    
P1    O5    1.556896 S    
O2    Ba2   2.826304 S    
P12   O36   1.543518 D    
C48   C52   1.413025 A    
C9    H21   1.110776 S    
O21   C29   1.403356 S    
C64   H88   1.083298 S    
C1    H5    1.111180 S    
C96   C100  1.413820 A    
C57   N1    1.435693 S    
P11   C88   1.854854 S    
C3    H7    1.110703 S    
N1    O49   1.299132 A    
P16   C55   1.846532 S    
C67   C71   1.405783 A    
P8    Ba4   3.402233 S    
C49   H101  1.082867 S    
O20   C24   1.396118 S    
P6    O26   1.525789 D    
C41   H89   1.082709 S    
P8    O40   1.749889 S    
C37   C41   1.410552 A    
C5    H17   1.109774 S    
C59   C79   1.423723 A    
C92   C104  1.395821 A    
C69   H93   1.082361 S    
Ba1   Ba2   4.585953 S    
C4    H76   1.109889 S    
Ba3   Ba4   4.585953 S    
C34   C54   1.397333 A    
C70   C76   1.403328 A    
C62   H86   1.083301 S    
C15   H35   1.110342 S    
C23   H51   1.105187 S    
C1    H9    1.111136 S    
C46   C78   1.504106 S    
C104  H108  1.082134 S    
C18   H46   1.110804 S    
C7    H19   1.109700 S    
C82   N6    1.434764 S    
C32   H72   1.111515 S    
C9    H77   1.109649 S    
C6    H14   1.112457 S    
C2    C30   1.519470 S    
P12   C87   1.855326 S    
O43   C7    1.401505 S    
P1    O17   1.749083 S    
N5    O57   1.301090 A    
P3    O19   1.749084 S    
C87   C103  1.399630 A    
C26   H62   1.105253 S    
C28   H60   1.110689 S    
C72   C74   1.403279 A    
C25   H61   1.105158 S    
O8    Ba3   2.779968 S    
C27   H59   1.110699 S    
P12   O44   1.748140 S    
C58   N2    1.436127 S    
P1    Ba1   3.400587 S    
C35   C39   1.397648 A    
P3    Ba3   3.400587 S    
C74   C78   1.407936 A    
P5    C90   1.857674 S    
C10   H26   1.110806 S    
C16   H32   1.105699 S    
C84   N8    1.434799 S    
C64   C68   1.403150 A    
P5    Ba1   3.401924 S    
C3    C31   1.520581 S    
C49   C53   1.402788 A    
C14   H34   1.110552 S    
C1    H73   1.110725 S    
C8    C12   1.520692 S    
C39   C43   1.410555 A    
C17   H37   1.110657 S    
C89   C101  1.395704 A    
P2    O2    1.526131 D    
C10   H78   1.109990 S    
P7    O39   1.749618 S    
C103  H107  1.082115 S    
P7    O48   1.561288 S    
Ba2   O46   2.779522 S    
O12   P15   1.749973 S    
P8    O47   1.561749 S    
P14   C53   1.846393 S    
C91   C103  1.395655 A    
C12   H24   1.110785 S    
C4    H8    1.110572 S    
H2    C30   1.112274 S    
C33   C37   1.397601 A    
C62   C66   1.403197 A    
P6    O45   1.561749 S    
C36   C40   1.397288 A    
C43   H91   1.082709 S    
P2    C38   1.859016 S    
C33   H109  1.081991 S    
O23   P16   1.747716 S    
C71   C73   1.402720 A    
O21   P14   1.747734 S    
O44   C8    1.402767 S    
C66   C98   1.500918 S    
C6    C10   1.520763 S    
C81   N5    1.435370 S    
O12   Ba4   2.731918 S    
P2    Ba2   3.400286 S    
P10   O34   1.543463 D    
P11   O31   1.757028 S    
C72   H96   1.082891 S    
Ba3   O47   2.780170 S    
C73   H97   1.083033 S    
Ba4   O48   2.779522 S    
P7    O27   1.525818 D    
C5    C9    1.521245 S    
P8    O28   1.525789 D    
O22   C30   1.405676 S    
C2    H6    1.110944 S    
P6    Ba2   3.402233 S    
P5    O46   1.561288 S    
C59   N3    1.435585 S    
C16   C20   1.521215 S    
C50   H102  1.082935 S    
C90   C94   1.405164 A    
C95   C99   1.414296 A    
O5    Ba2   2.780616 S    
C35   C55   1.397904 A    
N2    O51   1.299622 A    
C42   H90   1.082775 S    
O7    Ba4   2.780616 S    
O40   C15   1.398016 S    
N4    O56   1.301380 A    
C45   C49   1.412950 A    
C30   H70   1.111679 S    
O15   P16   1.545638 D    
O13   P14   1.545607 D    
C42   C46   1.417327 A    
C11   H79   1.109633 S    
P7    C92   1.857788 S    
C74   H98   1.083091 S    
Ba4   O47   2.940990 S    
C60   C62   1.411180 A    
C19   H39   1.110666 S    
C13   H29   1.105562 S    
O23   C31   1.403440 S    
