data_mof_unit_12590.cif
_audit_creation_date              2012-10-26T19:42:18-0400
_audit_creation_method            fapswitch 2.2
_symmetry_space_group_name_H-M    P1
_symmetry_Int_Tables_number       1
_space_group_crystal_system       triclinic
_cell_length_a                    9.610349
_cell_length_b                    10.778763
_cell_length_c                    17.36062
_cell_angle_alpha                 92.609787
_cell_angle_beta                  85.967561
_cell_angle_gamma                 89.872549
_cell_volume                      1792.00707063

loop_
_atom_site_label
_atom_site_type_symbol
_atom_type_description
_atom_site_fract_x
_atom_site_fract_y
_atom_site_fract_z
_atom_type_partial_charge
C1    C     C_R   0.499574 0.737217 0.501916 0.543672
C2    C     C_R   0.527469 0.500383 0.265925 0.020051
C3    C     C_R   0.367103 0.881332 0.633185 -0.099757
C4    C     C_R   0.481767 0.497780 0.649626 0.522942
C5    C     C_R   0.304087 0.951547 0.695570 -0.121483
C6    C     C_R   0.305283 0.080601 0.695389 -0.112685
C7    C     C_R   0.369192 0.140175 0.632741 -0.100024
C8    C     C_R   0.432473 0.070903 0.568377 -0.020629
C9    C     C_R   0.431596 0.939857 0.568787 0.011397
C10   C     C_R   0.498696 0.871141 0.505615 -0.028017
C11   C     C_R   0.566714 0.930089 0.444018 -0.137391
C12   C     C_R   0.343182 0.493983 0.776194 -0.140379
C13   C     C_R   0.566489 0.059087 0.442377 0.213386
C14   C     C_R   0.499404 0.128980 0.504358 0.045705
C15   C     C_R   0.869833 0.336436 0.396452 -0.070471
C16   C     C_R   0.499956 0.262814 0.500926 0.581892
C17   C     C_R   0.948487 0.256769 0.345463 -0.159537
C18   C     C_R   0.091844 0.256254 0.345644 -0.176400
C19   C     C_R   0.157407 0.335631 0.396663 -0.084645
C20   C     C_R   0.081458 0.419314 0.449188 0.155400
C21   C     C_R   0.932011 0.419523 0.449146 0.145708
C22   C     C_R   0.919812 0.576629 0.548444 -0.002555
C23   C     C_R   0.412475 0.512467 0.147024 -0.108109
C24   C     C_R   0.067649 0.576636 0.548404 -0.002339
C25   C     C_R   0.518240 0.499942 0.350280 0.548234
C26   C     C_R   0.472567 0.486389 0.733378 0.010961
C27   C     C_R   0.593925 0.462783 0.770790 -0.129522
C28   C     C_R   0.586709 0.449536 0.849996 -0.109057
C29   C     C_R   0.458123 0.461617 0.893263 0.043990
C30   C     C_R   0.336128 0.481216 0.855815 -0.119467
C31   C     C_R   0.405413 0.512365 0.227041 -0.132098
C32   C     C_R   0.657119 0.489528 0.223581 -0.127524
C33   C     C_R   0.664061 0.489288 0.143226 -0.116347
C34   C     C_R   0.541741 0.498781 0.104518 0.043652
C35   C     C_2   0.448882 0.456249 0.977643 -0.135376
C36   C     C_2   0.552346 0.497590 0.019866 -0.134378
Cu1   Cu    Cu3+1 0.359340 0.500010 0.500010 0.920964
Cu2   Cu    Cu3+1 0.640660 0.499990 0.499990 0.938507
H1    H     H_    0.694668 0.453447 0.738888 0.129281
H2    H     H_    0.897558 0.194698 0.305621 0.138234
H3    H     H_    0.304191 0.522627 0.258345 0.131870
H4    H     H_    0.153034 0.193671 0.306027 0.127418
H5    H     H_    0.267661 0.327037 0.392243 0.193511
H6    H     H_    0.117610 0.639542 0.588097 0.111263
H7    H     H_    0.752819 0.480612 0.252355 0.126463
H8    H     H_    0.648557 0.531593 0.991957 0.114124
H9    H     H_    0.235943 0.489364 0.888446 0.097661
H10   H     H_    0.316799 0.525413 0.119001 0.100975
H11   H     H_    0.247891 0.510611 0.748390 0.120736
H12   H     H_    0.764729 0.480166 0.111176 0.098734
H13   H     H_    0.352381 0.422529 0.005328 0.113531
H14   H     H_    0.681777 0.429047 0.876942 0.100118
H15   H     H_    0.669437 0.056312 0.341476 0.315678
H16   H     H_    0.617382 0.874950 0.396189 0.110923
H17   H     H_    0.366166 0.781358 0.636461 0.123795
H18   H     H_    0.255199 0.905619 0.744544 0.107830
H19   H     H_    0.257375 0.134875 0.744239 0.113970
H20   H     H_    0.369628 0.240507 0.635833 0.136683
H21   H     H_    0.859548 0.639503 0.588184 0.117340
H22   H     H_    0.760831 0.328841 0.392078 0.225540
N1    N     N_R   0.852190 0.498790 0.499250 -0.249223
N2    N     N_R   0.148060 0.498710 0.499220 -0.244584
O1    O     O_R   0.381190 0.680360 0.500010 -0.498406
O2    O     O_R   0.618760 0.680340 0.500000 -0.497607
O3    O     O_R   0.367440 0.500030 0.613600 -0.522420
O4    O     O_R   0.605010 0.500010 0.613590 -0.510583
O5    O     O_R   0.381240 0.319660 0.500000 -0.532751
O6    O     O_R   0.618810 0.319640 0.499990 -0.492202
O7    O     O_R   0.394990 0.499990 0.386410 -0.524974
O8    O     O_R   0.632560 0.499970 0.386400 -0.527122
O9    O     O_3   0.627515 0.118901 0.379954 -0.734080

loop_
_geom_bond_atom_site_label_1
_geom_bond_atom_site_label_2
_ccdc_geom_bond_type
C4    C26   S    
Cu2   O8    S    
C20   N2    A    
C36   H8    S    
C6    C7    A    
C3    C9    A    
Cu1   O7    S    
C11   C13   A    
C9    C10   A    
C29   C35   S    
C7    H20   S    
C21   N1    A    
C19   C20   A    
C3    C5    A    
C23   C34   A    
C32   C33   A    
Cu2   N1    S    
C17   C18   A    
C7    C8    A    
C16   O5    A    
C25   O8    A    
C13   C14   A    
C22   N1    A    
C4    O4    A    
C28   H14   S    
C6    H19   S    
C26   C27   A    
C29   C30   A    
C11   H16   S    
C13   O9    S    
C8    C14   A    
C16   O6    A    
C1    O1    A    
C22   C24   A    
Cu1   O3    S    
C28   C29   A    
Cu1   O1    S    
Cu1   Cu2   S    
C19   H5    S    
Cu1   N2    S    
C2    C25   S    
C34   C36   S    
C18   H4    S    
C35   H13   S    
C5    C6    A    
C24   H6    S    
C14   C16   S    
C12   H11   S    
C25   O7    A    
C10   C11   A    
C27   H1    S    
H15   O9    S    
C1    O2    A    
Cu1   O5    S    
C30   H9    S    
C15   C21   A    
C33   C34   A    
C20   C21   A    
C2    C32   A    
C18   C19   A    
C32   H7    S    
C12   C26   A    
C22   H21   S    
C15   C17   A    
Cu2   O2    S    
C4    O3    A    
C8    C9    A    
C24   N2    A    
C23   H10   S    
C31   H3    S    
C12   C30   A    
C33   H12   S    
C3    H17   S    
C5    H18   S    
C17   H2    S    
C15   H22   S    
C1    C10   S    
Cu2   O4    S    
Cu2   O6    S    
C2    C31   A    
C27   C28   A    
C35   C36   D    
C23   C31   A    
