data_mof_unit_66727.cif
_audit_creation_date              2013-03-05T15:39:26-0500
_audit_creation_method            fapswitch 2.2
_symmetry_space_group_name_H-M    P1
_symmetry_Int_Tables_number       1
_space_group_crystal_system       triclinic
_cell_length_a                    20.866812
_cell_length_b                    22.269464
_cell_length_c                    8.7434
_cell_angle_alpha                 90.696604
_cell_angle_beta                  104.067342
_cell_angle_gamma                 89.800389
_cell_volume                      3940.85615674

loop_
_atom_site_label
_atom_site_type_symbol
_atom_site_description
_atom_site_fract_x
_atom_site_fract_y
_atom_site_fract_z
_atom_type_partial_charge
P1    P     P_3+3 0.859590 0.433890 0.993820 0.499099
P2    P     P_3+3 0.859590 0.566110 0.493820 0.532171
P3    P     P_3+3 0.359590 0.933890 0.993820 0.500108
P4    P     P_3+3 0.359590 0.066110 0.493820 0.532832
O1    O     O_2   0.866180 0.413660 0.823810 -0.343480
O2    O     O_2   0.866180 0.586340 0.323810 -0.326587
O3    O     O_2   0.366180 0.913660 0.823810 -0.354029
O4    O     O_2   0.366180 0.086340 0.323810 -0.319628
O5    O     O_3   0.922050 0.469730 0.097400 -0.380326
O6    O     O_3   0.922050 0.530270 0.597400 -0.382441
O7    O     O_3   0.422050 0.969730 0.097400 -0.380014
O8    O     O_3   0.422050 0.030270 0.597400 -0.388224
O9    O     O_3   0.976760 0.360270 0.628090 -0.345201
O10   O     O_3   0.976760 0.639730 0.128090 -0.362910
O11   O     O_3   0.476760 0.860270 0.628090 -0.329732
O12   O     O_3   0.476760 0.139730 0.128090 -0.362366
O13   O     O_2   0.855247 0.340379 0.619637 -0.364551
O14   O     O_2   0.860678 0.670768 0.162801 -0.246521
O15   O     O_2   0.359065 0.835585 0.625567 -0.344464
O16   O     O_2   0.360477 0.170440 0.161927 -0.248440
O17   O     O_3   0.790800 0.481548 0.955376 -0.552334
O18   O     O_3   0.790179 0.519574 0.458672 -0.542982
O19   O     O_3   0.291150 0.981913 0.956353 -0.552607
O20   O     O_3   0.289705 0.020180 0.456149 -0.539699
O21   O     O_3   0.925188 0.243789 0.657890 -0.451389
O22   O     O_3   0.933772 0.761109 0.161867 -0.475600
O23   O     O_3   0.430205 0.740873 0.652655 -0.488928
O24   O     O_3   0.433386 0.260978 0.162900 -0.473400
C1    C     C_3   0.941852 0.139290 0.615073 -0.681509
C2    C     C_3   0.958034 0.862456 0.117165 -0.637578
C3    C     C_3   0.442036 0.636658 0.600225 -0.781142
C4    C     C_3   0.456809 0.362719 0.120124 -0.635705
H1    H     H_    0.963104 0.127059 0.738585 0.279868
H2    H     H_    0.978334 0.874379 0.242660 0.251067
H3    H     H_    0.459957 0.624499 0.725165 0.276797
H4    H     H_    0.477890 0.374487 0.245369 0.256179
H5    H     H_    0.887183 0.136682 0.593443 0.219646
H6    H     H_    0.903643 0.868514 0.090709 0.187557
H7    H     H_    0.387198 0.635181 0.570770 0.205910
H8    H     H_    0.402407 0.368585 0.096487 0.190952
P5    P     P_3+3 0.140130 0.433190 0.695710 0.520756
P6    P     P_3+3 0.140130 0.566810 0.195710 0.566639
P7    P     P_3+3 0.640130 0.933190 0.695710 0.516224
P8    P     P_3+3 0.640130 0.066810 0.195710 0.567416
P9    P     P_3+3 0.087790 0.307631 0.120024 0.599156
P10   P     P_3+3 0.088769 0.691694 0.623518 0.605579
P11   P     P_3+3 0.587630 0.807681 0.120448 0.575719
P12   P     P_3+3 0.588919 0.191722 0.622778 0.602885
O25   O     O_2   0.133470 0.412980 0.865660 -0.365190
O26   O     O_2   0.133470 0.587020 0.365660 -0.291629
O27   O     O_2   0.633470 0.912980 0.865660 -0.374365
O28   O     O_2   0.633470 0.087020 0.365660 -0.288502
O29   O     O_3   0.022720 0.360150 0.061220 -0.296539
O30   O     O_3   0.022720 0.639850 0.561220 -0.326596
O31   O     O_3   0.522720 0.860150 0.061220 -0.293290
O32   O     O_3   0.522720 0.139850 0.561220 -0.324519
O33   O     O_2   0.137741 0.329315 0.029816 -0.326305
O34   O     O_2   0.138162 0.671069 0.530319 -0.221937
O35   O     O_2   0.638345 0.830159 0.033468 -0.364698
O36   O     O_2   0.637126 0.171745 0.526107 -0.222563
O37   O     O_3   0.208277 0.480799 0.731140 -0.542208
O38   O     O_3   0.208305 0.518699 0.231069 -0.533733
O39   O     O_3   0.708146 0.980852 0.730892 -0.539649
O40   O     O_3   0.708098 0.018547 0.232292 -0.530913
O41   O     O_3   0.064713 0.236314 0.032240 -0.436768
O42   O     O_3   0.069499 0.762811 0.538396 -0.448363
O43   O     O_3   0.564455 0.737022 0.029341 -0.445917
O44   O     O_3   0.569918 0.263111 0.539531 -0.455672
C5    C     C_3   0.028788 0.202849 0.119822 0.786682
C6    C     C_3   0.032459 0.797763 0.620953 0.736065
C7    C     C_3   0.527461 0.703416 0.114241 0.788697
C8    C     C_3   0.532568 0.297562 0.622104 0.724479
H9    H     H_    0.042591 0.215245 0.245982 -0.054693
H10   H     H_    0.040452 0.783976 0.745443 -0.094976
H11   H     H_    0.539597 0.715861 0.240865 -0.075461
H12   H     H_    0.540878 0.283705 0.746533 -0.089010
C9    C     C_3   0.040688 0.134129 0.104032 -0.738826
C10   C     C_3   0.052511 0.864964 0.619630 -0.648764
C11   C     C_3   0.540180 0.634855 0.098957 -0.719098
C12   C     C_3   0.552119 0.364801 0.620874 -0.653448
H13   H     H_    0.030427 0.121551 0.977960 0.272004
H14   H     H_    0.052710 0.877720 0.497900 0.264959
H15   H     H_    0.529813 0.622187 0.972663 0.267997
H16   H     H_    0.550676 0.377998 0.498522 0.263605
C13   C     C_3   0.195226 0.465903 0.302569 0.258067
C14   C     C_3   0.198054 0.531176 0.818256 0.214140
C15   C     C_3   0.693580 0.965013 0.298167 0.269485
C16   C     C_3   0.698827 0.029884 0.823391 0.253551
H17   H     H_    0.184094 0.475936 0.417904 0.110696
H18   H     H_    0.187313 0.518089 0.931166 0.109467
H19   H     H_    0.681500 0.973779 0.413087 0.109883
H20   H     H_    0.688963 0.015265 0.935969 0.106915
H21   H     H_    0.153238 0.441351 0.224618 0.063243
H22   H     H_    0.156998 0.558722 0.748394 0.069193
H23   H     H_    0.651801 0.941445 0.216706 0.069418
H24   H     H_    0.657560 0.058154 0.757420 0.059435
C17   C     C_3   0.256750 0.426295 0.327242 0.117022
C18   C     C_3   0.261333 0.568026 0.851098 0.165549
C19   C     C_3   0.754605 0.924966 0.322254 0.104358
C20   C     C_3   0.762170 0.066448 0.856922 0.133768
H25   H     H_    0.247468 0.383022 0.377991 0.031677
H26   H     H_    0.254666 0.610565 0.911492 0.025818
H27   H     H_    0.744636 0.881576 0.371062 0.035106
H28   H     H_    0.755679 0.108699 0.918432 -0.010194
H29   H     H_    0.267539 0.416576 0.211228 0.090889
H30   H     H_    0.272885 0.578388 0.737050 0.172729
H31   H     H_    0.765455 0.915680 0.206126 0.089822
H32   H     H_    0.773711 0.077163 0.743248 0.186637
Ba1   Ba    Ba6+2 0.999900 0.456810 0.844860 1.714586
Ba2   Ba    Ba6+2 0.999900 0.543190 0.344860 1.741823
Ba3   Ba    Ba6+2 0.499900 0.956810 0.844860 1.703475
Ba4   Ba    Ba6+2 0.499900 0.043190 0.344860 1.742281
C21   C     C_3   0.803640 0.532849 0.878350 0.336280
C22   C     C_3   0.802310 0.467064 0.381582 0.364075
C23   C     C_3   0.304076 0.033086 0.879117 0.393761
C24   C     C_3   0.303766 0.965199 0.393261 0.362174
H33   H     H_    0.826020 0.521277 0.779047 0.114818
H34   H     H_    0.811835 0.477812 0.265686 0.106679
H35   H     H_    0.324946 0.021225 0.777562 0.104438
H36   H     H_    0.321182 0.972042 0.284595 0.091828
H37   H     H_    0.836620 0.562802 0.965098 0.100230
H38   H     H_    0.844823 0.442285 0.455153 0.095413
H39   H     H_    0.338345 0.062408 0.964883 0.095818
H40   H     H_    0.341495 0.940415 0.481633 0.108088
C25   C     C_3   0.738358 0.564843 0.811610 -0.676952
C26   C     C_3   0.740953 0.427880 0.354953 -0.780538
C27   C     C_3   0.239104 0.066134 0.817003 -0.777094
C28   C     C_3   0.240269 0.928743 0.351774 -0.790814
H41   H     H_    0.702336 0.533241 0.737718 0.285856
H42   H     H_    0.697161 0.452801 0.287348 0.293758
H43   H     H_    0.201659 0.035043 0.745806 0.295279
H44   H     H_    0.203860 0.950183 0.253459 0.286662
H45   H     H_    0.745338 0.602955 0.737255 0.188388
H46   H     H_    0.747009 0.386753 0.288232 0.187416
H47   H     H_    0.245705 0.103850 0.741048 0.187638
H48   H     H_    0.250038 0.882579 0.316261 0.189718
H49   H     H_    0.718000 0.582359 0.909206 0.297605
H50   H     H_    0.732452 0.414573 0.470127 0.298906
H51   H     H_    0.220772 0.084280 0.917102 0.293070
H52   H     H_    0.218891 0.926107 0.455746 0.304020
O45   O     O_3   0.077880 0.530130 0.092320 -0.368305
O46   O     O_3   0.077880 0.469870 0.592320 -0.345263
O47   O     O_3   0.577880 0.030130 0.092320 -0.370906
O48   O     O_3   0.577880 0.969870 0.592320 -0.341667
P13   P     P_3+3 0.910580 0.690679 0.071172 0.561149
P14   P     P_3+3 0.910254 0.311985 0.555840 0.533087
P15   P     P_3+3 0.410538 0.190668 0.071115 0.560295
P16   P     P_3+3 0.413083 0.809727 0.554737 0.538008
C29   C     C_3   0.961474 0.203700 0.583841 0.913024
C30   C     C_3   0.972551 0.796273 0.085737 0.966542
C31   C     C_3   0.464155 0.700776 0.572941 0.916036
C32   C     C_3   0.471702 0.296738 0.086959 0.955757
H53   H     H_    0.948627 0.209550 0.455113 -0.085021
H54   H     H_    0.958942 0.788487 0.958118 -0.138218
H55   H     H_    0.451434 0.708477 0.444484 -0.084178
H56   H     H_    0.457740 0.289427 0.959230 -0.130931
C33   C     C_R   0.114660 0.652836 0.941119 -0.410476
C34   C     C_R   0.116947 0.345939 0.437889 -0.365526
C35   C     C_R   0.615138 0.152769 0.940858 -0.406149
C36   C     C_R   0.616931 0.845797 0.438085 -0.363776
C37   C     C_R   0.136608 0.690836 0.837046 -0.032960
C38   C     C_R   0.137114 0.306282 0.332188 -0.060716
C39   C     C_R   0.637595 0.189915 0.835601 -0.028664
C40   C     C_R   0.636611 0.805657 0.332869 -0.050986
C41   C     C_R   0.196096 0.723866 0.892227 0.359723
C42   C     C_R   0.195426 0.270565 0.383396 0.311318
C43   C     C_R   0.697825 0.221766 0.889820 0.345912
C44   C     C_R   0.695131 0.770159 0.383784 0.318956
C45   C     C_R   0.227164 0.725394 0.058112 -0.058940
C46   C     C_R   0.232432 0.274805 0.549589 0.043327
C47   C     C_R   0.728535 0.223993 0.055409 -0.080393
C48   C     C_R   0.732500 0.774780 0.549621 0.054002
C49   C     C_R   0.214053 0.673937 0.145211 -0.215395
C50   C     C_R   0.216192 0.325673 0.640894 -0.209449
C51   C     C_R   0.715210 0.173109 0.143894 -0.214987
C52   C     C_R   0.716529 0.825945 0.640379 -0.262052
C53   C     C_R   0.156025 0.638092 0.089348 0.233456
C54   C     C_R   0.157837 0.361096 0.586096 0.142285
C55   C     C_R   0.656570 0.137859 0.089155 0.237422
C56   C     C_R   0.658189 0.861391 0.585464 0.108973
C57   C     C_R   0.812902 0.274578 0.290719 -0.213662
C58   C     C_R   0.806892 0.720143 0.798934 -0.143693
C59   C     C_R   0.313177 0.774658 0.293509 -0.228944
C60   C     C_R   0.306932 0.220230 0.798819 -0.159814
C61   C     C_R   0.867515 0.312312 0.346510 0.211453
C62   C     C_R   0.861771 0.683078 0.865102 0.135037
C63   C     C_R   0.368039 0.812141 0.347705 0.203386
C64   C     C_R   0.361827 0.183174 0.864943 0.141523
C65   C     C_R   0.841632 0.366294 0.101774 0.299788
C66   C     C_R   0.851721 0.635528 0.611963 0.247195
C67   C     C_R   0.340646 0.867069 0.104590 0.315727
C68   C     C_R   0.351697 0.135571 0.611798 0.246877
C69   C     C_R   0.784987 0.328985 0.049208 -0.262065
C70   C     C_R   0.816016 0.685865 0.545936 -0.078500
C71   C     C_R   0.282182 0.831502 0.057575 -0.250176
C72   C     C_R   0.315906 0.185842 0.545773 -0.071060
C73   C     C_R   0.776557 0.275451 0.130987 0.210049
C74   C     C_R   0.784841 0.726691 0.631293 0.124918
C75   C     C_R   0.275109 0.776781 0.135576 0.219186
C76   C     C_R   0.284796 0.226715 0.631162 0.118494
C77   C     C_R   0.881717 0.357153 0.251101 -0.388893
C78   C     C_R   0.879172 0.637336 0.772726 -0.551736
C79   C     C_R   0.381884 0.857134 0.252109 -0.399602
C80   C     C_R   0.379312 0.137492 0.772484 -0.547732
H57   H     H_    0.799443 0.246311 0.376509 0.161680
H58   H     H_    0.784945 0.744445 0.880302 0.156147
H59   H     H_    0.300705 0.746128 0.379887 0.161841
H60   H     H_    0.285068 0.244606 0.880215 0.160382
H61   H     H_    0.749746 0.340194 0.940947 0.150962
H62   H     H_    0.826281 0.697634 0.438551 0.272736
H63   H     H_    0.244550 0.844421 0.955206 0.140538
H64   H     H_    0.326268 0.197597 0.438494 0.272593
H65   H     H_    0.918940 0.389980 0.300289 0.135852
H66   H     H_    0.912668 0.602320 0.827024 0.177361
H67   H     H_    0.419771 0.889484 0.299928 0.137785
H68   H     H_    0.412980 0.102592 0.826682 0.177041
S1    S     S_3+6 0.049744 0.214641 0.655626 -0.007328
O49   O     O_2   0.081641 0.210115 0.519985 -0.426165
O50   O     O_2   0.064652 0.275263 0.732092 -0.213507
O51   O     O_3   0.084043 0.161833 0.785535 -0.479612
H69   H     H_    0.132264 0.166055 0.797819 0.397112
S2    S     S_3+6 0.059392 0.780950 0.159588 -0.019637
O52   O     O_2   0.070041 0.719787 0.230837 -0.223780
O53   O     O_2   0.091575 0.784080 0.024716 -0.435569
O54   O     O_3   0.096479 0.831925 0.294869 -0.491492
H70   H     H_    0.143978 0.821286 0.319099 0.399457
S3    S     S_3+6 0.552500 0.708624 0.646735 -0.004399
O55   O     O_2   0.579264 0.663436 0.772159 -0.226521
O56   O     O_2   0.585830 0.698639 0.514858 -0.408134
O57   O     O_3   0.571403 0.777461 0.722726 -0.466944
H71   H     H_    0.619422 0.775486 0.770741 0.380172
S4    S     S_3+6 0.558781 0.281619 0.159409 -0.019848
O58   O     O_2   0.569626 0.220419 0.230378 -0.225322
O59   O     O_2   0.590960 0.284781 0.024419 -0.430584
O60   O     O_3   0.595855 0.332565 0.294910 -0.492267
H72   H     H_    0.643108 0.320971 0.322401 0.400442
S5    S     S_3+6 0.327537 0.460778 0.456847 0.039555
O61   O     O_2   0.315873 0.526266 0.481369 -0.269925
O62   O     O_2   0.340693 0.430510 0.613288 -0.222697
O63   O     O_3   0.394810 0.453325 0.384616 -0.471564
H73   H     H_    0.378113 0.450260 0.269076 0.379335
S6    S     S_3+6 0.330290 0.528728 0.969416 0.005563
O64   O     O_2   0.344083 0.553124 0.134693 -0.300669
O65   O     O_2   0.316988 0.462618 0.971980 -0.314473
O66   O     O_3   0.396830 0.539503 0.896907 -0.471053
H74   H     H_    0.382811 0.527674 0.784407 0.385897
S7    S     S_3+6 0.825543 0.958261 0.454336 0.051044
O67   O     O_2   0.810453 0.020716 0.501595 -0.254042
O68   O     O_2   0.844556 0.920958 0.599501 -0.220846
O69   O     O_3   0.890106 0.961046 0.371181 -0.445394
H75   H     H_    0.877113 0.936756 0.273388 0.370327
S8    S     S_3+6 0.831215 0.026741 0.972925 -0.017879
O70   O     O_2   0.845348 0.050049 0.139254 -0.292522
O71   O     O_2   0.818162 0.960537 0.972719 -0.307221
O72   O     O_3   0.897225 0.038796 0.899261 -0.504261
H76   H     H_    0.885807 0.020464 0.792495 0.390571
C81   C     C_2   0.963689 0.092777 0.514370 0.632883
H77   H     H_    0.927082 0.070199 0.423028 0.131488
O73   O     O_2   0.021975 0.079462 0.535122 -0.469580
C82   C     C_2   0.985036 0.906509 0.021477 0.681010
H78   H     H_    0.951132 0.933523 0.936289 0.108208
O74   O     O_2   0.044444 0.914085 0.042196 -0.514168
C83   C     C_2   0.465778 0.588970 0.505728 0.681503
H79   H     H_    0.430399 0.565137 0.414552 0.122919
O75   O     O_2   0.524172 0.575538 0.532398 -0.465058
C84   C     C_2   0.482619 0.407076 0.023119 0.671467
H80   H     H_    0.448051 0.432822 0.935963 0.117257
O76   O     O_2   0.541830 0.415964 0.044171 -0.504354
C85   C     C_2   0.996414 0.095714 0.174713 0.724514
H81   H     H_    0.956284 0.115426 0.215642 0.044711
O77   O     O_2   0.003621 0.041241 0.181033 -0.481659
C86   C     C_2   0.005451 0.907110 0.671706 0.672527
H82   H     H_    0.964122 0.889891 0.711354 0.086163
O78   O     O_2   0.013104 0.961355 0.668598 -0.482485
C87   C     C_2   0.496275 0.596483 0.170570 0.735183
H83   H     H_    0.456154 0.616391 0.211329 0.054616
O79   O     O_2   0.503625 0.542037 0.177491 -0.496595
C88   C     C_2   0.505868 0.406524 0.677674 0.680145
H84   H     H_    0.462791 0.389358 0.710249 0.093152
O80   O     O_2   0.515485 0.460641 0.683881 -0.482540
S9    S     S_3+6 0.241160 0.741788 0.749550 -0.038699
O81   O     O_2   0.257262 0.685052 0.673567 -0.278081
O82   O     O_2   0.201917 0.781488 0.623092 -0.281653
O83   O     O_3   0.312898 0.774123 0.825519 -0.464253
H85   H     H_    0.303554 0.816584 0.800561 0.392859
S10   S     S_3+6 0.227627 0.231287 0.233456 -0.060319
O84   O     O_2   0.237310 0.165695 0.268614 -0.308648
O85   O     O_2   0.189589 0.231448 0.065010 -0.254029
O86   O     O_3   0.299652 0.265468 0.236279 -0.468016
H86   H     H_    0.287269 0.303830 0.180648 0.335592
S11   S     S_3+6 0.744546 0.236885 0.748917 -0.030003
O87   O     O_2   0.754800 0.180238 0.664625 -0.248347
O88   O     O_2   0.710179 0.281778 0.629795 -0.291380
O89   O     O_3   0.819965 0.260220 0.831383 -0.427600
H87   H     H_    0.818669 0.303357 0.812177 0.398038
S12   S     S_3+6 0.727394 0.731119 0.233592 -0.054795
O90   O     O_2   0.737453 0.665544 0.268672 -0.305730
O91   O     O_2   0.689137 0.731263 0.065259 -0.248396
O92   O     O_3   0.799259 0.765563 0.236146 -0.469311
H88   H     H_    0.786736 0.803517 0.178621 0.334280
C89   C     C_2   0.267338 0.649990 0.272927 0.640472
H89   H     H_    0.317970 0.651064 0.261936 0.044803
O93   O     O_2   0.256308 0.632507 0.395290 -0.477364
C90   C     C_2   0.261688 0.346383 0.789793 0.677090
H90   H     H_    0.242554 0.362618 0.887080 0.048141
O94   O     O_2   0.321351 0.346071 0.805721 -0.538784
C91   C     C_2   0.769297 0.148766 0.269525 0.635578
H91   H     H_    0.819782 0.151314 0.258052 0.030421
O95   O     O_2   0.759082 0.128738 0.390188 -0.471303
C92   C     C_2   0.761521 0.846265 0.790369 0.683593
H92   H     H_    0.741917 0.862243 0.887148 0.040698
O96   O     O_2   0.821262 0.845808 0.808061 -0.534384
C93   C     C_2   0.048378 0.628275 0.887131 0.721570
H93   H     H_    0.007367 0.658443 0.881058 -0.076483
O97   O     O_2   0.039516 0.578685 0.825796 -0.556439
C94   C     C_2   0.050436 0.369912 0.388718 0.705194
H94   H     H_    0.010407 0.339181 0.385264 -0.049621
O98   O     O_2   0.040264 0.419189 0.328776 -0.564306
C95   C     C_2   0.548398 0.129094 0.887918 0.720209
H95   H     H_    0.507881 0.159826 0.882325 -0.077801
O99   O     O_2   0.538572 0.079467 0.827116 -0.556090
C96   C     C_2   0.550574 0.869962 0.388882 0.717367
H96   H     H_    0.510572 0.839178 0.384659 -0.059934
O100  O     O_2   0.540560 0.919266 0.329031 -0.565583
S13   S     S_3+6 0.943702 0.219586 0.047072 -0.022756
O101  O     O_2   0.912246 0.219441 0.182686 -0.465157
O102  O     O_2   0.936515 0.280447 0.974399 -0.178731
O103  O     O_3   0.905284 0.168215 0.914869 -0.486587
H97   H     H_    0.865264 0.156779 0.949344 0.398872
S14   S     S_3+6 0.947178 0.785928 0.529707 -0.011022
O104  O     O_2   0.917618 0.834269 0.416739 -0.267146
O105  O     O_2   0.938197 0.726266 0.446608 -0.218196
O106  O     O_3   0.908484 0.785390 0.673844 -0.541886
H98   H     H_    0.927821 0.749385 0.731627 0.301773
S15   S     S_3+6 0.442208 0.718915 0.035132 -0.013684
O107  O     O_2   0.408985 0.722227 0.167462 -0.416516
O108  O     O_2   0.435216 0.777777 0.951555 -0.170977
O109  O     O_3   0.406214 0.663243 0.914046 -0.527351
H99   H     H_    0.373678 0.682341 0.828013 0.436275
S16   S     S_3+6 0.447358 0.285150 0.531216 -0.009599
O110  O     O_2   0.417085 0.333418 0.418927 -0.246598
O111  O     O_2   0.438631 0.225616 0.447497 -0.217773
O112  O     O_3   0.409153 0.283945 0.676086 -0.547314
H100  H     H_    0.429612 0.248420 0.734415 0.300996
C97   C     C_2   0.110071 0.117184 0.181890 0.847496
H101  H     H_    0.129928 0.127964 0.305779 0.030964
O113  O     O_2   0.143184 0.088424 0.109339 -0.506199
C98   C     C_2   0.119911 0.875304 0.725907 0.731282
H102  H     H_    0.130259 0.861905 0.848166 0.035321
O114  O     O_2   0.162805 0.900350 0.677197 -0.549515
C99   C     C_2   0.609677 0.618283 0.176345 0.844873
H103  H     H_    0.629471 0.628700 0.300381 0.039410
O115  O     O_2   0.642961 0.590076 0.103168 -0.497087
C100  C     C_2   0.620528 0.374800 0.722622 0.748667
H104  H     H_    0.632775 0.360665 0.844468 0.028750
O116  O     O_2   0.662213 0.400260 0.670524 -0.544241

loop_
_geom_bond_atom_site_label_1
_geom_bond_atom_site_label_2
_geom_bond_distance
_ccdc_geom_bond_type
C19   H27   1.101653 S    
C15   H19   1.108716 S    
C96   O100  1.217495 D    
S11   O87   1.494151 D    
P5    O37   1.740852 S    
P7    O39   1.739506 S    
C89   H89   1.084266 S    
P8    O40   1.745340 S    
S9    O83   1.647135 S    
C5    S13   1.774255 S    
P9    O33   1.534310 D    
C79   H67   1.074612 S    
O83   H85   0.981225 S    
C1    H1    1.100256 S    
O26   Ba2   2.919313 S    
C62   C78   1.393488 A    
C3    C83   1.493263 S    
C29   H53   1.101036 S    
C32   H56   1.093771 S    
C86   H82   1.077879 S    
C6    H10   1.107410 S    
S6    O65   1.500562 D    
Ba1   O46   3.061601 S    
C31   H55   1.104887 S    
P4    O8    1.610103 S    
C17   H29   1.109859 S    
O66   H74   0.988359 S    
P7    O48   1.615998 S    
C67   C79   1.385322 A    
P8    C55   1.919407 S    
P5    O25   1.595925 D    
C41   C45   1.437696 A    
C92   O96   1.218293 D    
P7    C56   1.939743 S    
S6    O66   1.679677 S    
C23   H39   1.109379 S    
S14   O104  1.496676 D    
C40   C44   1.432424 A    
S16   O110  1.495935 D    
C14   H18   1.106701 S    
S15   O108  1.497906 D    
P9    C38   1.890602 S    
C43   C47   1.434125 A    
O106  H98   0.984615 S    
C1    C81   1.491771 S    
C94   H94   1.076184 S    
C10   H14   1.105910 S    
S3    O55   1.500775 D    
O44   C8    1.404702 S    
S4    O59   1.495482 D    
C68   C80   1.383079 A    
C29   S1    1.812000 S    
C78   H66   1.079768 S    
P11   C40   1.890788 S    
P8    Ba4   3.524498 S    
S12   O90   1.499357 D    
C85   O77   1.222112 D    
C36   C40   1.405380 A    
C46   C50   1.463646 A    
S7    O69   1.680855 S    
O29   Ba1   2.844797 S    
O5    Ba2   2.867112 S    
C83   O75   1.220505 D    
O24   P15   1.763989 S    
S10   O86   1.681750 S    
O31   Ba3   2.844797 S    
O7    Ba4   2.867112 S    
P2    C66   1.877674 S    
C27   H47   1.106479 S    
P15   C64   1.847619 S    
C17   S5    1.796837 S    
O15   P16   1.520460 D    
C18   H30   1.108405 S    
O4    Ba4   2.911882 S    
O13   P14   1.525152 D    
C34   C54   1.405356 A    
S10   O85   1.493647 D    
O42   C6    1.406290 S    
C98   H102  1.083251 S    
C64   C80   1.393685 A    
C27   H43   1.110980 S    
C18   S6    1.787791 S    
C13   C17   1.528002 S    
C1    C29   1.538714 S    
S15   O107  1.487353 D    
C72   H64   1.048837 S    
C25   H41   1.110951 S    
C26   H46   1.103251 S    
C91   O95   1.216057 D    
C37   C41   1.421714 A    
S8    O70   1.498511 D    
C34   C38   1.406340 A    
C95   O99   1.216689 D    
C11   C99   1.490782 S    
S13   O103  1.676691 S    
C59   H59   1.072447 S    
P14   C61   1.830859 S    
C5    C9    1.559356 S    
Ba3   Ba4   4.797564 S    
S16   O112  1.653041 S    
C20   H28   1.102317 S    
C57   H57   1.073734 S    
C57   C73   1.418349 A    
C7    C11   1.558495 S    
C2    H6    1.109905 S    
C2    C82   1.494273 S    
C4    H4    1.104991 S    
S11   O88   1.501943 D    
O11   P16   1.738487 S    
C22   C26   1.520784 S    
C93   O97   1.216631 D    
O28   Ba4   2.919313 S    
O30   Ba2   2.812317 S    
O6    Ba1   2.890576 S    
O21   C29   1.417403 S    
C81   H77   1.081894 S    
S13   O102  1.495459 D    
C36   C56   1.405051 A    
O9    Ba1   2.812587 S    
C12   C100  1.502915 S    
C13   H21   1.111350 S    
S12   O92   1.681961 S    
C60   C76   1.434777 A    
C15   H23   1.111328 S    
C48   C74   1.575106 S    
C49   C53   1.432386 A    
P6    O38   1.746669 S    
O40   C15   1.395992 S    
Ba3   O47   2.866402 S    
P8    O28   1.585428 D    
C90   O94   1.218640 D    
P9    O29   1.772031 S    
P5    Ba1   3.516714 S    
S5    O61   1.499140 D    
P10   O34   1.527472 D    
S13   O101  1.488376 D    
P7    Ba3   3.516714 S    
C51   C91   1.477093 S    
O51   H69   0.990314 S    
C71   C75   1.429083 A    
C20   H32   1.106932 S    
C2    H2    1.105286 S    
P3    O7    1.603676 S    
O17   C21   1.392519 S    
C66   C78   1.383067 A    
S2    O54   1.677823 S    
S1    O49   1.496681 D    
P11   O35   1.533964 D    
S14   O106  1.653901 S    
C24   H36   1.108945 S    
C58   H58   1.075188 S    
Ba2   O45   3.055416 S    
P2    O18   1.747160 S    
C70   H62   1.048926 S    
C3    C31   1.541163 S    
C4    C32   1.539455 S    
P6    O45   1.609448 S    
O86   H86   0.990281 S    
S2    O53   1.494580 D    
C9    C97   1.491722 S    
C84   O76   1.220604 D    
P6    O26   1.585428 D    
S8    O72   1.679939 S    
C21   H33   1.108677 S    
S3    O56   1.498409 D    
C42   C46   1.472541 A    
C23   H35   1.108735 S    
P9    O41   1.771814 S    
C9    C85   1.504394 S    
C19   S7    1.797344 S    
C35   C95   1.455179 S    
O10   Ba2   2.845054 S    
C11   C87   1.502981 S    
O103  H97   0.989364 S    
C6    S14   1.783460 S    
O20   C24   1.395386 S    
S9    O82   1.501095 D    
C80   H68   1.079584 S    
P6    Ba2   3.524498 S    
P5    O46   1.615998 S    
C8    C12   1.554180 S    
C70   C74   1.422019 A    
P8    O47   1.609448 S    
S12   O91   1.494128 D    
O63   H73   0.986903 S    
C33   C93   1.454831 S    
C88   O80   1.220812 D    
C67   C71   1.428184 A    
C65   C69   1.425542 A    
C52   C56   1.433185 A    
C21   H37   1.109487 S    
C86   O78   1.220566 D    
C100  H104  1.083795 S    
S5    O63   1.680417 S    
C45   C49   1.446585 A    
C88   H84   1.079231 S    
Ba1   O45   2.866402 S    
C48   C52   1.463888 A    
C32   S4    1.804930 S    
P1    C65   1.872898 S    
C16   H24   1.110932 S    
O39   C16   1.392003 S    
P4    C68   1.877755 S    
C87   H83   1.078453 S    
C12   H16   1.106166 S    
O14   P13   1.529748 D    
C83   H79   1.081010 S    
S1    O51   1.678338 S    
O10   P13   1.763731 S    
S14   O105  1.496785 D    
O12   P15   1.764252 S    
P1    O1    1.585592 D    
C68   C72   1.394507 A    
Ba4   O47   3.055416 S    
O25   Ba1   2.914295 S    
S16   O111  1.496648 D    
P10   O42   1.761414 S    
P3    O3    1.585592 D    
C28   H48   1.102900 S    
O89   H87   0.976351 S    
P4    O20   1.746418 S    
C2    C30   1.538525 S    
C26   H42   1.110985 S    
C43   S11   1.782644 S    
C63   C79   1.387721 A    
C94   O98   1.217477 D    
C58   C62   1.417871 A    
C61   C77   1.386861 A    
P1    Ba1   3.522678 S    
C38   C42   1.432057 A    
C99   H103  1.085048 S    
P3    Ba3   3.522678 S    
O23   P16   1.758170 S    
P10   C37   1.891344 S    
O60   H72   0.990538 S    
C5    H9    1.102097 S    
O21   P14   1.759021 S    
C10   C86   1.501028 S    
C97   O113  1.220706 D    
C50   C54   1.432996 A    
C72   C76   1.422064 A    
C45   C75   1.558494 S    
C89   O93   1.216403 D    
C96   H96   1.075394 S    
C85   H81   1.077611 S    
C12   C88   1.502306 S    
C30   S2    1.802583 S    
S7    O68   1.495673 D    
C91   H91   1.083979 S    
C41   S9    1.784588 S    
O22   C30   1.410667 S    
P1    O5    1.603676 S    
C42   S10   1.825232 S    
C13   H17   1.108525 S    
C82   H78   1.081176 S    
C25   H49   1.108038 S    
O69   H75   0.987057 S    
C34   C94   1.451338 S    
O92   H88   0.990229 S    
C59   C63   1.401866 A    
C9    H13   1.103427 S    
P10   O30   1.777640 S    
C98   O114  1.219917 D    
S6    O64   1.498695 D    
P12   O44   1.760083 S    
C77   H65   1.075455 S    
C16   C20   1.519661 S    
C3    H3    1.102004 S    
C33   C37   1.406381 A    
O12   Ba4   2.845054 S    
S8    O71   1.500119 D    
C92   H92   1.081621 S    
P2    Ba2   3.515121 S    
O23   C31   1.416137 S    
C24   H40   1.110446 S    
C35   C55   1.415081 A    
S15   O109  1.676315 S    
C99   O115  1.220455 D    
C19   H31   1.109630 S    
C60   H60   1.075206 S    
C18   H26   1.103721 S    
Ba1   Ba2   4.797564 S    
C11   H15   1.105648 S    
P7    O27   1.595925 D    
C93   H93   1.077636 S    
O1    Ba1   2.916816 S    
O41   C5    1.414423 S    
S4    O58   1.497959 D    
O3    Ba3   2.916816 S    
O43   C7    1.415308 S    
C28   H52   1.107910 S    
O57   H71   0.988844 S    
C14   C18   1.522138 S    
O37   C14   1.393130 S    
C95   H95   1.078086 S    
C44   C48   1.472540 A    
C36   C96   1.450096 S    
C31   S3    1.807368 S    
C1    H5    1.111679 S    
C10   C98   1.502069 S    
O112  H100  0.984802 S    
P1    O17   1.750227 S    
C49   C89   1.474598 S    
C6    C10   1.556263 S    
P3    O19   1.749574 S    
C58   C74   1.434674 A    
P4    O4    1.596098 D    
C46   C76   1.575143 S    
P12   C39   1.891727 S    
P16   C63   1.827004 S    
C8    S16   1.783433 S    
C87   O79   1.221990 D    
S10   O84   1.499220 D    
C50   C90   1.482065 S    
C21   C25   1.523411 S    
P6    C53   1.919442 S    
C23   C27   1.522994 S    
Ba2   O46   2.889817 S    
C14   H22   1.111046 S    
C16   H20   1.106323 S    
C4    C84   1.493770 S    
P4    Ba4   3.515121 S    
C52   C92   1.481899 S    
O2    Ba2   2.911882 S    
P2    O2    1.596098 D    
C27   H51   1.108469 S    
O9    P14   1.746103 S    
C28   H44   1.110881 S    
P11   O43   1.769746 S    
P12   O36   1.524896 D    
C15   C19   1.525633 S    
O38   C13   1.396682 S    
C44   S12   1.825239 S    
O11   Ba3   2.812587 S    
P5    C54   1.939910 S    
S11   O89   1.646689 S    
C82   O74   1.220498 D    
C57   C61   1.403298 A    
C51   C55   1.433660 A    
C65   C77   1.385688 A    
S9    O81   1.495242 D    
C47   C51   1.444984 A    
S4    O60   1.678445 S    
C59   C75   1.417087 A    
C60   C64   1.417889 A    
C81   O73   1.221319 D    
O22   P13   1.763956 S    
C39   C43   1.419790 A    
C71   H63   1.078671 S    
P3    C67   1.879854 S    
C69   H61   1.079419 S    
O18   C22   1.395539 S    
C7    S15   1.779229 S    
O54   H70   0.990395 S    
O16   P15   1.529625 D    
C8    H12   1.106783 S    
C33   C53   1.413178 A    
C22   H34   1.108039 S    
Ba3   O48   3.061601 S    
C90   H90   1.081805 S    
O24   C32   1.410556 S    
C100  O116  1.219796 D    
S5    O62   1.496406 D    
C30   H54   1.094245 S    
C35   C39   1.407728 A    
O72   H76   0.989002 S    
P2    O6    1.610103 S    
P11   O31   1.769394 S    
C25   H45   1.106585 S    
P12   O32   1.779552 S    
C26   H50   1.108073 S    
O27   Ba3   2.914295 S    
C20   S8    1.785771 S    
S7    O67   1.500169 D    
S1    O50   1.498731 D    
P13   C62   1.847706 S    
Ba4   O48   2.889817 S    
C47   C73   1.556190 S    
C7    H11   1.106066 S    
C69   C73   1.430666 A    
C3    H7    1.110679 S    
C4    H8    1.110856 S    
S2    O52   1.497962 D    
C84   H80   1.081792 S    
C66   C70   1.394925 A    
O19   C23   1.391715 S    
C22   H38   1.110435 S    
S3    O57   1.673048 S    
O109  H99   0.982423 S    
C24   C28   1.520847 S    
C97   H101  1.085758 S    
O32   Ba4   2.812317 S    
O8    Ba3   2.890576 S    
C17   H25   1.102966 S    
