data_mof_unit_49571.cif
_audit_creation_date              2012-12-10T20:49:09-0500
_audit_creation_method            fapswitch 2.2
_symmetry_space_group_name_H-M    P1
_symmetry_Int_Tables_number       1
_space_group_crystal_system       triclinic
_cell_length_a                    9.025835
_cell_length_b                    8.089897
_cell_length_c                    10.550502
_cell_angle_alpha                 89.99964
_cell_angle_beta                  85.57567
_cell_angle_gamma                 89.999806
_cell_volume                      768.081692033

loop_
_atom_site_label
_atom_site_type_symbol
_atom_type_description
_atom_site_fract_x
_atom_site_fract_y
_atom_site_fract_z
_atom_type_partial_charge
C1    C     C_R   0.217945 0.500108 0.498030 0.887670
C2    C     C_3   0.647022 0.498782 0.008572 0.195327
C3    C     C_3   0.472661 0.499375 0.878926 -0.513483
C4    C     C_3   0.527324 0.499383 0.121079 -0.513472
C5    C     C_1   0.065045 0.500495 0.498999 -0.180010
C6    C     C_1   0.934959 0.500494 0.500956 -0.179997
C7    C     C_3   0.126747 0.497649 0.114616 0.172896
C8    C     C_3   0.088504 0.320368 0.161225 -0.319111
C9    C     C_3   0.927771 0.298266 0.216322 -0.789910
C10   C     C_3   0.873282 0.498075 0.885448 0.172682
C11   C     C_3   0.911479 0.320848 0.838681 -0.319145
C12   C     C_R   0.782057 0.500107 0.501947 0.887638
C13   C     C_3   0.072186 0.298754 0.783516 -0.789809
C14   C     C_R   0.525995 0.499891 0.257026 0.971619
C15   C     C_R   0.474001 0.499889 0.742975 0.971565
C16   C     C_3   0.439936 0.634111 0.055332 0.511166
C17   C     C_3   0.559587 0.364449 0.944455 0.497545
C18   C     C_3   0.559950 0.634175 0.944690 0.511167
C19   C     C_3   0.440498 0.364390 0.055536 0.497736
C20   C     C_3   0.352965 0.498650 0.991436 0.195372
F1    F     F_    0.380218 0.777188 0.110146 -0.561953
F2    F     F_    0.610721 0.217352 0.890739 -0.582606
F3    F     F_    0.619548 0.777324 0.889900 -0.561887
F4    F     F_    0.389438 0.217258 0.109244 -0.582556
H1    H     H_    0.025581 0.574651 0.114118 0.213876
H2    H     H_    0.889401 0.229965 0.916693 0.281460
H3    H     H_    0.837827 0.289434 0.762473 0.241932
H4    H     H_    0.119986 0.416251 0.745142 0.241111
H5    H     H_    0.076581 0.206016 0.705680 0.255705
H6    H     H_    0.142540 0.251566 0.857087 0.298569
H7    H     H_    0.192345 0.560011 0.185876 0.124607
H8    H     H_    0.110606 0.229588 0.083144 0.281430
H9    H     H_    0.162107 0.288820 0.237439 0.242018
H10   H     H_    0.880079 0.415672 0.254960 0.241075
H11   H     H_    0.923285 0.205224 0.293945 0.255774
H12   H     H_    0.857383 0.251482 0.142638 0.298618
H13   H     H_    0.974473 0.575019 0.886049 0.213890
H14   H     H_    0.807732 0.560594 0.814232 0.124839
N1    N     N_1   0.500000 0.073640 0.500000 0.009537
N2    N     N_1   0.500000 0.926360 0.500000 0.011260
O1    O     O_R   0.285350 0.636850 0.500000 -0.612972
O2    O     O_3   0.802897 0.498606 0.011081 -0.629536
O3    O     O_R   0.714650 0.363150 0.500000 -0.628959
O4    O     O_R   0.714650 0.636850 0.500000 -0.612985
O5    O     O_R   0.285350 0.363150 0.500000 -0.628992
O6    O     O_R   0.499970 0.636850 0.313950 -0.570159
O7    O     O_R   0.500030 0.363150 0.686050 -0.575365
O8    O     O_R   0.500030 0.636850 0.686050 -0.570192
O9    O     O_R   0.499970 0.363150 0.313950 -0.575428
O10   O     O_3   0.197087 0.498336 0.988967 -0.629535
Zn1   Zn    Zn3+2 0.500000 0.682780 0.500000 1.072302
Zn2   Zn    Zn3+2 0.500000 0.317220 0.500000 1.047678

loop_
_geom_bond_atom_site_label_1
_geom_bond_atom_site_label_2
_ccdc_geom_bond_type
C4    C16   S    
C9    H12   S    
C2    C4    S    
C13   H4    S    
C16   F1    S    
C11   H3    S    
C10   O2    S    
N2    Zn1   S    
C17   F2    S    
C7    H1    S    
C15   O7    A    
C10   H14   S    
O9    Zn2   S    
O5    Zn2   S    
C19   F4    S    
C3    C20   S    
C14   O6    A    
C2    C17   S    
C6    C12   S    
C1    O1    A    
C11   C13   S    
C1    O5    A    
C9    H10   S    
C15   O8    A    
C2    O2    S    
C10   H13   S    
C1    C5    S    
O4    Zn1   S    
C13   H5    S    
C16   C20   S    
C17   C19   S    
C7    H7    S    
C3    C17   S    
C12   O3    A    
C8    H9    S    
C4    C14   S    
C5    C6    T    
O3    Zn2   S    
C14   O9    A    
C2    C18   S    
C10   C11   S    
C18   F3    S    
C8    H8    S    
C13   H6    S    
C7    C8    S    
C3    C15   S    
C3    C18   S    
C16   C18   S    
O7    Zn2   S    
N1    N2    T    
C9    H11   S    
C12   O4    A    
C20   O10   S    
C11   H2    S    
C4    C19   S    
O6    Zn1   S    
O1    Zn1   S    
O8    Zn1   S    
C19   C20   S    
C7    O10   S    
N1    Zn2   S    
C8    C9    S    
