data_mof_unit_42551.cif
_audit_creation_date              2012-12-10T18:05:49-0500
_audit_creation_method            fapswitch 2.2
_symmetry_space_group_name_H-M    P1
_symmetry_Int_Tables_number       1
_space_group_crystal_system       triclinic
_cell_length_a                    12.584372
_cell_length_b                    13.149735
_cell_length_c                    15.000494
_cell_angle_alpha                 90.763092
_cell_angle_beta                  102.293168
_cell_angle_gamma                 83.356574
_cell_volume                      2408.93312898

loop_
_atom_site_label
_atom_site_type_symbol
_atom_type_description
_atom_site_fract_x
_atom_site_fract_y
_atom_site_fract_z
_atom_type_partial_charge
C1    C     C_R   0.439815 0.691083 0.496037 0.877135
C2    C     C_R   0.403781 0.488859 0.797649 -0.270477
C3    C     C_R   0.501313 0.498119 0.769338 -0.072700
C4    C     C_R   0.500473 0.499867 0.673185 0.865301
C5    C     C_R   0.599252 0.504649 0.832790 -0.267959
C6    C     C_R   0.723891 0.057758 0.602884 -0.203625
C7    C     C_R   0.590745 0.203057 0.547831 -0.172898
C8    C     C_R   0.297649 0.837594 0.452937 -0.196157
C9    C     C_R   0.267578 0.942568 0.440531 0.228853
C10   C     C_R   0.343428 0.009861 0.476036 -0.157688
C11   C     C_R   0.446630 0.974011 0.531586 0.052534
C12   C     C_R   0.599892 0.501030 0.110728 0.117082
C13   C     C_R   0.473385 0.868242 0.548822 0.079037
C14   C     C_R   0.529008 0.038745 0.562200 -0.023684
C15   C     C_R   0.638294 0.996577 0.597032 0.117505
C16   C     C_R   0.559583 0.309360 0.517494 0.888829
C17   C     C_R   0.658389 0.894983 0.626597 -0.222307
C18   C     C_R   0.573496 0.833643 0.608615 -0.184098
C19   C     C_R   0.506954 0.144547 0.557299 0.380933
C20   C     C_R   0.700238 0.159476 0.572038 -0.272996
C21   C     C_R   0.402161 0.799968 0.502435 -0.169525
C22   C     C_R   0.086075 0.346537 0.372955 -0.314300
C23   C     C_R   0.305740 0.477043 0.010972 -0.219257
C24   C     C_R   0.803556 0.624497 0.613257 0.019801
C25   C     C_R   0.909094 0.651954 0.636322 -0.256222
C26   C     C_R   0.988654 0.605921 0.592405 -0.195712
C27   C     C_R   0.963083 0.530468 0.525793 0.017989
C28   C     C_R   0.499888 0.498974 0.326863 0.893094
C29   C     C_R   0.853819 0.505423 0.504605 0.236993
C30   C     C_R   0.041576 0.477886 0.480720 -0.011682
C31   C     C_R   0.009838 0.400360 0.416949 0.194259
C32   C     C_R   0.902563 0.376662 0.398096 -0.299327
C33   C     C_R   0.825984 0.428342 0.441377 -0.223846
C34   C     C_R   0.305918 0.477670 0.918384 -0.226660
C35   C     C_R   0.151162 0.498352 0.496466 -0.081453
C36   C     C_R   0.193031 0.370074 0.392026 0.046470
C37   C     C_R   0.598594 0.502261 0.202699 -0.261063
C38   C     C_R   0.500378 0.495920 0.230868 -0.074465
C39   C     C_R   0.403093 0.486555 0.167411 -0.261048
C40   C     C_R   0.402950 0.485161 0.075091 0.118858
C41   C     C_R   0.501606 0.492978 0.046559 0.060572
C42   C     C_3   0.408514 0.209362 0.660042 0.141630
C43   C     C_3   0.296770 0.258967 0.670973 -0.801613
C44   C     C_3   0.157788 0.983523 0.384180 -0.935030
C45   C     C_R   0.403299 0.486466 0.889655 0.117660
C46   C     C_R   0.501775 0.493673 0.953813 0.062099
C47   C     C_R   0.600208 0.502472 0.925226 0.119070
C48   C     C_R   0.697672 0.509384 0.989377 -0.222583
C49   C     C_R   0.697531 0.508606 0.081991 -0.218639
H1    H     H_    0.674120 0.508556 0.252125 0.169454
H2    H     H_    0.327286 0.481369 0.189601 0.161514
H3    H     H_    0.182820 0.555928 0.543099 0.128869
H4    H     H_    0.742981 0.657564 0.649371 0.119206
H5    H     H_    0.069337 0.629558 0.613241 0.136191
H6    H     H_    0.929427 0.708158 0.688721 0.143129
H7    H     H_    0.745817 0.404953 0.424947 0.216117
H8    H     H_    0.229745 0.470818 0.032420 0.144806
H9    H     H_    0.230067 0.471838 0.869322 0.146565
H10   H     H_    0.327875 0.484122 0.748264 0.161915
H11   H     H_    0.674693 0.511281 0.810463 0.161787
H12   H     H_    0.738905 0.863240 0.663227 0.136115
H13   H     H_    0.773602 0.515884 0.967913 0.144956
H14   H     H_    0.773366 0.514545 0.131041 0.149800
H15   H     H_    0.766570 0.204571 0.570378 0.183632
H16   H     H_    0.470200 0.262427 0.687690 0.135122
H17   H     H_    0.428231 0.136509 0.700394 0.130559
H18   H     H_    0.233719 0.206874 0.645649 0.248533
H19   H     H_    0.298503 0.275128 0.744091 0.198941
H20   H     H_    0.274666 0.331980 0.631569 0.270052
H21   H     H_    0.106729 0.921115 0.359808 0.242876
H22   H     H_    0.113503 0.036547 0.425805 0.248271
H23   H     H_    0.808345 0.025815 0.626994 0.150065
H24   H     H_    0.168926 0.025885 0.323893 0.238787
H25   H     H_    0.241744 0.785198 0.419426 0.164853
H26   H     H_    0.321698 0.088965 0.454883 0.199382
H27   H     H_    0.587769 0.758028 0.638682 0.154883
H28   H     H_    0.253285 0.329058 0.358954 0.131723
H29   H     H_    0.877667 0.317323 0.349844 0.157918
H30   H     H_    0.063209 0.286793 0.324575 0.142712
N1    N     N_R   0.222190 0.444670 0.452360 -0.101855
N2    N     N_R   0.776970 0.554790 0.547140 -0.127482
O1    O     O_R   0.366740 0.627160 0.477250 -0.621370
O2    O     O_R   0.544830 0.662520 0.507680 -0.608931
O3    O     O_R   0.410940 0.482340 0.616930 -0.631350
O4    O     O_R   0.589030 0.517700 0.647360 -0.638790
O5    O     O_R   0.455170 0.337480 0.492320 -0.558678
O6    O     O_R   0.633260 0.372840 0.522750 -0.647786
O7    O     O_R   0.410970 0.482300 0.352640 -0.626697
O8    O     O_R   0.589060 0.517660 0.383070 -0.637592
O9    O     O_3   0.405190 0.190641 0.566681 -0.615159
Zn1   Zn    Zn3+2 0.381090 0.476390 0.479680 0.950648
Zn2   Zn    Zn3+2 0.618910 0.523610 0.520320 0.927621

loop_
_geom_bond_atom_site_label_1
_geom_bond_atom_site_label_2
_ccdc_geom_bond_type
C39   H2    S    
C1    C21   S    
C49   H14   S    
C27   C29   A    
C12   C49   A    
C45   C46   A    
C6    H23   S    
O2    Zn2   S    
C5    C47   A    
C26   C27   A    
C37   C38   A    
C30   C35   A    
C22   H30   S    
C36   H28   S    
C30   C31   A    
C11   C14   A    
C23   C40   A    
C29   C33   A    
C35   N1    A    
C44   H22   S    
C23   H8    S    
C12   C37   A    
C17   H12   S    
C6    C15   A    
N2    Zn2   S    
C47   C48   A    
C8    C9    A    
C28   O7    A    
C42   H16   S    
C41   C46   A    
C44   H21   S    
C28   O8    A    
O3    Zn1   S    
C9    C10   A    
C33   H7    S    
C43   H20   S    
O6    Zn2   S    
C27   C30   A    
C16   O5    A    
C26   H5    S    
O4    Zn2   S    
C8    C21   A    
C2    C45   A    
C22   C31   A    
C24   C25   A    
C24   H4    S    
C36   N1    A    
C39   C40   A    
C2    H10   S    
C43   H19   S    
C4    O4    A    
C25   C26   A    
O1    Zn1   S    
C42   O9    S    
C20   H15   S    
C24   N2    A    
C29   N2    A    
C12   C41   A    
C16   O6    A    
C10   H26   S    
C48   H13   S    
C31   C32   A    
C4    O3    A    
O7    Zn1   S    
C28   C38   S    
C23   C34   A    
C8    H25   S    
C17   C18   A    
C13   C21   A    
C34   C45   A    
O8    Zn2   S    
C13   C18   A    
C48   C49   A    
C7    C19   A    
C42   C43   S    
C3    C4    S    
C6    C20   A    
C34   H9    S    
C15   C17   A    
C46   C47   A    
C7    C16   S    
C9    C44   S    
C18   H27   S    
C5    H11   S    
C14   C19   A    
C25   H6    S    
C3    C5    A    
C1    O2    A    
C22   C36   A    
O5    Zn1   S    
C32   C33   A    
N1    Zn1   S    
C2    C3    A    
C1    O1    A    
C19   O9    S    
C37   H1    S    
C11   C13   A    
C38   C39   A    
C44   H24   S    
C10   C11   A    
C32   H29   S    
C43   H18   S    
C7    C20   A    
C35   H3    S    
C42   H17   S    
C14   C15   A    
C40   C41   A    
