data_mof_unit_8917.cif
_audit_creation_date              2012-12-11T17:23:13-0500
_audit_creation_method            fapswitch 2.2
_symmetry_space_group_name_H-M    P1
_symmetry_Int_Tables_number       1
_space_group_crystal_system       triclinic
_cell_length_a                    8.243139
_cell_length_b                    16.404785
_cell_length_c                    26.993582
_cell_angle_alpha                 95.467404
_cell_angle_beta                  92.823775
_cell_angle_gamma                 86.895086
_cell_volume                      3624.74500484

loop_
_atom_site_label
_atom_site_type_symbol
_atom_type_description
_atom_site_fract_x
_atom_site_fract_y
_atom_site_fract_z
_atom_type_partial_charge
Ba1   Ba    Ba6+2 0.851940 0.461560 0.523510 1.672021
Ba2   Ba    Ba6+2 0.337880 0.538370 0.476480 1.664763
C1    C     C_3   0.690088 0.157780 0.656542 -0.339606
C2    C     C_R   0.968773 0.588185 0.182401 0.592864
C3    C     C_2   0.778211 0.568318 0.273415 -0.091416
C4    C     C_3   0.117227 0.283179 0.659198 0.336094
C5    C     C_3   0.755037 0.590071 0.328474 -0.072826
C6    C     C_1   0.982463 0.490500 0.343921 0.042358
C7    C     C_2   0.019031 0.482669 0.296037 -0.086208
C8    C     C_2   0.910830 0.522345 0.257704 0.213016
C9    C     C_R   0.029350 0.508985 0.103822 -0.081292
C10   C     C_R   0.013865 0.436571 0.127123 -0.041791
C11   C     C_R   0.031275 0.361034 0.098320 -0.035268
C12   C     C_3   0.654562 0.241320 0.637246 0.344937
C13   C     C_R   0.004146 0.585175 0.131552 -0.024994
C14   C     C_2   0.858922 0.537492 0.361601 -0.279834
C15   C     C_2   0.345791 0.475185 0.640690 -0.284396
C16   C     C_3   0.101361 0.257574 0.711326 -0.293807
C17   C     C_R   0.161734 0.425210 0.976429 -0.000408
C18   C     C_R   0.092512 0.573292 0.975959 0.028331
C19   C     C_R   0.142578 0.497013 0.950434 0.034156
C20   C     C_R   0.241919 0.354527 0.952004 0.134759
C21   C     C_R   0.272525 0.351497 0.901385 -0.043209
C22   C     C_R   0.238197 0.419396 0.874042 -0.054958
C23   C     C_3   0.526992 0.651750 0.627056 0.292530
C24   C     C_R   0.177355 0.492996 0.898783 -0.081834
C25   C     C_R   0.153772 0.562867 0.872108 -0.029624
C26   C     C_R   0.189292 0.557799 0.820906 0.600247
C27   C     C_R   0.271989 0.415807 0.822966 0.586127
C28   C     C_3   0.172506 0.283020 0.411673 0.340316
C29   C     C_2   0.425446 0.441463 0.727451 -0.085320
C30   C     C_3   0.442428 0.418079 0.672515 -0.047234
C31   C     C_1   0.210734 0.513282 0.657245 0.030278
C32   C     C_2   0.169119 0.514571 0.704675 -0.102516
C33   C     C_2   0.285154 0.479781 0.743522 0.191593
C34   C     C_3   0.527895 0.670472 0.683324 -0.345830
C35   C     C_R   0.104921 0.428357 0.025839 0.029990
C36   C     C_R   0.068699 0.505255 0.052562 0.052906
C37   C     C_R   0.068929 0.578305 0.028277 0.022012
C38   C     C_R   0.072434 0.357299 0.048511 -0.055351
C39   C     C_R   0.014795 0.657154 0.107909 -0.055307
C40   C     C_3   0.176622 0.192354 0.391891 0.416029
C41   C     C_R   0.067575 0.642044 0.948069 -0.095551
C42   C     C_R   0.096864 0.636744 0.897357 -0.053820
C43   C     C_R   0.044807 0.653921 0.057360 -0.099313
C44   C     C_R   0.385456 0.266396 0.520897 -0.305624
C45   C     C_3   0.022051 0.739766 0.342321 0.339989
C46   C     C_R   0.526063 0.241175 0.496167 0.042855
C47   C     C_R   0.583680 0.159197 0.494576 -0.136931
C48   C     C_R   0.498322 0.101313 0.517344 0.228651
C49   C     C_R   0.350950 0.126955 0.540174 0.116059
C50   C     C_R   0.294004 0.209854 0.541243 0.013153
C51   C     C_R   0.626642 0.853657 0.510904 -0.183609
C52   C     C_3   0.019802 0.711334 0.581709 0.287999
C53   C     C_R   0.672024 0.770253 0.506495 0.010385
C54   C     C_R   0.717610 0.909786 0.488444 0.208599
C55   C     C_R   0.806136 0.741192 0.479735 -0.361911
C56   C     C_3   0.010366 0.783302 0.294897 -0.322907
C57   C     C_R   0.904401 0.795273 0.460265 -0.051261
C58   C     C_R   0.857501 0.879558 0.462551 0.349919
C59   C     C_3   0.019941 0.803783 0.594176 -0.337367
C60   C     C_3   0.663773 0.364685 0.375704 0.308941
C61   C     C_3   0.653372 0.348029 0.319256 -0.322670
C62   C     C_3   0.301804 0.067457 0.408374 0.192968
C63   C     C_3   0.874893 0.948242 0.394353 0.248330
C64   C     C_3   0.502316 0.756381 0.355996 0.382910
C65   C     C_3   0.467024 0.833311 0.329169 -0.348859
C66   C     C_R   0.975209 0.441481 0.178080 0.603639
H1    H     H_    0.699296 0.238994 0.598936 0.068044
H2    H     H_    0.821896 0.140494 0.655524 0.163008
H3    H     H_    0.738216 0.295925 0.307144 0.162607
H4    H     H_    0.686442 0.402949 0.301772 0.071471
H5    H     H_    0.527376 0.333152 0.306449 0.132541
H6    H     H_    0.520279 0.252853 0.635917 -0.069785
H7    H     H_    0.622545 0.110768 0.632761 0.095572
H8    H     H_    0.401903 0.637360 0.613397 0.015243
H9    H     H_    0.611230 0.597646 0.618454 0.068528
H10   H     H_    0.440923 0.722873 0.693290 0.141176
H11   H     H_    0.491663 0.616156 0.700887 0.071486
H12   H     H_    0.256131 0.185057 0.359251 0.028391
H13   H     H_    0.651855 0.686035 0.697909 0.134485
H14   H     H_    0.650909 0.159017 0.695395 0.126537
H15   H     H_    0.109468 0.312120 0.738609 0.120175
H16   H     H_    0.063327 0.674639 0.333345 0.062648
H17   H     H_    0.899006 0.742614 0.357163 -0.074455
H18   H     H_    0.117503 0.765178 0.272224 0.153771
H19   H     H_    0.897206 0.767184 0.273071 0.132190
H20   H     H_    0.005836 0.850789 0.303885 0.094079
H21   H     H_    0.635918 0.749469 0.361985 -0.101396
H22   H     H_    0.447998 0.765031 0.393039 0.089508
H23   H     H_    0.894684 0.693436 0.571736 0.003053
H24   H     H_    0.514938 0.887118 0.352305 0.045061
H25   H     H_    0.334438 0.844495 0.322364 0.147678
H26   H     H_    0.043461 0.341352 0.655923 0.080292
H27   H     H_    0.526906 0.826550 0.292937 0.112973
H28   H     H_    0.129370 0.448549 0.284398 0.115570
H29   H     H_    0.011048 0.304271 0.114021 0.135778
H30   H     H_    0.516474 0.417886 0.753557 0.120970
H31   H     H_    0.331770 0.296321 0.883911 0.155221
H32   H     H_    0.070647 0.298202 0.027335 0.124783
H33   H     H_    0.697929 0.598192 0.246818 0.102640
H34   H     H_    0.098414 0.694332 0.549791 0.069969
H35   H     H_    0.997965 0.716863 0.128395 0.122914
H36   H     H_    0.021233 0.700786 0.964269 0.076177
H37   H     H_    0.247105 0.293132 0.654119 -0.062672
H38   H     H_    0.075453 0.691445 0.877957 0.127495
H39   H     H_    0.051041 0.540790 0.715541 0.130641
H40   H     H_    0.052767 0.712050 0.042302 0.076679
H41   H     H_    0.844969 0.549539 0.401423 0.082129
H42   H     H_    0.375142 0.473717 0.601857 0.078629
H43   H     H_    0.522143 0.874160 0.532385 0.145358
H44   H     H_    0.692494 0.140729 0.474689 0.147148
H45   H     H_    0.937114 0.822830 0.624868 0.134034
H46   H     H_    0.341280 0.329777 0.521406 0.072627
H47   H     H_    0.982008 0.231122 0.714871 0.146540
H48   H     H_    0.841516 0.676486 0.477455 0.084939
H49   H     H_    0.199545 0.211285 0.719880 0.129486
H50   H     H_    0.297635 0.300965 0.422468 -0.044776
H51   H     H_    0.094620 0.293351 0.444310 0.056643
H52   H     H_    0.426661 0.075782 0.396564 0.026800
H53   H     H_    0.226728 0.040148 0.376277 0.051030
H54   H     H_    0.309969 0.022725 0.436800 0.130024
H55   H     H_    0.825674 0.892654 0.373156 -0.043743
H56   H     H_    0.978587 0.835981 0.561256 0.073416
H57   H     H_    0.966421 0.970960 0.371046 0.089431
H58   H     H_    0.775815 0.996468 0.399673 0.069596
H59   H     H_    0.144904 0.822084 0.605860 0.146764
H60   H     H_    0.790048 0.378002 0.387909 0.009205
H61   H     H_    0.581919 0.418815 0.386187 0.076178
I1    I     I_    0.935104 0.159638 0.366909 -0.463741
I2    I     I_    0.370197 0.258834 0.988594 -0.445315
I3    I     I_    0.212868 0.037833 0.569448 -0.386256
N1    N     N_R   0.952998 0.516948 0.205328 -0.423305
N2    N     N_R   0.247176 0.484544 0.796442 -0.421986
N3    N     N_2   0.549021 0.016335 0.515121 -0.217479
N4    N     N_2   0.673898 0.995807 0.491528 -0.206505
O1    O     O_2   0.915540 0.542930 0.617950 -0.459259
O2    O     O_2   0.241509 0.790045 0.468085 -0.457285
O3    O     O_3   0.133762 0.778706 0.376253 -0.588940
O4    O     O_3   0.147530 0.542870 0.557780 -0.494858
O5    O     O_3   0.552080 0.402920 0.475380 -0.494067
O6    O     O_2   0.387280 0.697260 0.523450 -0.456007
O7    O     O_3   0.576648 0.720382 0.605606 -0.632873
O8    O     O_2   0.439002 0.527479 0.322958 -0.485833
O9    O     O_3   0.436705 0.688277 0.327575 -0.579179
O10   O     O_2   0.959549 0.378622 0.197909 -0.582454
O11   O     O_2   0.323376 0.350836 0.802145 -0.614062
O12   O     O_3   0.618057 0.295213 0.396984 -0.610322
O13   O     O_2   0.952872 0.654713 0.206414 -0.627946
O14   O     O_2   0.171545 0.619182 0.798494 -0.593222
O15   O     O_3   0.664390 0.396160 0.588360 -0.486237
O16   O     O_2   0.773874 0.460880 0.677573 -0.494975
O17   O     O_3   0.077001 0.673523 0.623798 -0.623910
O18   O     O_3   0.733711 0.301882 0.668665 -0.594577
O19   O     O_2   0.802410 0.302720 0.476520 -0.449905
O20   O     O_3   0.070880 0.354870 0.564040 -0.505465
O21   O     O_2   0.956553 0.209108 0.531330 -0.432303
O22   O     O_3   0.233382 0.142808 0.429725 -0.671005
O23   O     O_3   0.060511 0.221374 0.624165 -0.582534
O24   O     O_3   0.951174 0.932096 0.440597 -0.606507
O25   O     O_2   0.274150 0.457040 0.382020 -0.457118
O26   O     O_3   0.042160 0.457070 0.442220 -0.496900
O27   O     O_3   0.525310 0.603770 0.411640 -0.476519
O28   O     O_3   0.109761 0.327430 0.372809 -0.651180
O29   O     O_3   0.637620 0.597020 0.524620 -0.478677
O30   O     O_3   0.118810 0.645070 0.435950 -0.489270
P1    P     P_3+3 0.086060 0.566890 0.610430 0.994171
P2    P     P_3+3 0.625290 0.314770 0.461990 1.015742
P3    P     P_3+3 0.095091 0.248154 0.564576 1.014514
P4    P     P_3+3 0.103630 0.433040 0.389570 0.995378
P5    P     P_3+3 0.099270 0.752459 0.435866 1.005490
P6    P     P_3+3 0.655320 0.397567 0.652790 0.947361
P7    P     P_3+3 0.571071 0.698563 0.540822 0.965021
P8    P     P_3+3 0.538352 0.599550 0.346924 0.960921

loop_
_geom_bond_atom_site_label_1
_geom_bond_atom_site_label_2
_ccdc_geom_bond_type
C21   H31   S    
C19   C24   A    
C26   O14   D    
C20   I2    S    
Ba1   O20   S    
O28   P4    S    
C8    N1    S    
C28   O28   S    
C56   H19   S    
Ba2   O26   S    
C52   O17   S    
C4    O23   S    
C66   O10   D    
N3    N4    D    
C64   H22   S    
C23   O7    S    
Ba2   O29   S    
C40   H12   S    
C2    O13   D    
C10   C66   A    
C24   C25   A    
C60   C61   S    
C59   H56   S    
C23   H9    S    
C32   H39   S    
C45   H17   S    
C66   N1    Am   
C17   C19   A    
C22   C24   A    
C32   C33   S    
C35   C38   A    
C48   N3    S    
C36   C37   A    
O16   P6    D    
C62   H54   S    
C55   C57   A    
C52   H23   S    
C28   H51   S    
Ba1   P1    S    
O29   P7    S    
C62   H53   S    
C5    P8    S    
C44   C50   A    
O20   P3    S    
C33   N2    S    
Ba1   Ba2   S    
C29   H30   S    
C50   P3    S    
Ba1   O19   S    
C22   C27   A    
C53   P7    S    
C64   O9    S    
C17   C35   A    
O21   P3    D    
C41   H36   S    
C9    C13   A    
C25   C42   A    
C6    C7    D    
C11   C38   A    
O26   P4    S    
C21   C22   A    
C16   H49   S    
O3    P5    S    
O6    P7    D    
C1    H7    S    
C7    C8    S    
O19   P2    D    
Ba1   O15   S    
C43   H40   S    
C37   C43   A    
C51   H43   S    
O4    P1    S    
C64   C65   S    
C30   P6    S    
O30   P5    S    
C6    C14   D    
C60   O12   S    
C15   H42   S    
C65   H27   S    
C60   H61   S    
C40   O22   S    
C15   C31   D    
C63   O24   S    
C57   P5    S    
C56   H18   S    
Ba2   O25   S    
C54   N4    S    
C6    P4    S    
C14   H41   S    
C48   C49   A    
C64   H21   S    
C44   C46   A    
C51   C53   A    
C55   H48   S    
C4    C16   S    
C3    H33   S    
C44   H46   S    
C49   C50   A    
C17   C20   A    
C13   C39   A    
C40   I1    S    
C3    C5    S    
C18   C37   A    
C28   H50   S    
Ba1   P2    S    
C4    H26   S    
O15   P6    S    
C39   H35   S    
C63   H57   S    
Ba2   O27   S    
C9    C36   A    
C41   C42   A    
C27   O11   D    
C35   C36   A    
C29   C30   S    
C46   P2    S    
Ba1   O29   S    
C34   H13   S    
C9    C10   A    
C1    H2    S    
C1    H14   S    
C16   H15   S    
O18   P6    S    
C59   H59   S    
C45   H16   S    
O9    P8    S    
Ba1   O4    S    
C7    H28   S    
C1    C12   S    
Ba2   P4    S    
C47   H44   S    
O25   P4    D    
C46   C47   A    
C61   H3    S    
Ba1   O26   S    
C53   C55   A    
C59   H45   S    
O12   P2    S    
C12   H1    S    
C26   N2    Am   
O7    P7    S    
C45   O3    S    
C12   H6    S    
O1    P1    D    
C18   C41   A    
Ba1   O1    S    
C51   C54   A    
C15   C30   S    
Ba2   O30   S    
C5    C14   S    
O5    P2    S    
O23   P3    S    
O2    P5    D    
C52   H34   S    
C28   C40   S    
C58   O24   S    
C34   H11   S    
C56   H20   S    
C16   H47   S    
C38   H32   S    
C49   I3    S    
C52   C59   S    
C42   H38   S    
C61   H5    S    
C62   H52   S    
C23   H8    S    
Ba2   O4    S    
C63   H58   S    
C2    C13   A    
C3    C8    D    
C34   H10   S    
C12   O18   S    
C45   C56   S    
C60   H60   S    
Ba2   O6    S    
C65   H24   S    
C4    H37   S    
C31   C32   D    
C27   N2    Am   
C29   C33   D    
C63   H55   S    
C11   H29   S    
C62   O22   S    
Ba1   O5    S    
C23   C34   S    
C54   C58   A    
C57   C58   A    
C61   H4    S    
C18   C19   A    
C47   C48   A    
O8    P8    D    
C25   C26   A    
C65   H25   S    
Ba2   O5    S    
C39   C43   A    
C20   C21   A    
C31   P1    S    
C10   C11   A    
O27   P8    S    
O17   P1    S    
C2    N1    Am   
