data_mof_unit_26106.cif
_audit_creation_date              2012-10-26T18:53:17-0400
_audit_creation_method            fapswitch 2.2
_symmetry_space_group_name_H-M    P1
_symmetry_Int_Tables_number       1
_space_group_crystal_system       triclinic
_cell_length_a                    14.760544
_cell_length_b                    15.084226
_cell_length_c                    15.898003
_cell_angle_alpha                 75.213535
_cell_angle_beta                  103.734821
_cell_angle_gamma                 115.538238
_cell_volume                      3055.00028088

loop_
_atom_site_label
_atom_site_type_symbol
_atom_type_description
_atom_site_fract_x
_atom_site_fract_y
_atom_site_fract_z
_atom_type_partial_charge
C1    C     C_R   0.879796 0.312735 0.516124 0.544212
C2    C     C_R   0.186813 0.793817 0.460247 -0.009144
C3    C     C_R   0.771712 0.039230 0.618758 -0.128071
C4    C     C_R   0.001484 0.501324 0.659628 0.511443
C5    C     C_R   0.844098 0.133912 0.590271 0.257008
C6    C     C_R   0.706875 0.179851 0.502585 -0.141765
C7    C     C_R   0.632920 0.085787 0.531824 0.008576
C8    C     C_R   0.667819 0.015035 0.590104 -0.052744
C9    C     C_R   0.526077 0.058727 0.504017 -0.055152
C10   C     C_R   0.458947 0.956652 0.524660 -0.028422
C11   C     C_R   0.495966 0.890562 0.589610 0.293650
C12   C     C_3   0.053319 0.433905 0.077792 0.637045
C13   C     C_R   0.599138 0.920114 0.619982 -0.120973
C14   C     C_R   0.482661 0.129091 0.459126 0.376754
C15   C     C_R   0.378348 0.099071 0.432606 0.319423
C16   C     C_R   0.119815 0.686940 0.479487 0.556405
C17   C     C_R   0.315058 0.997460 0.442079 -0.114000
C18   C     C_R   0.355910 0.925498 0.483382 -0.052985
C19   C     C_R   0.211340 0.966875 0.409330 -0.138762
C20   C     C_R   0.146325 0.866555 0.421264 0.197586
C21   C     C_R   0.293203 0.824639 0.476695 0.257180
C22   C     C_R   0.688491 0.621749 0.330182 -0.088137
C23   C     C_3   0.003146 0.505300 0.082070 0.048203
C24   C     C_R   0.778134 0.608311 0.360383 0.515369
C25   C     C_R   0.727389 0.529338 0.500518 0.002844
C26   C     C_R   0.630986 0.536021 0.472906 -0.039516
C27   C     C_R   0.613749 0.583745 0.384632 -0.003107
C28   C     C_R   0.999619 0.500508 0.340143 0.540286
C29   C     C_R   0.550721 0.496280 0.526776 -0.037587
C30   C     C_R   0.457684 0.510467 0.489743 -0.098400
C31   C     C_R   0.444124 0.551918 0.399897 -0.084658
C32   C     C_R   0.520737 0.589953 0.349370 0.352507
C33   C     C_R   0.555538 0.438459 0.613426 0.261437
C34   C     C_3   0.064429 0.614363 0.037033 0.509781
C35   C     C_R   0.474994 0.402475 0.661390 0.368135
C36   C     C_R   0.385491 0.416402 0.625335 -0.035812
C37   C     C_R   0.376529 0.473928 0.540683 -0.052676
C38   C     C_R   0.302727 0.369448 0.672224 -0.162377
C39   C     C_R   0.212079 0.380035 0.635562 -0.037230
C40   C     C_3   0.053551 0.433068 0.978874 0.578620
C41   C     C_R   0.284105 0.488771 0.510494 0.532349
C42   C     C_3   0.894930 0.471863 0.932909 0.065027
C43   C     C_3   0.893273 0.469496 0.031020 0.195429
C44   C     C_1   0.999214 0.502054 0.249997 0.039894
C45   C     C_3   0.069024 0.614332 0.939421 0.203698
C46   C     C_3   0.006837 0.506874 0.917107 -0.008977
C47   C     C_3   0.193928 0.393075 0.150316 0.104249
C48   C     C_3   0.193643 0.353765 0.248504 -0.367802
C49   C     C_3   0.067134 0.750971 0.087523 0.032130
C50   C     C_3   0.004727 0.811177 0.080869 -0.395180
C51   C     C_3   0.373669 0.785448 0.393130 0.043665
C52   C     C_3   0.481614 0.790344 0.411074 -0.331010
C53   C     C_3   0.021235 0.855147 0.302462 0.015168
C54   C     C_3   0.927150 0.879091 0.273160 -0.327730
C55   C     C_3   0.281117 0.178710 0.444599 -0.021694
C56   C     C_1   0.000155 0.503568 0.174299 0.118082
C57   C     C_3   0.332937 0.278954 0.472676 -0.342469
C58   C     C_3   0.978440 0.090508 0.600714 -0.005674
C59   C     C_3   0.092151 0.139022 0.598811 -0.369338
C60   C     C_3   0.039119 0.299341 0.916197 0.033994
C61   C     C_3   0.960352 0.205364 0.882848 -0.382183
C62   C     C_3   0.386078 0.796604 0.688692 -0.019396
C63   C     C_3   0.314147 0.690499 0.720216 -0.336263
C64   C     C_3   0.745391 0.490531 0.859756 0.020318
C65   C     C_3   0.702708 0.566510 0.805605 -0.321335
C66   C     C_3   0.618850 0.318865 0.640500 -0.005900
C67   C     C_1   0.006883 0.507287 0.824510 0.041784
C68   C     C_3   0.705717 0.288894 0.690826 -0.367866
C69   C     C_3   0.214215 0.754079 0.900733 0.018801
C70   C     C_3   0.328743 0.792190 0.927670 -0.318136
C71   C     C_1   0.004941 0.504984 0.749118 -0.017613
C72   C     C_R   0.810500 0.206509 0.535258 -0.007074
Cu1   Cu    Cu3+1 0.081750 0.475690 0.522550 1.043313
Cu2   Cu    Cu3+1 0.918250 0.524310 0.477450 1.050125
F1    F     F_    0.995722 0.338421 0.118777 -0.587251
F2    F     F_    0.153838 0.465224 0.965074 -0.618482
F3    F     F_    0.537122 0.228862 0.447025 -0.663149
F4    F     F_    0.501885 0.630304 0.263597 -0.637052
F5    F     F_    0.274064 0.558339 0.440686 -0.636948
F6    F     F_    0.483882 0.349646 0.744013 -0.651706
F7    F     F_    0.846798 0.641059 0.304760 -0.645634
F8    F     F_    0.834002 0.373945 0.068812 -0.587270
F9    F     F_    0.163105 0.648187 0.082766 -0.594875
H1    H     H_    0.625710 0.867000 0.666726 0.124705
H2    H     H_    0.852133 0.394675 0.917706 0.196331
H3    H     H_    0.856777 0.518855 0.035309 0.192387
H4    H     H_    0.031570 0.662844 0.893931 0.143276
H5    H     H_    0.273840 0.427761 0.137624 0.190960
H6    H     H_    0.153974 0.329849 0.113256 0.166716
H7    H     H_    0.114767 0.316295 0.263881 0.194966
H8    H     H_    0.229858 0.299159 0.269058 0.120789
H9    H     H_    0.236809 0.416151 0.285870 0.170883
H10   H     H_    0.140323 0.802894 0.063717 0.171106
H11   H     H_    0.081562 0.717425 0.157706 0.165047
H12   H     H_    0.796569 0.984505 0.664546 0.102361
H13   H     H_    0.933323 0.762815 0.108795 0.183879
H14   H     H_    0.048865 0.873767 0.117774 0.079826
H15   H     H_    0.985849 0.842412 0.010960 0.163642
H16   H     H_    0.374267 0.857698 0.351762 0.089853
H17   H     H_    0.325133 0.726971 0.352683 0.208354
H18   H     H_    0.486986 0.725570 0.460926 0.198332
H19   H     H_    0.504228 0.790047 0.349373 0.142047
H20   H     H_    0.535070 0.859960 0.435881 0.138034
H21   H     H_    0.007241 0.785730 0.280237 0.199374
H22   H     H_    0.083116 0.917177 0.268295 0.091679
H23   H     H_    0.687172 0.233770 0.452040 0.227543
H24   H     H_    0.943972 0.952945 0.288497 0.144698
H25   H     H_    0.903755 0.881371 0.201165 0.110176
H26   H     H_    0.863729 0.821850 0.307738 0.190986
H27   H     H_    0.265713 0.120095 0.504881 0.106767
H28   H     H_    0.206477 0.173512 0.405338 0.127646
H29   H     H_    0.348276 0.338717 0.413978 0.176111
H30   H     H_    0.281971 0.286832 0.508697 0.084236
H31   H     H_    0.405345 0.284222 0.516156 0.172074
H32   H     H_    0.940763 0.068353 0.535229 0.133437
H33   H     H_    0.962476 0.022713 0.652588 0.127761
H34   H     H_    0.178403 0.020197 0.375337 0.155571
H35   H     H_    0.117511 0.086091 0.583755 0.090277
H36   H     H_    0.110357 0.206849 0.547162 0.163591
H37   H     H_    0.133105 0.159622 0.663727 0.151185
H38   H     H_    0.101011 0.280977 0.961675 0.165395
H39   H     H_    0.070392 0.354887 0.858313 0.168188
H40   H     H_    0.897938 0.222190 0.836864 0.155829
H41   H     H_    0.996012 0.176979 0.847506 0.113272
H42   H     H_    0.928522 0.146876 0.938904 0.175308
H43   H     H_    0.340905 0.843476 0.663254 0.116113
H44   H     H_    0.443305 0.825470 0.745514 0.119613
H45   H     H_    0.148638 0.344627 0.672184 0.158408
H46   H     H_    0.357817 0.643399 0.752157 0.171679
H47   H     H_    0.270034 0.689990 0.767877 0.124310
H48   H     H_    0.260020 0.658125 0.663773 0.201992
H49   H     H_    0.711400 0.458359 0.921737 0.172860
H50   H     H_    0.723262 0.430265 0.821479 0.199974
H51   H     H_    0.731902 0.596798 0.741503 0.173060
H52   H     H_    0.618608 0.530600 0.793330 0.163421
H53   H     H_    0.725394 0.628757 0.841608 0.149349
H54   H     H_    0.614482 0.320032 0.569580 0.198341
H55   H     H_    0.547178 0.261227 0.663826 0.178342
H56   H     H_    0.676599 0.658880 0.263032 0.184059
H57   H     H_    0.711872 0.286188 0.762326 0.161521
H58   H     H_    0.691648 0.213934 0.679869 0.115086
H59   H     H_    0.778350 0.343376 0.667856 0.164027
H60   H     H_    0.185374 0.792604 0.932549 0.136092
H61   H     H_    0.196808 0.774402 0.828241 0.097892
H62   H     H_    0.361357 0.754300 0.899436 0.160409
H63   H     H_    0.363737 0.873813 0.903785 0.080037
H64   H     H_    0.347008 0.777437 0.000462 0.219314
H65   H     H_    0.751257 0.499036 0.565672 0.202386
H66   H     H_    0.372812 0.551960 0.364038 0.214394
H67   H     H_    0.307236 0.323642 0.736518 0.178538
N1    N     N_R   0.795410 0.560790 0.443550 -0.231008
N2    N     N_R   0.204590 0.439170 0.556520 -0.219749
O1    O     O_R   0.977910 0.338120 0.529720 -0.461481
O2    O     O_3   0.012638 0.676152 0.035090 -0.614051
O3    O     O_3   0.335393 0.759480 0.473924 -0.455709
O4    O     O_3   0.043133 0.840953 0.395426 -0.527506
O5    O     O_3   0.340457 0.171151 0.390718 -0.516294
O6    O     O_3   0.946855 0.158406 0.620235 -0.552723
O7    O     O_3   0.992607 0.334291 0.961263 -0.539913
O8    O     O_3   0.433739 0.794528 0.622572 -0.504249
O9    O     O_3   0.852144 0.538504 0.877240 -0.606080
O10   O     O_3   0.637674 0.414637 0.654408 -0.583906
O11   O     O_3   0.171293 0.648944 0.925475 -0.462602
O12   O     O_R   0.839850 0.379180 0.491640 -0.521389
O13   O     O_R   0.069060 0.479460 0.639610 -0.524918
O14   O     O_R   0.931000 0.520530 0.601530 -0.522804
O15   O     O_R   0.160150 0.620820 0.508360 -0.426228
O16   O     O_R   0.022090 0.661880 0.470280 -0.438493
O17   O     O_R   0.069000 0.479470 0.398470 -0.457884
O18   O     O_R   0.930940 0.520540 0.360390 -0.428584
O19   O     O_3   0.154104 0.467877 0.124036 -0.465206

loop_
_geom_bond_atom_site_label_1
_geom_bond_atom_site_label_2
_ccdc_geom_bond_type
C66   C68   S    
C52   H20   S    
C59   H37   S    
C18   C21   A    
Cu1   Cu2   S    
C40   O7    S    
C35   C36   A    
C60   O7    S    
Cu1   O15   S    
Cu2   O16   S    
C42   O9    S    
C23   C56   S    
C41   N2    A    
C53   C54   S    
C69   H61   S    
C40   C46   S    
C66   H54   S    
C13   H1    S    
C52   H19   S    
C26   C27   A    
C29   C30   A    
C54   H24   S    
C61   H41   S    
C36   C37   A    
C45   H4    S    
C16   O16   A    
C15   O5    S    
C5    C72   A    
C62   H44   S    
C31   H66   S    
C63   H47   S    
C57   H29   S    
C16   O15   A    
C29   C33   A    
C35   F6    S    
C23   C43   S    
C4    O13   A    
C66   O10   S    
C15   C17   A    
C42   C46   S    
C14   F3    S    
C17   C19   A    
C64   H49   S    
C1    O12   A    
C48   H8    S    
C68   H59   S    
C70   H63   S    
C63   H48   S    
C49   H11   S    
C2    C16   S    
C9    C10   A    
C67   C71   T    
C65   H51   S    
C48   H7    S    
C58   H33   S    
C47   H6    S    
C60   H38   S    
C11   O8    S    
C12   O19   S    
C34   O2    S    
C51   H16   S    
C52   H18   S    
C50   H15   S    
C1    C72   S    
Cu2   O18   S    
C2    C20   A    
C51   C52   S    
C49   O2    S    
C7    C8    A    
Cu1   O13   S    
C3    C8    A    
C58   O6    S    
C12   C23   S    
C62   H43   S    
C57   H30   S    
C25   C26   A    
C45   C46   S    
C22   H56   S    
C28   C44   S    
C40   F2    S    
C54   H26   S    
C60   C61   S    
C12   C40   S    
C6    C72   A    
C9    C14   A    
C62   C63   S    
C24   N1    A    
C44   C56   T    
C47   C48   S    
C66   H55   S    
C24   F7    S    
C30   C31   A    
C23   C34   S    
C51   O3    S    
C2    C21   A    
C17   C18   A    
C21   O3    S    
C61   H40   S    
C68   H58   S    
C42   H2    S    
C60   H39   S    
C6    H23   S    
C65   H52   S    
C34   C45   S    
C26   C29   A    
C28   O18   A    
C5    O6    S    
C59   H35   S    
C22   C27   A    
C55   C57   S    
C55   H27   S    
C48   H9    S    
C58   H32   S    
C22   C24   A    
Cu2   N1    S    
C68   H57   S    
C61   H42   S    
C42   C43   S    
Cu1   O17   S    
Cu2   O14   S    
C51   H17   S    
C7    C9    A    
C64   H50   S    
C50   H14   S    
C59   H36   S    
C39   H45   S    
C20   O4    S    
C55   H28   S    
C27   C32   A    
C43   H3    S    
C70   H62   S    
C31   C32   A    
C69   O11   S    
C64   O9    S    
C3    C5    A    
C41   F5    S    
C47   O19   S    
C6    C7    A    
C69   H60   S    
C54   H25   S    
C25   N1    A    
C64   C65   S    
C19   C20   A    
C36   C38   A    
C33   O10   S    
C45   O11   S    
C46   C67   S    
Cu1   N2    S    
C30   C37   A    
C47   H5    S    
Cu2   O12   S    
C11   C13   A    
C50   H13   S    
C38   C39   A    
C57   H31   S    
C10   C18   A    
C39   N2    A    
C33   C35   A    
C4    O14   A    
C25   H65   S    
C62   O8    S    
C63   H46   S    
C37   C41   A    
C69   C70   S    
C58   C59   S    
C1    O1    A    
C65   H53   S    
C10   C11   A    
C32   F4    S    
C8    C13   A    
C53   H22   S    
C28   O17   A    
C55   O5    S    
C19   H34   S    
C53   O4    S    
C49   C50   S    
C34   F9    S    
C12   F1    S    
Cu1   O1    S    
C43   F8    S    
C14   C15   A    
C3    H12   S    
C70   H64   S    
C53   H21   S    
C49   H10   S    
C38   H67   S    
C4    C71   S    
