data_mof_unit_47212.cif
_audit_creation_date              2012-12-11T17:12:50-0500
_audit_creation_method            fapswitch 2.2
_symmetry_space_group_name_H-M    P1
_symmetry_Int_Tables_number       1
_space_group_crystal_system       triclinic
_cell_length_a                    17.274017
_cell_length_b                    6.877044
_cell_length_c                    14.430712
_cell_angle_alpha                 90.002644
_cell_angle_beta                  110.279989
_cell_angle_gamma                 89.997677
_cell_volume                      1608.01610743

loop_
_atom_site_label
_atom_site_type_symbol
_atom_type_description
_atom_site_fract_x
_atom_site_fract_y
_atom_site_fract_z
_atom_type_partial_charge
O1    O     O_R   0.314130 0.635770 0.168990 -0.546506
O2    O     O_R   0.685870 0.364230 0.831010 -0.546506
O3    O     O_R   0.185870 0.135770 0.331010 -0.546526
O4    O     O_R   0.814130 0.864230 0.668990 -0.546526
O5    O     O_R   0.146800 0.302460 0.139760 -0.542861
O6    O     O_R   0.853200 0.697540 0.860240 -0.542861
O7    O     O_R   0.353200 0.802460 0.360240 -0.542845
O8    O     O_R   0.646800 0.197540 0.639760 -0.542845
C1    C     C_R   0.113981 0.475856 0.112769 0.751194
C2    C     C_R   0.886019 0.524144 0.887231 0.751194
C3    C     C_R   0.386019 0.975856 0.387231 0.751276
C4    C     C_R   0.613981 0.024144 0.612769 0.751276
O9    O     O_R   0.311100 0.305780 0.157130 -0.515868
O10   O     O_R   0.688900 0.694220 0.842870 -0.515868
O11   O     O_R   0.188900 0.805780 0.342870 -0.515751
O12   O     O_R   0.811100 0.194220 0.657130 -0.515751
O13   O     O_R   0.351340 0.139640 0.348510 -0.531556
O14   O     O_R   0.648660 0.860360 0.651490 -0.531556
O15   O     O_R   0.148660 0.639640 0.151490 -0.531616
O16   O     O_R   0.851340 0.360360 0.848510 -0.531616
C5    C     C_R   0.334269 0.475666 0.137446 0.761387
C6    C     C_R   0.665731 0.524333 0.862554 0.761387
C7    C     C_R   0.165736 0.975681 0.362561 0.761317
C8    C     C_R   0.834264 0.024319 0.637439 0.761317
C9    C     C_1   0.533563 0.008884 0.533043 -0.141610
C10   C     C_1   0.466437 0.991116 0.466957 -0.141609
C11   C     C_1   0.966437 0.508884 0.966957 -0.141946
C12   C     C_1   0.033563 0.491116 0.033043 -0.141946
O17   O     O_3   0.263010 0.470920 0.312770 -0.370999
O18   O     O_3   0.736990 0.529080 0.687230 -0.370999
O19   O     O_3   0.236990 0.970920 0.187230 -0.371102
O20   O     O_3   0.763010 0.029080 0.812770 -0.371102
V1    V     V_3+5 0.247590 0.194450 0.238360 1.534888
V2    V     V_3+5 0.752410 0.805550 0.761640 1.534888
V3    V     V_3+5 0.252410 0.694450 0.261640 1.534981
V4    V     V_3+5 0.747590 0.305550 0.738360 1.534981
C13   C     C_R   0.114434 0.995308 0.425853 -0.125818
C14   C     C_R   0.885566 0.004692 0.574147 -0.125818
C15   C     C_R   0.385556 0.495223 0.074137 -0.125622
C16   C     C_R   0.614444 0.504777 0.925863 -0.125622
C17   C     C_R   0.924980 0.797008 0.461203 -0.084749
C18   C     C_R   0.075020 0.202992 0.538797 -0.084749
C19   C     C_R   0.575302 0.297583 0.039201 -0.084903
C20   C     C_R   0.424698 0.702417 0.960799 -0.084903
C21   C     C_R   0.872463 0.840879 0.512590 -0.202314
C22   C     C_R   0.127537 0.159120 0.487410 -0.202314
C23   C     C_R   0.627761 0.341377 0.987722 -0.202798
C24   C     C_R   0.372239 0.658623 0.012278 -0.202798
C25   C     C_R   0.952566 0.129475 0.582271 0.327246
C26   C     C_R   0.047433 0.870525 0.417729 0.327245
C27   C     C_R   0.547266 0.629194 0.917482 0.327313
C28   C     C_R   0.452734 0.370806 0.082518 0.327313
C29   C     C_R   0.006809 0.084348 0.530415 0.028126
C30   C     C_R   0.993190 0.915652 0.469585 0.028126
C31   C     C_R   0.493075 0.584132 0.969418 0.028271
C32   C     C_R   0.506925 0.415868 0.030582 0.028271
H1    H     H_    0.178428 0.257100 0.494530 0.155066
H2    H     H_    0.821571 0.742900 0.505470 0.155066
H3    H     H_    0.321212 0.756316 0.004977 0.154664
H4    H     H_    0.678788 0.243684 0.995022 0.154664
H5    H     H_    0.911789 0.667416 0.415960 0.192340
H6    H     H_    0.088211 0.332584 0.584040 0.192340
H7    H     H_    0.588670 0.168335 0.084707 0.192194
H8    H     H_    0.411330 0.831665 0.915293 0.192194
Cl1   Cl    Cl    0.028731 0.665922 0.338195 -0.687547
Cl2   Cl    Cl    0.971269 0.334078 0.661805 -0.687547
Cl3   Cl    Cl    0.471708 0.166797 0.162475 -0.687328
Cl4   Cl    Cl    0.528292 0.833203 0.837525 -0.687328

loop_
_geom_bond_atom_site_label_1
_geom_bond_atom_site_label_2
_ccdc_geom_bond_type
C2    C11   S    
O10   V2    S    
C16   C23   A    
C8    C14   S    
C31   C32   A    
O19   V1    S    
O2    C6    A    
C17   H5    S    
C16   C27   A    
O17   V3    S    
O3    C7    A    
C5    C15   S    
O18   V4    S    
C4    C9    S    
O8    C4    A    
C6    C16   S    
O10   C6    A    
O11   C7    A    
C15   C28   A    
C9    C10   T    
O9    C5    A    
C20   C24   A    
O12   C8    A    
C14   C25   A    
O15   V3    S    
C29   C30   A    
C20   H8    S    
O1    C5    A    
C13   C26   A    
O14   V2    S    
C20   C31   A    
O7    V3    S    
O5    C1    A    
C26   C30   A    
C28   Cl3   S    
C28   C32   A    
C25   C29   A    
O20   V4    S    
O19   V3    S    
O11   V3    S    
O7    C3    A    
C27   C31   A    
C27   Cl4   S    
C18   C29   A    
C18   C22   A    
O4    C8    A    
C26   Cl1   S    
O4    V2    S    
C17   C30   A    
O6    C2    A    
O18   V2    S    
C19   H7    S    
C21   H2    S    
O16   V4    S    
O5    V1    S    
O17   V1    S    
C19   C32   A    
C23   H4    S    
O2    V4    S    
O1    V3    S    
C24   H3    S    
O9    V1    S    
O8    V4    S    
C4    O14   A    
C11   C12   T    
C18   H6    S    
O3    V1    S    
C3    O13   A    
C14   C21   A    
C17   C21   A    
C3    C10   S    
O13   V1    S    
C13   C22   A    
C7    C13   S    
C19   C23   A    
C22   H1    S    
C1    O15   A    
O12   V4    S    
O6    V2    S    
C1    C12   S    
C2    O16   A    
C25   Cl2   S    
C15   C24   A    
O20   V2    S    
