data_mof_unit_9581.cif
_audit_creation_date              2012-12-11T14:58:20-0500
_audit_creation_method            fapswitch 2.2
_symmetry_space_group_name_H-M    P1
_symmetry_Int_Tables_number       1
_space_group_crystal_system       triclinic
_cell_length_a                    10.948324
_cell_length_b                    10.990543
_cell_length_c                    18.67808
_cell_angle_alpha                 90.130471
_cell_angle_beta                  90.602911
_cell_angle_gamma                 59.745987
_cell_volume                      1941.26857585

loop_
_atom_site_label
_atom_site_type_symbol
_atom_type_description
_atom_site_fract_x
_atom_site_fract_y
_atom_site_fract_z
_atom_type_partial_charge
C1    C     C_R   0.357400 0.776613 0.398635 0.524666
C2    C     C_R   0.625957 0.129984 0.153600 0.057390
C3    C     C_R   0.377351 0.344156 0.154528 0.002746
C4    C     C_R   0.516915 0.266213 0.264981 0.070110
C5    C     C_R   0.505071 0.249278 0.191150 -0.029954
C6    C     C_R   0.101740 0.708395 0.308499 -0.069799
C7    C     C_R   0.966079 0.807425 0.331898 -0.113405
C8    C     C_R   0.672751 0.990159 0.174181 -0.088606
C9    C     C_R   0.777447 0.877735 0.135522 -0.128623
C10   C     C_R   0.276416 0.466772 0.189217 -0.028440
C11   C     C_R   0.276665 0.469900 0.264487 -0.095147
C12   C     C_R   0.416425 0.378240 0.382065 0.583370
C13   C     C_R   0.865960 0.766524 0.342078 -0.121400
C14   C     C_R   0.901692 0.628110 0.327868 -0.109486
C15   C     C_R   0.039070 0.529744 0.306995 -0.069467
C16   C     C_R   0.141116 0.568326 0.299229 0.039566
C17   C     C_R   0.399354 0.369942 0.303358 0.034586
C18   C     C_R   0.910036 0.308455 0.309354 -0.018547
C19   C     C_R   0.953397 0.291912 0.238378 -0.109872
C20   C     C_R   0.854339 0.342801 0.182472 0.020736
C21   C     C_R   0.710429 0.425855 0.196158 -0.151160
C22   C     C_R   0.665532 0.450812 0.266672 -0.160087
C23   C     C_R   0.713152 0.416086 0.394836 0.523837
C24   C     C_R   0.764045 0.387752 0.322704 0.003143
C25   C     C_R   0.454361 0.827975 0.290427 -0.146244
C26   C     C_R   0.433159 0.868412 0.218622 -0.164830
C27   C     C_R   0.296640 0.932530 0.189032 0.051132
C28   C     C_R   0.180409 0.963020 0.233490 0.068845
C29   C     C_R   0.202263 0.939722 0.306630 -0.069271
C30   C     C_R   0.338039 0.857066 0.333333 0.033492
C31   C     C_R   0.375781 0.199903 0.692483 -0.137153
C32   C     C_R   0.364329 0.186225 0.764837 -0.124897
C33   C     C_R   0.296945 0.306582 0.808459 0.030408
C34   C     C_R   0.344846 0.769135 0.604595 0.552470
C35   C     C_R   0.229278 0.440921 0.778600 -0.158650
C36   C     C_R   0.239164 0.454807 0.705659 -0.136879
C37   C     C_R   0.319135 0.334039 0.663369 0.031350
C38   C     C_R   0.909579 0.392904 0.706950 -0.127828
C39   C     C_R   0.946304 0.374832 0.778649 -0.131965
C40   C     C_R   0.923493 0.283000 0.820569 0.027500
C41   C     C_R   0.874369 0.199833 0.788624 -0.134399
C42   C     C_R   0.834968 0.219660 0.716561 -0.137146
C43   C     C_R   0.845832 0.321805 0.676538 0.027000
C44   C     C_R   0.195948 0.848889 0.711024 -0.137850
C45   C     C_R   0.368245 0.350442 0.594977 0.563218
C46   C     C_R   0.186258 0.858228 0.784508 -0.137612
C47   C     C_R   0.301232 0.842064 0.825639 0.035036
C48   C     C_R   0.427965 0.811135 0.792727 -0.141556
C49   C     C_R   0.438348 0.800087 0.719069 -0.142127
C50   C     C_R   0.322700 0.817563 0.677890 0.029973
C51   C     C_R   0.907214 0.317848 0.110611 0.542694
C52   C     C_R   0.332768 0.297075 0.090032 0.571395
C53   C     C_R   0.271921 0.961727 0.112228 0.587247
C54   C     C_R   0.948874 0.280402 0.897321 0.567261
C55   C     C_R   0.292776 0.285207 0.884002 0.546018
C56   C     C_R   0.769143 0.373387 0.608936 0.551739
C57   C     C_R   0.276106 0.892823 0.898366 0.557916
C58   C     C_R   0.835898 0.903643 0.075503 -0.109125
C59   C     C_R   0.789894 0.042031 0.054360 -0.070736
C60   C     C_R   0.686313 0.155083 0.093488 -0.050992
Cr1   Cr    Cr6+3 0.601770 0.606860 0.505860 1.006847
Cr2   Cr    Cr6+3 0.291380 0.601660 0.495070 1.027955
Cr3   Cr    Cr6+3 0.606880 0.291510 0.499120 1.023715
Cr4   Cr    Cr6+3 0.062440 0.063090 0.008210 1.007837
Cr5   Cr    Cr6+3 0.062880 0.375170 0.998920 1.027155
Cr6   Cr    Cr6+3 0.374700 0.061720 0.992470 1.015964
H1    H     H_    0.759811 0.842553 0.358483 0.112371
H2    H     H_    0.821653 0.599167 0.330618 0.145303
H3    H     H_    0.066163 0.425671 0.292025 0.162318
H4    H     H_    0.065014 0.238658 0.226097 0.154685
H5    H     H_    0.633980 0.471424 0.152770 0.126303
H6    H     H_    0.553876 0.516846 0.277660 0.103466
H7    H     H_    0.561513 0.764715 0.310585 0.123268
H8    H     H_    0.523790 0.837733 0.184956 0.131823
H9    H     H_    0.811271 0.770617 0.151455 0.115601
H10   H     H_    0.113635 0.965223 0.340899 0.119599
H11   H     H_    0.435918 0.106418 0.660270 0.126938
H12   H     H_    0.411777 0.080939 0.786996 0.140487
H13   H     H_    0.173534 0.533851 0.811671 0.123996
H14   H     H_    0.194061 0.560082 0.683661 0.141632
H15   H     H_    0.921627 0.470240 0.676774 0.135085
H16   H     H_    0.985598 0.438498 0.802347 0.135796
H17   H     H_    0.858561 0.126192 0.819932 0.125839
H18   H     H_    0.786933 0.162780 0.693816 0.132022
H19   H     H_    0.105717 0.861208 0.680446 0.129319
H20   H     H_    0.936280 0.916183 0.339875 0.104247
H21   H     H_    0.086426 0.884520 0.808641 0.127033
H22   H     H_    0.517170 0.800294 0.823718 0.130161
H23   H     H_    0.538280 0.773142 0.694797 0.136581
H24   H     H_    0.915676 0.816606 0.044901 0.143177
H25   H     H_    0.833303 0.061436 0.007030 0.147344
H26   H     H_    0.650169 0.261795 0.075814 0.106034
H27   H     H_    0.176811 0.737335 0.293221 0.119039
H28   H     H_    0.625714 0.968126 0.219153 0.102607
O1    O     O_R   0.748800 0.497470 0.428000 -0.534520
O2    O     O_R   0.300070 0.471040 0.567100 -0.501652
O3    O     O_R   0.491670 0.258900 0.574910 -0.515032
O4    O     O_R   0.718780 0.304180 0.577850 -0.502837
O5    O     O_3   0.500010 0.500010 0.500020 -0.287343
O6    O     O_R   0.186690 0.923650 0.086970 -0.460969
O7    O     O_R   0.957250 0.194250 0.084630 -0.494915
O8    O     O_R   0.934970 0.407490 0.085330 -0.518036
O9    O     O_R   0.203780 0.365190 0.067090 -0.464902
O10   O     O_R   0.417600 0.174890 0.067840 -0.521018
O11   O     O_R   0.375320 0.946260 0.070860 -0.503215
O12   O     O_R   0.476420 0.724060 0.429470 -0.516018
O13   O     O_R   0.160600 0.919630 0.926660 -0.524054
O14   O     O_R   0.933060 0.190520 0.936020 -0.531578
O15   O     O_R   0.908880 0.403460 0.925020 -0.514257
O16   O     O_R   0.179600 0.361450 0.918490 -0.517215
O17   O     O_R   0.391510 0.170860 0.907530 -0.524373
O18   O     O_R   0.351130 0.942530 0.922260 -0.508788
O19   O     O_3   0.166667 0.166667 0.999870 -0.303775
O20   O     O_R   0.264580 0.744340 0.416750 -0.532326
O21   O     O_R   0.309380 0.472470 0.418200 -0.484394
O22   O     O_R   0.501710 0.260430 0.414300 -0.470973
O23   O     O_R   0.728090 0.305600 0.428960 -0.508000
O24   O     O_R   0.738760 0.495930 0.588610 -0.518122
O25   O     O_R   0.467110 0.722640 0.578360 -0.500731
O26   O     O_R   0.254530 0.742800 0.577360 -0.525703
N1    N     N_3   0.649069 0.178289 0.301724 -0.599438
H29   H     H_    0.661643 0.078855 0.309909 0.229954
H30   H     H_    0.732763 0.168553 0.271263 0.229053
C61   C     C_2   0.016594 0.250221 0.368902 0.209860
H31   H     H_    0.985161 0.245423 0.423142 0.157336
O27   O     O_2   0.141509 0.208285 0.358446 -0.534554
N2    N     N_3   0.043702 0.001633 0.203819 -0.591607
H32   H     H_    0.047478 0.908903 0.187298 0.249220
H33   H     H_    0.967011 0.042727 0.243470 0.204297
C62   C     C_2   0.169222 0.590490 0.146999 0.239785
H34   H     H_    0.066805 0.663146 0.168953 0.092817
O28   O     O_2   0.197188 0.615018 0.087530 -0.495116

loop_
_geom_bond_atom_site_label_1
_geom_bond_atom_site_label_2
_ccdc_geom_bond_type
C33   C55   S    
C52   O9    A    
C40   C41   A    
Cr6   O19   S    
Cr2   O2    S    
Cr1   O25   S    
C41   C42   A    
C35   C36   A    
C56   O4    A    
C10   C62   S    
C20   C51   S    
C29   H10   S    
C51   O8    A    
C26   C27   A    
C21   H5    S    
C18   C24   A    
C28   C29   A    
C18   C19   A    
Cr3   O4    S    
C38   C39   A    
Cr3   O23   S    
C2    C60   A    
C7    H20   S    
C15   C16   A    
C41   H17   S    
C34   O25   A    
Cr2   O21   S    
C9    C58   A    
Cr3   O5    S    
C26   H8    S    
C11   C17   A    
C31   C32   A    
C8    C9    A    
C12   C17   S    
C23   C24   S    
C48   H22   S    
Cr4   O14   S    
Cr6   O17   S    
Cr2   O26   S    
C28   N2    S    
C1    O12   A    
C12   O21   A    
C59   C60   A    
C21   C22   A    
Cr1   O5    S    
Cr5   O19   S    
Cr5   O8    S    
C22   H6    S    
C44   C46   A    
C31   H11   S    
C60   H26   S    
C53   O6    A    
C34   O26   A    
Cr4   O7    S    
C15   H3    S    
C34   C50   S    
Cr6   O10   S    
C8    H28   S    
C36   H14   S    
C39   C40   A    
C58   C59   A    
C6    C16   A    
C31   C37   A    
C54   O15   A    
C62   O28   D    
N2    H33   S    
C29   C30   A    
C47   C57   S    
C11   C16   S    
C47   C48   A    
C7    C13   A    
C6    H27   S    
C27   C53   S    
C42   H18   S    
C59   H25   S    
Cr1   O12   S    
C58   H24   S    
Cr5   O15   S    
N1    H29   S    
Cr3   O22   S    
C48   C49   A    
C57   O13   A    
C40   C54   S    
C38   H15   S    
C52   O10   A    
C22   C24   A    
C2    C5    S    
C1    O20   A    
C4    C17   A    
Cr6   O11   S    
C37   C45   S    
N2    H32   S    
Cr4   O13   S    
C61   O27   D    
C46   H21   S    
C13   H1    S    
C44   C50   A    
C25   C30   A    
C46   C47   A    
C36   C37   A    
C14   H2    S    
Cr4   O19   S    
C55   O17   A    
Cr1   O24   S    
C56   O24   A    
C2    C8    A    
C39   H16   S    
C49   H23   S    
C4    C5    A    
C3    C5    A    
C23   O23   A    
C3    C52   S    
Cr1   O1    S    
Cr2   O20   S    
C6    C7    A    
C51   O7    A    
C54   O14   A    
C32   C33   A    
C19   C20   A    
C62   H34   S    
C25   C26   A    
C38   C43   A    
C55   O16   A    
C3    C10   A    
C45   O3    A    
C35   H13   S    
C1    C30   S    
C33   C35   A    
C23   O1    A    
C4    N1    S    
C25   H7    S    
Cr5   O16   S    
N1    H30   S    
C10   C11   A    
C32   H12   S    
Cr2   O5    S    
C57   O18   A    
C53   O11   A    
C43   C56   S    
Cr4   O6    S    
C20   C21   A    
Cr3   O3    S    
C49   C50   A    
C42   C43   A    
C27   C28   A    
Cr5   O9    S    
C14   C15   A    
C19   H4    S    
C9    H9    S    
Cr6   O18   S    
C13   C14   A    
C45   O2    A    
C44   H19   S    
C18   C61   S    
C61   H31   S    
C12   O22   A    
