data_mof_unit_61830.cif
_audit_creation_date              2013-03-05T16:28:45-0500
_audit_creation_method            fapswitch 2.2
_symmetry_space_group_name_H-M    P1
_symmetry_Int_Tables_number       1
_space_group_crystal_system       triclinic
_cell_length_a                    19.370859
_cell_length_b                    18.110412
_cell_length_c                    23.57451
_cell_angle_alpha                 89.941557
_cell_angle_beta                  90.212576
_cell_angle_gamma                 90.179047
_cell_volume                      8270.17223795

loop_
_atom_site_label
_atom_site_type_symbol
_atom_site_description
_atom_site_fract_x
_atom_site_fract_y
_atom_site_fract_z
_atom_type_partial_charge
O1    O     O_R   0.400190 0.561980 0.499990 -0.580101
O2    O     O_R   0.599810 0.438020 0.500010 -0.555934
O3    O     O_R   0.599810 0.561980 0.500010 -0.588146
O4    O     O_R   0.400190 0.438020 0.499990 -0.547475
C1    C     C_R   0.367447 0.499894 0.499166 0.932937
C2    C     C_R   0.632390 0.500054 0.499603 0.943761
O5    O     O_R   0.499980 0.561970 0.417880 -0.546051
O6    O     O_R   0.500020 0.438030 0.582120 -0.544050
O7    O     O_R   0.500020 0.561970 0.582120 -0.525994
O8    O     O_R   0.499980 0.438030 0.417880 -0.529565
C3    C     C_R   0.499799 0.499973 0.390700 0.880128
C4    C     C_R   0.500234 0.499924 0.609323 0.934029
Cu1   Cu    Cu3+1 0.500000 0.573360 0.500000 1.015546
Cu2   Cu    Cu3+1 0.500000 0.426640 0.500000 1.045442
C5    C     C_R   0.561926 0.514114 0.880458 0.634945
C6    C     C_R   0.443266 0.477889 0.119326 0.624311
N1    N     N_R   0.502239 0.497559 0.852220 -0.430370
N2    N     N_R   0.502211 0.496441 0.147899 -0.427762
C7    C     C_R   0.443184 0.478788 0.880241 0.683394
C8    C     C_R   0.562330 0.511781 0.120156 0.677785
C9    C     C_R   0.443026 0.472668 0.939889 -0.180026
C10   C     C_R   0.564666 0.510370 0.060369 -0.162452
C11   C     C_R   0.503898 0.491553 0.970056 -0.133702
C12   C     C_R   0.504170 0.490601 0.030079 -0.134987
C13   C     C_R   0.563903 0.513378 0.940244 -0.155899
C14   C     C_R   0.443768 0.470349 0.059853 -0.177056
C15   C     C_R   0.384259 0.447488 0.969959 0.413487
C16   C     C_R   0.625493 0.528135 0.030245 0.392510
C17   C     C_R   0.385544 0.443967 0.029435 0.437643
C18   C     C_R   0.623991 0.533700 0.970818 0.388973
O9    O     O_2   0.619111 0.530443 0.850391 -0.465138
O10   O     O_2   0.384092 0.468839 0.148582 -0.480170
O11   O     O_2   0.384986 0.466530 0.850057 -0.465124
O12   O     O_2   0.619213 0.528923 0.150660 -0.465900
C19   C     C_R   0.495273 0.431924 0.238961 -0.295971
C20   C     C_R   0.504271 0.565289 0.762053 -0.254568
H1    H     H_    0.491404 0.379965 0.216443 0.200311
H2    H     H_    0.506377 0.616806 0.785292 0.212991
C21   C     C_R   0.494539 0.432300 0.298002 0.511803
C22   C     C_R   0.503700 0.566279 0.702902 0.570502
C23   C     C_R   0.499831 0.499573 0.327969 -0.413049
C24   C     C_R   0.500798 0.499481 0.672101 -0.388523
C25   C     C_R   0.505494 0.566160 0.297082 0.432391
C26   C     C_R   0.498677 0.432017 0.702215 0.446181
C27   C     C_R   0.506126 0.565147 0.237877 0.633332
C28   C     C_R   0.499229 0.431687 0.761347 0.612081
C29   C     C_R   0.501226 0.498018 0.208728 0.035918
C30   C     C_R   0.501902 0.498222 0.791380 0.036559
C31   C     C_R   0.748691 0.543416 0.530874 0.291286
C32   C     C_R   0.252190 0.554170 0.521605 0.296392
C33   C     C_R   0.258651 0.444846 0.461172 0.315117
C34   C     C_R   0.738750 0.456022 0.452345 0.322475
C35   C     C_R   0.820821 0.539346 0.527026 0.557651
C36   C     C_R   0.179971 0.550923 0.518485 0.515735
C37   C     C_R   0.186675 0.442815 0.458008 0.535358
C38   C     C_R   0.810635 0.453342 0.448482 0.475509
C39   C     C_R   0.851589 0.495036 0.485605 -0.138084
C40   C     C_R   0.147330 0.495830 0.486349 -0.197163
C41   C     C_R   0.707654 0.499755 0.494549 -0.396173
C42   C     C_R   0.291773 0.499387 0.494448 -0.408286
C43   C     C_R   0.962964 0.552225 0.457079 0.384231
C44   C     C_R   0.035510 0.433888 0.506508 0.371492
C45   C     C_R   0.035303 0.552274 0.456359 0.410164
C46   C     C_R   0.962955 0.431464 0.503451 0.346382
C47   C     C_R   0.071617 0.493594 0.482200 -0.087175
C48   C     C_R   0.927096 0.492421 0.481368 -0.074343
C49   C     C_R   0.461529 0.720495 0.460702 -0.036908
C50   C     C_R   0.540758 0.279017 0.537266 -0.010917
C51   C     C_R   0.538092 0.721486 0.539022 -0.008438
C52   C     C_R   0.458776 0.279449 0.462718 -0.001943
H3    H     H_    0.432397 0.689229 0.429703 0.178287
H4    H     H_    0.574124 0.310327 0.565172 0.168061
H5    H     H_    0.567885 0.691308 0.570154 0.196233
H6    H     H_    0.425768 0.311148 0.434921 0.191802
C53   C     C_R   0.459280 0.798492 0.459980 0.413542
C54   C     C_R   0.540025 0.200842 0.539368 0.363837
C55   C     C_R   0.539913 0.799177 0.538978 0.394538
C56   C     C_R   0.458518 0.201280 0.460506 0.371420
C57   C     C_R   0.499531 0.838757 0.499260 0.062414
C58   C     C_R   0.499063 0.161600 0.499897 0.119577
N3    N     N_R   0.500000 0.683620 0.500000 -0.234174
N4    N     N_R   0.500000 0.316380 0.500000 -0.220867
C59   C     C_R   0.475427 0.960993 0.546952 0.524769
C60   C     C_R   0.521829 0.039322 0.451933 0.507169
C61   C     C_R   0.521720 0.961704 0.451707 0.514824
C62   C     C_R   0.475474 0.038639 0.547159 0.510532
C63   C     C_R   0.498763 0.078747 0.499674 -0.234224
C64   C     C_R   0.498571 0.921584 0.499232 -0.296987
O13   O     O_3   0.323176 0.430894 0.941931 -0.508614
C65   C     C_3   0.322223 0.355483 0.926519 -0.125143
H7    H     H_    0.374426 0.331175 0.919734 0.130925
H8    H     H_    0.293403 0.349869 0.885994 0.213675
H9    H     H_    0.293663 0.323096 0.958784 0.155097
O14   O     O_3   0.686160 0.545136 0.058572 -0.527119
C66   C     C_3   0.727770 0.481366 0.060107 -0.150440
H10   H     H_    0.701024 0.434700 0.081716 0.143817
H11   H     H_    0.775220 0.494026 0.084763 0.193961
H12   H     H_    0.743971 0.464580 0.016783 0.175063
O15   O     O_3   0.421274 0.835953 0.419299 -0.502772
C67   C     C_3   0.350347 0.821650 0.427196 -0.251696
H13   H     H_    0.334578 0.828608 0.472298 0.143541
H14   H     H_    0.336403 0.765701 0.411588 0.141328
H15   H     H_    0.320462 0.862033 0.401708 0.217105
O16   O     O_3   0.583057 0.161361 0.575586 -0.576678
C68   C     C_3   0.578974 0.188302 0.631662 -0.095191
H16   H     H_    0.525072 0.201878 0.644249 0.217222
H17   H     H_    0.613440 0.236852 0.637401 0.152430
H18   H     H_    0.597469 0.144556 0.660913 0.198966
O17   O     O_3   0.578816 0.835390 0.579640 -0.516880
C69   C     C_3   0.642873 0.855188 0.555689 -0.237272
H19   H     H_    0.636647 0.899337 0.523322 0.172661
H20   H     H_    0.669595 0.806884 0.536766 0.122571
H21   H     H_    0.676643 0.877331 0.589791 0.208765
O18   O     O_3   0.414957 0.162116 0.424338 -0.560376
C70   C     C_3   0.417202 0.190612 0.368594 -0.109866
H22   H     H_    0.470542 0.205872 0.355303 0.204823
H23   H     H_    0.381787 0.238373 0.364150 0.154909
H24   H     H_    0.398674 0.147182 0.339043 0.196296
F1    F     F_    0.451667 0.924156 0.593140 -0.553514
F2    F     F_    0.545912 0.076122 0.405841 -0.583525
F3    F     F_    0.545932 0.925582 0.405475 -0.551256
F4    F     F_    0.451569 0.074782 0.593482 -0.581094
O19   O     O_3   0.328222 0.415762 0.056976 -0.502202
C71   C     C_3   0.341890 0.341891 0.072966 -0.211884
H25   H     H_    0.364144 0.308708 0.037814 0.103120
H26   H     H_    0.292587 0.315341 0.085544 0.199528
H27   H     H_    0.377349 0.339348 0.110012 0.174637
O20   O     O_3   0.683147 0.556360 0.942963 -0.532055
C72   C     C_3   0.684366 0.634250 0.941794 -0.127318
H28   H     H_    0.688995 0.657676 0.985251 0.175599
H29   H     H_    0.637909 0.656945 0.920031 0.148219
H30   H     H_    0.730295 0.652458 0.917485 0.196291
F5    F     F_    0.488580 0.366615 0.325374 -0.664748
F6    F     F_    0.506125 0.632691 0.676221 -0.605580
F7    F     F_    0.510791 0.632319 0.323815 -0.584965
F8    F     F_    0.496012 0.366133 0.674825 -0.617434
F9    F     F_    0.511177 0.629570 0.208701 -0.570405
F10   F     F_    0.497543 0.366417 0.789674 -0.602823
O21   O     O_3   0.718317 0.583285 0.574074 -0.526213
C73   C     C_3   0.721427 0.659022 0.560387 -0.170866
H31   H     H_    0.694008 0.690297 0.593813 0.186681
H32   H     H_    0.695359 0.670693 0.519181 0.130200
H33   H     H_    0.775472 0.679745 0.559489 0.212084
O22   O     O_3   0.283997 0.606699 0.555426 -0.507469
C74   C     C_3   0.283626 0.674962 0.526508 -0.126042
H34   H     H_    0.305133 0.670013 0.482940 0.094389
H35   H     H_    0.316868 0.714407 0.550147 0.186042
H36   H     H_    0.230803 0.698610 0.524646 0.206348
O23   O     O_3   0.296337 0.391936 0.432657 -0.519113
C75   C     C_3   0.310933 0.418751 0.377785 -0.202213
H37   H     H_    0.342126 0.376962 0.355103 0.201286
H38   H     H_    0.341846 0.470637 0.379398 0.108672
H39   H     H_    0.262727 0.427556 0.352877 0.182677
O24   O     O_3   0.698946 0.413673 0.415928 -0.506411
C76   C     C_3   0.685478 0.455473 0.366629 -0.162815
H40   H     H_    0.657301 0.507302 0.376685 0.113333
H41   H     H_    0.652062 0.422359 0.337958 0.200237
H42   H     H_    0.733954 0.468372 0.343388 0.179644
F11   F     F_    0.861001 0.576792 0.564665 -0.599952
F12   F     F_    0.141564 0.600184 0.548085 -0.595635
F13   F     F_    0.155185 0.389786 0.426348 -0.605652
F14   F     F_    0.840360 0.410970 0.407908 -0.650113
O25   O     O_3   0.927432 0.613838 0.438375 -0.514213
C77   C     C_3   0.910580 0.604352 0.380601 -0.247889
H43   H     H_    0.880079 0.553114 0.373150 0.163595
H44   H     H_    0.957639 0.604344 0.353843 0.171019
H45   H     H_    0.878242 0.651567 0.366828 0.199172
O26   O     O_3   0.071426 0.377792 0.533265 -0.540677
C78   C     C_3   0.074755 0.393540 0.591777 -0.181015
H46   H     H_    0.022448 0.394075 0.611116 0.194772
H47   H     H_    0.101738 0.446848 0.600001 0.176695
H48   H     H_    0.104860 0.349404 0.613038 0.193746
O27   O     O_3   0.069307 0.613358 0.434484 -0.499675
C79   C     C_3   0.101667 0.594569 0.382842 -0.264231
H49   H     H_    0.073483 0.551412 0.358110 0.141704
H50   H     H_    0.155557 0.576607 0.390721 0.144674
H51   H     H_    0.104152 0.644727 0.355883 0.198102
O28   O     O_3   0.926178 0.374184 0.528161 -0.561952
C80   C     C_3   0.934280 0.309439 0.495590 -0.115313
H52   H     H_    0.984123 0.282150 0.505455 0.199586
H53   H     H_    0.930008 0.319874 0.449128 0.197690
H54   H     H_    0.892531 0.270178 0.507078 0.183349

loop_
_geom_bond_atom_site_label_1
_geom_bond_atom_site_label_2
_geom_bond_distance
_ccdc_geom_bond_type
C54   O16   1.390061 S    
C60   F2    1.357505 S    
C44   O26   1.383418 S    
C45   C47   1.412625 A    
C26   F8    1.358015 S    
C38   F14   1.357816 S    
C76   H41   1.109324 S    
C78   H47   1.113243 S    
C78   H46   1.112687 S    
C51   C55   1.407347 A    
O25   C77   1.409949 S    
C60   C63   1.408366 A    
C39   C48   1.467309 S    
O3    C2    1.288653 A    
C19   C29   1.397161 A    
N2    C29   1.434536 S    
C74   H34   1.113605 S    
C66   H12   1.112484 S    
O19   C71   1.415067 S    
C21   C23   1.412229 A    
C56   O18   1.390758 S    
O27   C79   1.413749 S    
O5    C3    1.293315 A    
C68   H17   1.110440 S    
C77   H44   1.110464 S    
C32   C36   1.401675 A    
O1    C1    1.289358 A    
C10   C12   1.415288 A    
C77   H43   1.112274 S    
C19   H1    1.083140 S    
C73   H32   1.113499 S    
C72   H28   1.112429 S    
C58   C63   1.500513 S    
C21   F5    1.357559 S    
C56   C58   1.411510 A    
C5    C13   1.409840 A    
C52   C56   1.416681 A    
C34   O24   1.382930 S    
C70   H22   1.114711 S    
Cu1   N3    1.996854 S    
C38   C39   1.399244 A    
C16   O14   1.383517 S    
C59   F1    1.357501 S    
C43   C45   1.401426 A    
O7    Cu1   1.946685 S    
C69   H19   1.111189 S    
C57   C64   1.500195 S    
C4    C24   1.479972 S    
C79   H49   1.115708 S    
C43   C48   1.407357 A    
C66   H10   1.113796 S    
C26   C28   1.394026 A    
C70   H23   1.110293 S    
C75   H39   1.113044 S    
C62   F4    1.357414 S    
C44   C46   1.407570 A    
C11   C12   1.415081 A    
N1    C30   1.434285 S    
C51   H5    1.080927 S    
N2    C8    1.365417 A    
O3    Cu1   1.944999 S    
C50   H4    1.080444 S    
C28   F10   1.357423 S    
C80   H54   1.109309 S    
C8    O12   1.349091 S    
C22   C24   1.412423 A    
C59   C64   1.408309 A    
C9    C15   1.417186 A    
C10   C16   1.414058 A    
Cu1   Cu2   2.657158 S    
O20   C72   1.410996 S    
C76   H42   1.112976 S    
C23   C25   1.412256 A    
O2    C2    1.286908 A    
C24   C26   1.413021 A    
O2    Cu2   1.943718 S    
C27   F9    1.357223 S    
O16   C68   1.412180 S    
C74   H35   1.109404 S    
C32   O22   1.383673 S    
C45   O27   1.385796 S    
C20   C30   1.397703 A    
C18   O20   1.383747 S    
C27   C29   1.399888 A    
C6    C14   1.408895 A    
C68   H18   1.109214 S    
C28   C30   1.398933 A    
C35   F11   1.358605 S    
O28   C80   1.411723 S    
C20   C22   1.394544 A    
C60   C61   1.405699 A    
C37   F13   1.358654 S    
O8    Cu2   1.946689 S    
O18   C70   1.412120 S    
C35   C39   1.400577 A    
C62   C63   1.408653 A    
O4    C1    1.289430 A    
C33   C37   1.396315 A    
C22   F6    1.357500 S    
C67   H15   1.109162 S    
C46   C48   1.404714 A    
C19   C21   1.392007 A    
C52   H6    1.079919 S    
C25   F7    1.357793 S    
C34   C41   1.410332 A    
C46   O28   1.385716 S    
C40   C47   1.469958 S    
C65   H8    1.109318 S    
O15   C67   1.410316 S    
C69   H21   1.109126 S    
O6    C4    1.291968 A    
C70   H24   1.109181 S    
C59   C62   1.406216 A    
C53   O15   1.385142 S    
C55   C57   1.413909 A    
C73   H31   1.108944 S    
C73   H33   1.111291 S    
C55   O17   1.381951 S    
C25   C27   1.395965 A    
C79   H51   1.109140 S    
O24   C76   1.410329 S    
C71   H27   1.110104 S    
O26   C78   1.410057 S    
C8    C10   1.410601 A    
C49   N3    1.362465 A    
C15   O13   1.385395 S    
C9    C11   1.415929 A    
C7    O11   1.348832 S    
C78   H48   1.109117 S    
C75   H38   1.113280 S    
C49   C53   1.413450 A    
Cu2   N4    1.996854 S    
C74   H36   1.111167 S    
C65   H9    1.108522 S    
C71   H26   1.109135 S    
C67   H14   1.110559 S    
C36   C40   1.401162 A    
C61   C64   1.408650 A    
C13   C18   1.414715 A    
C5    N1    1.364684 A    
O6    Cu2   1.947103 S    
C44   C47   1.408468 A    
C7    C9    1.410438 A    
C43   O25   1.383747 S    
C2    C41   1.463275 S    
C77   H45   1.109162 S    
C54   C58   1.411705 A    
C12   C14   1.413905 A    
O22   C74   1.411194 S    
O21   C73   1.409917 S    
C66   H11   1.109184 S    
C5    O9    1.349182 S    
C50   C54   1.416636 A    
C68   H16   1.114793 S    
C31   C41   1.408139 A    
C32   C42   1.411305 A    
C61   F3    1.357550 S    
C72   H30   1.109175 S    
C31   O21   1.383234 S    
C50   N4    1.360145 A    
C16   C18   1.404683 A    
O17   C69   1.410337 S    
C65   H7    1.116274 S    
C15   C17   1.403629 A    
C6    O10   1.349404 S    
C17   O19   1.384406 S    
C20   H2    1.083014 S    
C67   H13   1.114712 S    
N1    C7    1.365010 A    
C79   H50   1.109325 S    
C3    C23   1.478885 S    
C49   H3    1.081164 S    
C1    C42   1.469679 S    
O4    Cu2   1.944999 S    
O14   C66   1.410786 S    
C52   N4    1.360199 A    
O7    C4    1.293243 A    
C69   H20   1.112460 S    
C31   C35   1.402672 A    
C51   N3    1.361647 A    
O8    C3    1.291352 A    
C36   F12   1.358531 S    
C80   H52   1.109775 S    
O5    Cu1   1.947107 S    
C11   C13   1.415573 A    
O1    Cu1   1.943718 S    
C33   O23   1.382875 S    
C14   C17   1.416272 A    
C6    N2    1.364819 A    
C37   C40   1.399548 A    
C76   H40   1.113450 S    
C75   H37   1.108996 S    
C33   C42   1.413011 A    
C72   H29   1.113760 S    
O13   C65   1.413637 S    
O23   C75   1.410552 S    
C53   C57   1.410538 A    
C34   C38   1.396791 A    
C71   H25   1.113110 S    
C80   H53   1.114143 S    
