data_mof_unit_27944.cif
_audit_creation_date              2012-12-11T21:29:32-0500
_audit_creation_method            fapswitch 2.2
_symmetry_space_group_name_H-M    P1
_symmetry_Int_Tables_number       1
_space_group_crystal_system       triclinic
_cell_length_a                    8.530694
_cell_length_b                    19.031152
_cell_length_c                    18.795567
_cell_angle_alpha                 104.212364
_cell_angle_beta                  92.043994
_cell_angle_gamma                 93.18677
_cell_volume                      2949.63260885

loop_
_atom_site_label
_atom_site_type_symbol
_atom_type_description
_atom_site_fract_x
_atom_site_fract_y
_atom_site_fract_z
_atom_type_partial_charge
Ba1   Ba    Ba6+2 0.844980 0.532260 0.467660 1.760636
Ba2   Ba    Ba6+2 0.344840 0.467800 0.532350 1.725831
C1    C     C_3   0.628510 0.764341 0.223575 0.975477
C2    C     C_R   0.922114 0.424172 0.087649 0.069602
C3    C     C_R   0.777656 0.386334 0.057703 0.113150
C4    C     C_3   0.100361 0.694359 0.280006 0.849978
C5    C     C_R   0.710161 0.398097 0.993233 -0.044756
C6    C     C_R   0.789242 0.440488 0.952497 0.014340
C7    C     C_R   0.942114 0.470084 0.976488 0.010675
C8    C     C_R   0.721256 0.449351 0.885686 0.354084
C9    C     C_R   0.816406 0.474623 0.835374 -0.121153
C10   C     C_R   0.968270 0.508275 0.860831 -0.080229
C11   C     C_R   0.029397 0.506170 0.932108 0.028723
C12   C     C_3   0.593551 0.711284 0.273183 0.410686
C13   C     C_R   0.767717 0.465318 0.760123 0.049742
C14   C     C_R   0.872110 0.489237 0.712492 0.161890
C15   C     C_R   0.015146 0.530931 0.738272 -0.032600
C16   C     C_3   0.105803 0.737868 0.220667 -0.015594
C17   C     C_R   0.061632 0.542305 0.815086 -0.084141
C18   C     C_R   0.158794 0.495083 0.070555 0.023837
C19   C     C_R   0.217641 0.495287 0.142373 -0.025141
C20   C     C_R   0.123070 0.464050 0.189268 -0.080004
C21   C     C_R   0.981423 0.424971 0.158949 -0.028941
C22   C     C_R   0.201136 0.583574 0.848433 0.102648
C23   C     C_3   0.480964 0.322228 0.289606 0.654552
C24   C     C_R   0.271887 0.569450 0.911988 0.019374
C25   C     C_R   0.184170 0.533731 0.955884 0.001107
C26   C     C_R   0.250220 0.527509 0.024430 -0.114719
C27   C     C_R   0.429420 0.592229 0.932690 -0.114293
C28   C     C_3   0.215923 0.697879 0.644355 0.364838
C29   C     C_R   0.500713 0.581755 0.997335 0.419960
C30   C     C_R   0.409099 0.551526 0.045642 -0.013125
C31   C     C_R   0.371903 0.525247 0.166327 -0.124080
C32   C     C_R   0.472198 0.543495 0.113873 0.375080
C33   C     C_R   0.419102 0.536855 0.242041 -0.017413
C34   C     C_3   0.429236 0.268050 0.215567 0.282875
C35   C     C_R   0.313829 0.515227 0.290774 0.149504
C36   C     C_R   0.171522 0.473721 0.264997 0.060756
C37   C     C_R   0.695916 0.952736 0.537353 -0.009048
C38   C     C_R   0.789186 0.902567 0.559157 0.337849
C39   C     C_R   0.881326 0.063146 0.590165 0.137967
C40   C     C_3   0.241810 0.781605 0.679049 0.340338
C41   C     C_R   0.751493 0.026628 0.543012 0.082561
C42   C     C_R   0.945566 0.129650 0.581889 -0.094899
C43   C     C_R   0.865897 0.169953 0.540703 -0.019599
C44   C     C_R   0.725365 0.138645 0.499718 -0.037665
C45   C     C_3   0.110838 0.297372 0.736808 0.422759
C46   C     C_R   0.668511 0.067273 0.501797 -0.004995
C47   C     C_R   0.913498 0.243684 0.546858 0.004867
C48   C     C_R   0.812609 0.286598 0.517181 -0.300264
C49   C     C_R   0.675158 0.256771 0.474191 0.030581
C50   C     C_R   0.633847 0.180684 0.462166 -0.007157
C51   C     C_R   0.541720 0.927712 0.507825 -0.094490
C52   C     C_3   0.941940 0.294038 0.327708 0.332014
C53   C     C_R   0.480317 0.855767 0.505779 -0.102504
C54   C     C_R   0.572551 0.809497 0.537000 -0.036791
C55   C     C_R   0.717418 0.839387 0.573107 0.332036
C56   C     C_3   0.125398 0.240555 0.783422 0.176512
C57   C     C_R   0.501921 0.144895 0.416786 0.424574
C58   C     C_R   0.451878 0.074265 0.418359 -0.153340
C59   C     C_R   0.522010 0.038776 0.466773 -0.019192
C60   C     C_R   0.450062 0.974116 0.478801 -0.057787
C61   C     C_R   0.287778 0.955044 0.463466 0.323481
C62   C     C_R   0.326796 0.831094 0.473363 -0.046104
C63   C     C_R   0.229656 0.882701 0.453788 0.397918
C64   C     C_3   0.866880 0.230927 0.265201 0.714723
C65   C     C_R   0.275516 0.756628 0.464559 0.069172
C66   C     C_R   0.373148 0.710478 0.491723 -0.268550
C67   C     C_3   0.556059 0.280162 0.707258 0.408019
C68   C     C_R   0.518642 0.735480 0.529814 0.050386
C69   C     C_3   0.727829 0.645321 0.695115 0.689103
C70   C     C_3   0.780897 0.681546 0.775372 -0.435749
C71   C     C_3   0.603098 0.752357 0.353800 -0.356715
C72   C     C_3   0.400763 0.800794 0.723151 -0.377720
C73   C     C_3   0.110368 0.809117 0.730878 -0.303077
C74   C     C_3   0.031980 0.262402 0.383008 -0.269179
C75   C     C_3   0.581311 0.383960 0.274054 -0.276416
C76   C     C_3   0.194213 0.700742 0.153410 -0.408574
C77   C     C_3   0.176226 0.371394 0.784243 -0.220184
C78   C     C_3   0.540126 0.224881 0.756143 -0.029155
C79   C     C_3   0.940714 0.304299 0.720602 -0.295885
C80   C     C_3   0.503026 0.243787 0.628275 -0.241183
C81   C     C_3   0.646683 0.161450 0.734922 -0.477028
C82   C     C_3   0.570493 0.261384 0.838096 -0.349504
C83   C     C_3   0.692106 0.330739 0.089589 -0.418412
C84   C     C_3   0.243610 0.657100 0.835241 -0.368226
C85   C     C_3   0.934804 0.043235 0.660057 -0.352849
C86   C     C_3   0.168284 0.816926 0.253081 -0.333114
C87   C     C_R   0.007116 0.463739 0.045243 0.040850
H1    H     H_    0.850051 0.327621 0.355904 -0.034407
H2    H     H_    0.241227 0.248146 0.813029 0.046860
H3    H     H_    0.114815 0.185054 0.746637 0.030148
H4    H     H_    0.674165 0.296766 0.704941 -0.048704
H5    H     H_    0.419503 0.199183 0.747245 0.088362
H6    H     H_    0.597802 0.369756 0.973283 0.055129
H7    H     H_    0.913542 0.397597 0.192080 0.089517
H8    H     H_    0.499695 0.616315 0.896774 0.061617
H9    H     H_    0.222937 0.687163 0.298019 -0.248922
H10   H     H_    0.848571 0.342859 0.521869 0.060448
H11   H     H_    0.048815 0.153475 0.615874 0.073434
H12   H     H_    0.793615 0.254250 0.227853 -0.087250
H13   H     H_    0.332270 0.654363 0.485470 0.081245
H14   H     H_    0.353947 0.047281 0.381845 0.121284
H15   H     H_    0.984657 0.738978 0.198943 0.166677
H16   H     H_    0.329373 0.673924 0.629957 -0.030006
H17   H     H_    0.137998 0.688024 0.593708 0.051835
H18   H     H_    0.563043 0.715059 0.386765 0.077468
H19   H     H_    0.725267 0.773142 0.372974 0.174435
H20   H     H_    0.526412 0.798443 0.361986 0.063512
H21   H     H_    0.421754 0.762274 0.757706 0.102425
H22   H     H_    0.496985 0.800556 0.685363 0.164153
H23   H     H_    0.833216 0.628947 0.664138 0.055798
H24   H     H_    0.404786 0.856604 0.759603 0.091050
H25   H     H_    0.265671 0.869899 0.643117 0.305478
H26   H     H_    0.107170 0.869144 0.742513 0.082676
H27   H     H_    0.996339 0.783752 0.705161 0.151013
H28   H     H_    0.127698 0.794492 0.784165 0.089226
H29   H     H_    0.080745 0.307029 0.429455 0.112880
H30   H     H_    0.954615 0.224080 0.403366 0.088835
H31   H     H_    0.127100 0.229531 0.357023 0.164455
H32   H     H_    0.711864 0.149872 0.251333 0.328858
H33   H     H_    0.016791 0.217873 0.188145 0.292723
H34   H     H_    0.871537 0.725963 0.778568 0.100828
H35   H     H_    0.551763 0.598639 0.730536 0.298281
H36   H     H_    0.752684 0.847309 0.287930 0.299991
H37   H     H_    0.531385 0.843195 0.193764 0.327698
H38   H     H_    0.289377 0.308807 0.332544 0.357471
H39   H     H_    0.607316 0.426596 0.325483 0.149457
H40   H     H_    0.690772 0.363771 0.249670 0.056516
H41   H     H_    0.517684 0.407769 0.234385 0.007048
H42   H     H_    0.317874 0.174414 0.178099 0.306598
H43   H     H_    0.742894 0.710594 0.141360 0.324686
H44   H     H_    0.193538 0.733486 0.111961 0.135352
H45   H     H_    0.829502 0.641368 0.802432 0.067686
H46   H     H_    0.317036 0.693040 0.167865 0.162128
H47   H     H_    0.134448 0.646943 0.127052 0.148474
H48   H     H_    0.096471 0.390313 0.828673 0.051873
H49   H     H_    0.286254 0.368968 0.815630 0.155147
H50   H     H_    0.189099 0.411204 0.750328 0.124091
H51   H     H_    0.922794 0.346008 0.689674 -0.012979
H52   H     H_    0.890977 0.250707 0.688426 0.059595
H53   H     H_    0.880034 0.321685 0.772715 0.114887
H54   H     H_    0.024114 0.205759 0.859916 0.302096
H55   H     H_    0.599505 0.212678 0.604302 -0.005165
H56   H     H_    0.679733 0.704782 0.806553 0.099035
H57   H     H_    0.401801 0.203562 0.623328 0.125458
H58   H     H_    0.481169 0.284286 0.596589 0.147966
H59   H     H_    0.770930 0.180386 0.749434 0.172996
H60   H     H_    0.616213 0.120055 0.765702 0.130542
H61   H     H_    0.631356 0.133854 0.675716 0.113944
H62   H     H_    0.028179 0.597292 0.284467 0.309502
H63   H     H_    0.483640 0.301987 0.857083 0.143869
H64   H     H_    0.558526 0.220575 0.871217 0.101647
H65   H     H_    0.690547 0.288357 0.848830 0.154577
H66   H     H_    0.589074 0.354748 0.117939 0.117785
H67   H     H_    0.472123 0.687317 0.258994 -0.085739
H68   H     H_    0.648562 0.283103 0.044758 0.106620
H69   H     H_    0.768273 0.308575 0.126384 0.087935
H70   H     H_    0.907955 0.444137 0.613538 0.292767
H71   H     H_    0.505060 0.442732 0.915276 0.285181
H72   H     H_    0.135538 0.681724 0.821751 0.130277
H73   H     H_    0.294033 0.696072 0.886059 0.088081
H74   H     H_    0.332743 0.653363 0.793483 0.128877
H75   H     H_    0.704509 0.619994 0.973312 0.298800
H76   H     H_    0.678118 0.590367 0.132152 0.369521
H77   H     H_    0.397381 0.491900 0.376348 0.326995
H78   H     H_    0.352648 0.294925 0.182397 -0.013260
H79   H     H_    0.837735 0.852827 0.664152 0.275754
H80   H     H_    0.333349 0.145405 0.343515 0.321908
H81   H     H_    0.028114 0.902165 0.410460 0.349431
H82   H     H_    0.852912 0.002714 0.675230 0.106496
H83   H     H_    0.056057 0.024720 0.655767 0.155465
H84   H     H_    0.937002 0.091201 0.707204 0.073712
H85   H     H_    0.998979 0.871382 0.574345 0.362494
H86   H     H_    0.221528 0.053008 0.498074 0.307149
H87   H     H_    0.074306 0.848570 0.282215 0.161086
H88   H     H_    0.267661 0.819939 0.293587 0.138850
H89   H     H_    0.533749 0.250500 0.183868 -0.014720
H90   H     H_    0.205151 0.843397 0.209329 0.148981
O1    O     O_2   0.885040 0.450540 0.321170 -0.501968
O2    O     O_2   0.229741 0.247804 0.528861 -0.489001
O3    O     O_3   0.196132 0.274503 0.671587 -0.614838
O4    O     O_3   0.133000 0.456200 0.410860 -0.431947
O5    O     O_3   0.556800 0.589310 0.543550 -0.438545
O6    O     O_2   0.384750 0.321010 0.451130 -0.422898
O7    O     O_3   0.568192 0.285675 0.333090 -0.581288
O8    O     O_2   0.450300 0.479409 0.750278 -0.431843
O9    O     O_3   0.476891 0.343032 0.735467 -0.572185
O10   O     O_3   0.639000 0.584840 0.375630 -0.451969
O11   O     O_2   0.739669 0.520621 0.249240 -0.414351
O12   O     O_3   0.647309 0.694900 0.666264 -0.632126
O13   O     O_3   0.047717 0.334640 0.295543 -0.661812
O14   O     O_3   0.701530 0.656590 0.261962 -0.567835
O15   O     O_2   0.804950 0.679010 0.548920 -0.431522
O16   O     O_3   0.051170 0.624120 0.414780 -0.485262
O17   O     O_2   0.950985 0.749638 0.474957 -0.416115
O18   O     O_3   0.238798 0.817229 0.621906 -0.779078
O19   O     O_3   0.771066 0.183330 0.293880 -0.710534
O20   O     O_3   0.983988 0.191680 0.225377 -0.698652
O21   O     O_3   0.627676 0.583997 0.691875 -0.679305
O22   O     O_3   0.772114 0.805495 0.246524 -0.764186
O23   O     O_3   0.014469 0.732399 0.338648 -0.566127
O24   O     O_3   0.506895 0.811556 0.227335 -0.791851
O25   O     O_3   0.349894 0.351002 0.323946 -0.764218
O26   O     O_3   0.346542 0.206642 0.227471 -0.681934
O27   O     O_3   0.633714 0.724516 0.150085 -0.725204
O28   O     O_3   0.012636 0.247013 0.836914 -0.770705
O29   O     O_3   0.022052 0.626617 0.248034 -0.715718
O30   O     O_3   0.827283 0.474350 0.639398 -0.688910
O31   O     O_3   0.562282 0.434789 0.869475 -0.742290
O32   O     O_3   0.658671 0.601634 0.013581 -0.722177
O33   O     O_3   0.631406 0.540350 0.123734 -0.683423
O34   O     O_2   0.304650 0.549490 0.678880 -0.445844
O35   O     O_3   0.351726 0.534731 0.364750 -0.729190
O36   O     O_3   0.782274 0.811717 0.627361 -0.732114
O37   O     O_3   0.420805 0.178463 0.371238 -0.673296
O38   O     O_3   0.074891 0.863637 0.429705 -0.691882
O39   O     O_3   0.950739 0.914381 0.564581 -0.712039
O40   O     O_3   0.180329 0.006906 0.463580 -0.731320
O41   O     O_3   0.056690 0.543860 0.589150 -0.470258
O42   O     O_3   0.550690 0.415220 0.624380 -0.405026
O43   O     O_3   0.142216 0.665451 0.694520 -0.699884
O44   O     O_3   0.632900 0.410750 0.456460 -0.474659
O45   O     O_3   0.138520 0.375940 0.585230 -0.485945
P1    P     P_3+3 0.058010 0.429760 0.330690 1.028908
P2    P     P_3+3 0.631910 0.669560 0.569730 1.084219
P3    P     P_3+3 0.078052 0.716286 0.423007 1.050339
P4    P     P_3+3 0.131690 0.570300 0.669320 0.983004
P5    P     P_3+3 0.114074 0.284695 0.585706 0.921716
P6    P     P_3+3 0.619928 0.576274 0.281233 1.047736
P7    P     P_3+3 0.564097 0.318704 0.429756 1.059702
P8    P     P_3+3 0.568465 0.422924 0.718457 1.098143

loop_
_geom_bond_atom_site_label_1
_geom_bond_atom_site_label_2
_ccdc_geom_bond_type
Ba1   P2    S    
C79   H51   S    
C77   H50   S    
C53   C54   A    
C61   C63   A    
H43   O27   S    
C13   P8    S    
C1    O24   S    
C73   H28   S    
C45   C77   S    
C78   C82   S    
C23   O25   S    
O4    P1    S    
C73   H27   S    
C80   H58   S    
Ba1   O4    S    
Ba2   P4    S    
C86   H88   S    
C28   O43   S    
C69   H23   S    
C43   C44   A    
C54   C55   A    
C45   C79   S    
H36   O22   S    
C48   H10   S    
C74   H31   S    
C52   O13   S    
C23   C75   S    
C4    H9    S    
H79   O36   S    
C14   O30   S    
C33   C35   A    
C66   H13   S    
C4    O23   S    
C67   H4    S    
C78   C81   S    
C15   P4    S    
C71   H18   S    
C19   C31   A    
H75   O32   S    
C70   H56   S    
C20   C36   A    
C44   C50   A    
O1    P1    D    
C39   C85   S    
C21   H7    S    
O41   P4    S    
C22   C84   S    
Ba1   Ba2   S    
C83   H66   S    
C61   O40   S    
C7    C11   A    
C75   H41   S    
C67   C80   S    
C15   C17   A    
C9    C13   A    
C8    O31   S    
H54   O28   S    
C55   O36   S    
O2    P5    D    
C6    C7    A    
H25   O18   S    
C84   H73   S    
C65   P3    S    
H62   O29   S    
C58   H14   S    
C56   H2    S    
C4    O29   S    
C64   O20   S    
Ba2   O4    S    
C81   H61   S    
C3    C83   S    
C79   H52   S    
O17   P3    D    
C57   C58   A    
C19   C20   A    
C28   H17   S    
Ba2   O41   S    
C39   C41   A    
C64   H12   S    
C83   H68   S    
O14   P6    S    
C45   O3    S    
C85   H84   S    
C80   H57   S    
Ba1   O5    S    
O44   P7    S    
C48   C49   A    
C51   C53   A    
O6    P7    D    
C4    C16   S    
C44   C46   A    
C40   C72   S    
C74   H30   S    
C49   P7    S    
C49   C50   A    
C62   C65   A    
C26   C30   A    
C34   H89   S    
C80   H55   S    
C23   O7    S    
C7    C87   A    
C37   C38   A    
C3    C5    A    
C2    C21   A    
C57   O37   S    
C14   C15   A    
C71   H19   S    
C37   C41   A    
O7    P7    S    
C18   C26   A    
C72   H24   S    
C34   H78   S    
C16   C86   S    
C65   C66   A    
C58   C59   A    
O11   P6    D    
C30   C32   A    
C12   C71   S    
C35   C36   A    
C50   C57   A    
C82   H64   S    
O3    P5    S    
C70   H45   S    
C29   C30   A    
O43   P4    S    
C16   C76   S    
C85   H82   S    
C53   C62   A    
C60   C61   A    
Ba2   O45   S    
C31   C32   A    
C40   C73   S    
C84   H72   S    
Ba2   O5    S    
C10   C11   A    
C71   H20   S    
C75   H39   S    
C67   O9    S    
C64   O19   S    
C1    C12   S    
C32   O33   S    
H77   O35   S    
C36   P1    S    
H85   O39   S    
O8    P8    D    
C82   H63   S    
H38   O25   S    
C66   C68   A    
O13   P1    S    
C77   H48   S    
C12   O14   S    
O12   P2    S    
C54   C68   A    
C28   H16   S    
C24   C25   A    
H33   O20   S    
C39   C42   A    
C52   C74   S    
C73   H26   S    
C83   H69   S    
C76   H46   S    
C78   H5    S    
C81   H60   S    
H42   O26   S    
C35   O35   S    
C72   H22   S    
C5    H6    S    
C42   C43   A    
C86   H90   S    
C2    C87   A    
C41   C46   A    
Ba1   P1    S    
H80   O37   S    
C79   H53   S    
C38   C55   A    
C82   H65   S    
Ba1   O16   S    
C27   C29   A    
C1    O27   S    
H86   O40   S    
C69   O21   S    
C40   O18   S    
C28   C40   S    
Ba2   O34   S    
C68   P2    S    
C16   H15   S    
C22   C24   A    
C12   H67   S    
H70   O30   S    
C72   H21   S    
C10   C17   A    
C75   H40   S    
H76   O33   S    
C52   H1    S    
O23   P3    S    
C52   C64   S    
O16   P3    S    
H37   O24   S    
H71   O31   S    
C18   C87   A    
H35   O21   S    
Ba1   O1    S    
C86   H87   S    
C27   H8    S    
Ba1   O44   S    
C33   P6    S    
C62   C63   A    
H81   O38   S    
O10   P6    S    
Ba2   O6    S    
C69   C70   S    
C70   H34   S    
O34   P4    D    
O45   P5    S    
C45   C56   S    
C63   O38   S    
C42   H11   S    
O15   P2    D    
C46   C59   A    
C37   C51   A    
C76   H47   S    
C56   O28   S    
C1    O22   S    
C85   H83   S    
O42   P8    S    
Ba2   O44   S    
C31   C33   A    
C43   C47   A    
C17   C22   A    
Ba1   O41   S    
C34   O26   S    
Ba2   O42   S    
C47   P5    S    
C59   C60   A    
C76   H44   S    
C74   H29   S    
H32   O19   S    
C51   C60   A    
C5    C6    A    
C8    C9    A    
C23   C34   S    
C81   H59   S    
C2    C3    A    
C77   H49   S    
C29   O32   S    
C18   C19   A    
C24   C27   A    
C6    C8    A    
C47   C48   A    
C25   C26   A    
C20   C21   A    
C11   C25   A    
C67   C78   S    
C84   H74   S    
C69   O12   S    
O9    P8    S    
C56   H3    S    
C38   O39   S    
O5    P2    S    
C13   C14   A    
C9    C10   A    
Ba1   O15   S    
Ba1   O10   S    
