data_mof_unit_25121.cif
_audit_creation_date              2012-12-11T14:48:15-0500
_audit_creation_method            fapswitch 2.2
_symmetry_space_group_name_H-M    P1
_symmetry_Int_Tables_number       1
_space_group_crystal_system       triclinic
_cell_length_a                    11.533144
_cell_length_b                    11.472491
_cell_length_c                    19.509835
_cell_angle_alpha                 90.197865
_cell_angle_beta                  89.895809
_cell_angle_gamma                 59.859561
_cell_volume                      2232.37463108

loop_
_atom_site_label
_atom_site_type_symbol
_atom_type_description
_atom_site_fract_x
_atom_site_fract_y
_atom_site_fract_z
_atom_type_partial_charge
C1    C     C_R   0.641680 0.118903 0.598526 0.549232
C2    C     C_1   0.662671 0.159855 0.664701 0.007791
C3    C     C_R   0.602952 0.603338 0.309889 0.222307
C4    C     C_R   0.579425 0.804859 0.605342 0.552658
C5    C     C_R   0.606219 0.589033 0.240012 -0.073547
C6    C     C_R   0.675284 0.635182 0.199117 0.001515
C7    C     C_R   0.750673 0.685803 0.228686 -0.155955
C8    C     C_R   0.746118 0.702406 0.298845 -0.171830
C9    C     C_R   0.665265 0.669103 0.338974 0.041620
C10   C     C_R   0.257946 0.238871 0.285221 -0.142496
C11   C     C_R   0.208983 0.265151 0.219132 -0.166682
C12   C     C_1   0.603813 0.770575 0.676298 0.003269
C13   C     C_R   0.168006 0.182223 0.187199 0.031338
C14   C     C_R   0.192305 0.062003 0.220401 0.224142
C15   C     C_R   0.242351 0.036322 0.287148 -0.090019
C16   C     C_R   0.240112 0.145597 0.598044 0.550938
C17   C     C_R   0.268177 0.128533 0.321105 -0.021819
C18   C     C_R   0.760565 0.040433 0.291855 -0.128169
C19   C     C_R   0.764280 0.056720 0.222542 -0.113921
C20   C     C_R   0.671116 0.178804 0.191739 0.018069
C21   C     C_R   0.563888 0.277618 0.229848 -0.136338
C22   C     C_R   0.556364 0.257815 0.299487 -0.099659
C23   C     C_1   0.127429 0.198529 0.859405 0.006003
C24   C     C_R   0.657765 0.141463 0.331152 0.036817
C25   C     C_R   0.082551 0.230863 0.928706 0.539386
C26   C     C_R   0.682500 0.607587 0.930220 0.540796
C27   C     C_R   0.740562 0.231966 0.922810 0.549231
C28   C     C_R   0.643330 0.111106 0.401392 0.556253
C29   C     C_R   0.087024 0.233216 0.124566 0.568329
C30   C     C_R   0.685076 0.605979 0.127318 0.555638
C31   C     C_R   0.706457 0.209136 0.125634 0.553494
C32   C     C_R   0.620223 0.734314 0.404348 0.583126
C33   C     C_R   0.303634 0.114122 0.393882 0.549533
C34   C     C_1   0.171216 0.169921 0.727703 -0.029555
C35   C     C_1   0.659987 0.668175 0.864081 0.005397
C36   C     C_1   0.622084 0.743123 0.736199 -0.027755
C37   C     C_1   0.642344 0.707142 0.805837 -0.025863
C38   C     C_1   0.150516 0.181900 0.798987 -0.029398
C39   C     C_1   0.194587 0.160759 0.667279 0.004319
C40   C     C_1   0.714041 0.219324 0.852157 0.002915
C41   C     C_1   0.678220 0.185019 0.722856 -0.024515
C42   C     C_1   0.696310 0.206090 0.792425 -0.027548
Cl1   Cl    Cl    0.514503 0.543882 0.358546 -0.615802
Cl2   Cl    Cl    0.158774 0.941904 0.182961 -0.592532
Cr1   Cr    Cr6+3 0.404720 0.198220 0.499960 1.055308
Cr2   Cr    Cr6+3 0.698290 0.897110 0.500380 1.038392
Cr3   Cr    Cr6+3 0.396970 0.904720 0.499610 1.074040
Cr4   Cr    Cr6+3 0.926180 0.152240 0.028110 1.089052
Cr5   Cr    Cr6+3 0.921340 0.452070 0.027460 1.038528
Cr6   Cr    Cr6+3 0.626260 0.447120 0.028700 1.049317
H1    H     H_    0.846426 0.976315 0.194056 0.174247
H2    H     H_    0.837160 0.946932 0.314136 0.146092
H3    H     H_    0.489353 0.370971 0.206597 0.138604
H4    H     H_    0.471700 0.333076 0.328538 0.181731
H5    H     H_    0.555188 0.540511 0.217866 0.167969
H6    H     H_    0.809597 0.715320 0.197641 0.138205
H7    H     H_    0.797400 0.750918 0.320746 0.145809
H8    H     H_    0.281297 0.309509 0.309449 0.146011
H9    H     H_    0.196044 0.355576 0.194715 0.151737
H10   H     H_    0.256165 0.946992 0.313206 0.181860
O1    O     O_R   0.267740 0.231990 0.575440 -0.493826
O2    O     O_R   0.596140 0.579600 0.952720 -0.503560
O3    O     O_R   0.639070 0.321380 0.958660 -0.488463
O4    O     O_R   0.527280 0.186680 0.570530 -0.487239
O5    O     O_R   0.821240 0.124490 0.104360 -0.486752
O6    O     O_R   0.036900 0.167320 0.097830 -0.433298
O7    O     O_R   0.056190 0.349890 0.102870 -0.526895
O8    O     O_R   0.797670 0.565150 0.097930 -0.498355
O9    O     O_R   0.595880 0.584540 0.104260 -0.506701
O10   O     O_R   0.638830 0.325960 0.099140 -0.506163
O11   O     O_3   0.824590 0.350480 0.028090 -0.286575
O12   O     O_R   0.685970 0.784630 0.430010 -0.519769
O13   O     O_R   0.728090 0.003480 0.576380 -0.504677
O14   O     O_R   0.682970 0.789220 0.570490 -0.483025
O15   O     O_R   0.499290 0.771920 0.575530 -0.484146
O16   O     O_R   0.285330 0.030900 0.569730 -0.504957
O17   O     O_R   0.270980 0.227040 0.423900 -0.499937
O18   O     O_R   0.530280 0.182090 0.430050 -0.507854
O19   O     O_R   0.731330 0.998530 0.424830 -0.519158
O20   O     O_R   0.502530 0.766960 0.423990 -0.452273
O21   O     O_R   0.288330 0.026310 0.429250 -0.489857
O22   O     O_3   0.499990 0.000020 0.499980 -0.311759
O23   O     O_R   0.821500 0.119550 0.952820 -0.498368
O24   O     O_R   0.037130 0.162750 0.957360 -0.507189
O25   O     O_R   0.056440 0.344950 0.951330 -0.502181
O26   O     O_R   0.797900 0.560570 0.957460 -0.494634

loop_
_geom_bond_atom_site_label_1
_geom_bond_atom_site_label_2
_ccdc_geom_bond_type
Cr5   O8    S    
C41   C42   S    
Cr1   O22   S    
C18   H2    S    
C7    C8    A    
C32   O12   A    
C3    Cl1   S    
C18   C24   A    
C7    H6    S    
C13   C29   S    
C36   C37   S    
C35   C37   T    
Cr6   O9    S    
Cr3   O16   S    
C18   C19   A    
Cr2   O19   S    
C2    C41   T    
C31   O5    A    
C1    C2    S    
C15   H10   S    
Cr3   O22   S    
C28   O19   A    
C4    O15   A    
C9    C32   S    
C29   O7    A    
C31   O10   A    
C19   C20   A    
C8    C9    A    
C25   O24   A    
Cr1   O18   S    
Cr4   O5    S    
C4    C12   S    
C28   O18   A    
Cr2   O12   S    
C40   C42   T    
Cr2   O22   S    
C21   C22   A    
Cr6   O3    S    
C17   C33   S    
Cr3   O20   S    
C11   H9    S    
C34   C39   T    
Cr5   O25   S    
C22   H4    S    
Cr3   O21   S    
Cr4   O24   S    
C34   C38   S    
Cr6   O11   S    
C3    C9    A    
C8    H7    S    
C32   O20   A    
C27   C40   S    
C26   O26   A    
C25   O25   A    
C27   O3    A    
C6    C30   S    
Cr6   O2    S    
C22   C24   A    
C12   C36   T    
C16   O1    A    
Cr4   O11   S    
C1    O4    A    
Cr2   O14   S    
C30   O9    A    
C14   Cl2   S    
C15   C17   A    
Cr5   O7    S    
C10   H8    S    
C16   O16   A    
C4    O14   A    
Cr5   O26   S    
C5    H5    S    
C24   C28   S    
C3    C5    A    
C6    C7    A    
C23   C38   T    
Cr1   O4    S    
Cr4   O23   S    
C1    O13   A    
C27   O23   A    
C26   O2    A    
Cr3   O15   S    
C21   H3    S    
C11   C13   A    
C33   O17   A    
C5    C6    A    
Cr1   O1    S    
C23   C25   S    
Cr6   O10   S    
C10   C11   A    
C16   C39   S    
C29   O6    A    
C19   H1    S    
C26   C35   S    
C20   C21   A    
Cr5   O11   S    
C14   C15   A    
Cr1   O17   S    
C10   C17   A    
Cr4   O6    S    
C13   C14   A    
C33   O21   A    
Cr2   O13   S    
C30   O8    A    
C20   C31   S    
