data_mof_unit_62205.cif
_audit_creation_date              2012-12-11T15:00:27-0500
_audit_creation_method            fapswitch 2.2
_symmetry_space_group_name_H-M    P1
_symmetry_Int_Tables_number       1
_space_group_crystal_system       triclinic
_cell_length_a                    13.283116
_cell_length_b                    13.284351
_cell_length_c                    26.812698
_cell_angle_alpha                 96.81907
_cell_angle_beta                  97.051331
_cell_angle_gamma                 61.644388
_cell_volume                      4122.23157907

loop_
_atom_site_label
_atom_site_type_symbol
_atom_type_description
_atom_site_fract_x
_atom_site_fract_y
_atom_site_fract_z
_atom_type_partial_charge
C1    C     C_R   0.378800 0.723871 0.435572 0.547999
C2    C     C_1   0.330300 0.338689 0.268219 0.046719
C3    C     C_1   0.344045 0.346518 0.321093 0.001429
C4    C     C_1   0.362506 0.355877 0.365939 0.029646
C5    C     C_3   0.780155 0.251171 0.267031 0.054689
C6    C     C_3   0.964485 0.269581 0.289667 0.318245
C7    C     C_3   0.982985 0.247919 0.232393 0.055132
C8    C     C_1   0.902050 0.289324 0.104205 0.059402
C9    C     C_3   0.834813 0.323528 0.297390 -0.049808
C10   C     C_3   0.797117 0.241150 0.209576 0.050888
C11   C     C_3   0.864571 0.306148 0.200742 0.000349
C12   C     C_R   0.394883 0.373213 0.417695 0.550598
C13   C     C_3   0.796667 0.435209 0.219656 0.628530
C14   C     C_3   0.774639 0.443794 0.276250 0.165971
C15   C     C_1   0.880957 0.296778 0.147044 0.104167
C16   C     C_1   0.812789 0.338445 0.350572 0.115766
C17   C     C_1   0.780553 0.361512 0.392179 0.069516
C18   C     C_3   0.449975 0.723151 0.270260 0.344964
C19   C     C_3   0.340605 0.938472 0.286983 0.328904
C20   C     C_3   0.335403 0.952769 0.229603 0.515586
C21   C     C_1   0.303003 0.890633 0.101015 0.079505
C22   C     C_3   0.340970 0.823939 0.294487 -0.028919
C23   C     C_R   0.725527 0.398861 0.437914 0.543909
C24   C     C_3   0.436060 0.730751 0.210690 0.391629
C25   C     C_3   0.328580 0.848150 0.197419 0.090352
C26   C     C_3   0.217081 0.846682 0.210698 0.578819
C27   C     C_3   0.227706 0.826816 0.267804 0.131771
C28   C     C_1   0.319132 0.865552 0.143753 0.192529
C29   C     C_1   0.348898 0.806259 0.348112 0.084352
C30   C     C_1   0.360034 0.776749 0.389852 0.051947
C31   C     C_3   0.403482 0.219519 0.712586 0.510281
C32   C     C_3   0.200605 0.387432 0.706462 0.162272
C33   C     C_3   0.190760 0.379002 0.763320 0.615378
C34   C     C_R   0.381810 0.724346 0.575527 0.549653
C35   C     C_1   0.295651 0.308015 0.887482 0.035535
C36   C     C_3   0.328796 0.345672 0.697032 0.074783
C37   C     C_3   0.393947 0.214528 0.769466 -0.220734
C38   C     C_3   0.311480 0.334891 0.792706 -0.008816
C39   C     C_3   0.360082 0.418041 0.787394 -0.227193
C40   C     C_3   0.373549 0.422622 0.731080 0.107675
C41   C     C_1   0.303753 0.325713 0.845768 0.028645
C42   C     C_1   0.342494 0.351105 0.644214 0.068741
C43   C     C_1   0.362113 0.359204 0.602878 0.043981
C44   C     C_1   0.889495 0.293600 0.864367 0.019126
C45   C     C_R   0.395787 0.375919 0.557600 0.544742
C46   C     C_1   0.862070 0.305401 0.820055 -0.008321
C47   C     C_1   0.839170 0.319639 0.767828 0.024504
C48   C     C_1   0.822004 0.333416 0.723354 0.019556
C49   C     C_1   0.799114 0.352781 0.671573 -0.016730
C50   C     C_1   0.771661 0.373384 0.627944 0.014573
C51   C     C_1   0.292862 0.893927 0.862818 0.012420
C52   C     C_1   0.312658 0.866317 0.819221 -0.020181
C53   C     C_1   0.330577 0.842774 0.767408 0.017907
C54   C     C_1   0.342996 0.824801 0.722892 0.025077
C55   C     C_1   0.355816 0.800823 0.670680 -0.000161
C56   C     C_R   0.724028 0.403973 0.577714 0.543663
C57   C     C_1   0.366895 0.772558 0.626479 0.028950
C58   C     C_R   0.943468 0.277111 0.056381 0.542836
C59   C     C_R   0.287885 0.270891 0.073241 0.550794
C60   C     C_R   0.270232 0.937636 0.053287 0.541187
C61   C     C_R   0.937086 0.278806 0.915557 0.548431
C62   C     C_R   0.281493 0.273754 0.933190 0.545703
C63   C     C_R   0.262407 0.941146 0.912928 0.548404
C64   C     C_1   0.304892 0.301928 0.125177 0.036782
C65   C     C_1   0.314169 0.319069 0.170091 0.012351
C66   C     C_1   0.322325 0.331458 0.222976 0.053345
Cr1   Cr    Cr6+3 0.585490 0.589720 0.509170 1.086971
Cr2   Cr    Cr6+3 0.329280 0.580760 0.494920 1.069890
Cr3   Cr    Cr6+3 0.585250 0.329540 0.495950 1.084081
Cr4   Cr    Cr6+3 0.077160 0.074530 0.981700 1.073443
Cr5   Cr    Cr6+3 0.079310 0.333830 0.996170 1.086681
Cr6   Cr    Cr6+3 0.334250 0.081620 0.994710 1.069832
H1    H     H_    0.848158 0.149283 0.196223 0.161052
H2    H     H_    0.686354 0.297165 0.271979 0.190840
H3    H     H_    0.419195 0.939174 0.306479 0.164228
H4    H     H_    0.228912 0.743433 0.271049 0.078861
H5    H     H_    0.364377 0.151285 0.774974 0.150664
H6    H     H_    0.169121 0.331699 0.682757 0.070895
H7    H     H_    0.997747 0.329242 0.307305 0.220734
H8    H     H_    0.466579 0.388712 0.725963 0.160774
H9    H     H_    0.445180 0.389027 0.808970 0.089173
H10   H     H_    0.480370 0.183651 0.790002 0.164564
H11   H     H_    0.302519 0.505050 0.803920 0.214845
H12   H     H_    0.022571 0.153932 0.223005 0.277481
H13   H     H_    0.681118 0.479683 0.279381 0.199140
O1    O     O_R   0.700490 0.499650 0.456540 -0.483135
O2    O     O_R   0.339040 0.474950 0.540330 -0.495427
O3    O     O_R   0.494500 0.302900 0.543920 -0.482931
O4    O     O_R   0.682200 0.343540 0.552130 -0.488184
O5    O     O_3   0.500010 0.500010 0.500010 -0.276674
O6    O     O_R   0.170650 0.959160 0.034150 -0.491552
O7    O     O_R   0.983870 0.178140 0.033160 -0.496367
O8    O     O_R   0.966160 0.354510 0.046020 -0.486238
O9    O     O_R   0.187830 0.326650 0.051390 -0.491292
O10   O     O_R   0.362200 0.173970 0.055450 -0.492744
O11   O     O_R   0.326660 0.983110 0.039170 -0.488881
O12   O     O_R   0.479270 0.682700 0.457880 -0.478681
O13   O     O_R   0.165170 0.960730 0.925500 -0.493820
O14   O     O_R   0.978790 0.179600 0.932440 -0.493708
O15   O     O_R   0.960680 0.356080 0.937360 -0.488401
O16   O     O_R   0.182750 0.328100 0.950670 -0.480561
O17   O     O_R   0.356720 0.175530 0.946790 -0.507751
O18   O     O_R   0.321590 0.984560 0.938450 -0.493131
O19   O     O_3   0.163570 0.163330 0.990860 -0.275094
O20   O     O_R   0.304400 0.696100 0.445190 -0.505825
O21   O     O_R   0.337880 0.472540 0.439600 -0.493317
O22   O     O_R   0.493250 0.300300 0.435260 -0.490831
O23   O     O_R   0.681040 0.341130 0.451400 -0.492875
O24   O     O_R   0.701750 0.502250 0.565200 -0.498872
O25   O     O_R   0.480430 0.685110 0.558610 -0.491356
O26   O     O_R   0.305650 0.698700 0.553850 -0.492092
O27   O     O_3   0.690256 0.285700 0.181444 -0.641978
H14   H     H_    0.660107 0.230332 0.182076 0.340449
O28   O     O_3   0.853512 0.497721 0.211251 -0.565425
H15   H     H_    0.917973 0.482020 0.237220 0.373722
O29   O     O_3   0.535464 0.719432 0.191013 -0.581514
H16   H     H_    0.561345 0.772521 0.209762 0.383748
O30   O     O_3   0.545712 0.736592 0.291535 -0.668612
H17   H     H_    0.615379 0.669634 0.279508 0.419711
F1    F     F_    0.249439 0.030689 0.309225 -0.491356
O31   O     O_3   0.431167 0.962607 0.218878 -0.725997
H18   H     H_    0.423242 0.036872 0.235230 0.362678
F2    F     F_    0.238832 0.053609 0.217004 -0.550035
O32   O     O_3   0.822066 0.142889 0.286129 -0.651039
H19   H     H_    0.900346 0.092814 0.275158 0.404208
O33   O     O_3   0.130852 0.913847 0.290803 -0.538586
H20   H     H_    0.120677 0.882460 0.320517 0.333800
O34   O     O_3   0.200281 0.760253 0.181076 -0.644190
H21   H     H_    0.123478 0.771112 0.187333 0.356862
O35   O     O_3   0.467563 0.615446 0.283332 -0.693779
H22   H     H_    0.400088 0.604402 0.270754 0.325227
O36   O     O_3   0.415711 0.641164 0.186551 -0.616629
H23   H     H_    0.487297 0.568034 0.190449 0.423673
F3    F     F_    0.121903 0.950469 0.200035 -0.575962
O37   O     O_3   0.372061 0.143197 0.682118 -0.630196
H24   H     H_    0.300313 0.150611 0.693336 0.300936
O38   O     O_3   0.130880 0.501029 0.693090 -0.561470
H25   H     H_    0.114432 0.498160 0.655960 0.321268
O39   O     O_3   0.146261 0.303264 0.767446 -0.729833
H26   H     H_    0.064336 0.341908 0.754602 0.352406
F4    F     F_    0.117365 0.486306 0.784861 -0.551083
O40   O     O_3   0.314632 0.536526 0.717152 -0.634366
H27   H     H_    0.359535 0.575421 0.733285 0.318520
F5    F     F_    0.517571 0.184490 0.705564 -0.589140
F6    F     F_    0.025657 0.168544 0.313640 -0.523748
O41   O     O_3   0.059061 0.287364 0.221951 -0.674754
H28   H     H_    0.089552 0.249846 0.188999 0.369094
F7    F     F_    0.809355 0.517278 0.305319 -0.645343
F8    F     F_    0.691847 0.483659 0.192036 -0.545428

loop_
_geom_bond_atom_site_label_1
_geom_bond_atom_site_label_2
_ccdc_geom_bond_type
Cr5   O19   S    
O33   H20   S    
C22   C29   S    
C40   O40   S    
C36   C42   S    
C19   C20   S    
O34   H21   S    
C6    C9    S    
O28   H15   S    
Cr3   O22   S    
O37   H24   S    
Cr5   O9    S    
C53   C54   T    
Cr4   O14   S    
C25   C28   S    
C7    C11   S    
C5    O32   S    
C59   C64   S    
C17   C23   S    
C59   O10   A    
C18   C24   S    
C32   C36   S    
C45   O2    A    
C58   O8    A    
C63   O13   A    
C38   C39   S    
C10   H1    S    
Cr4   O19   S    
C20   C25   S    
C14   F7    S    
C5    H2    S    
O29   H16   S    
C31   F5    S    
C49   C50   T    
O30   H17   S    
C20   F2    S    
C8    C58   S    
C54   C55   S    
Cr6   O10   S    
C11   C15   S    
Cr1   O24   S    
Cr4   O6    S    
C16   C17   T    
C23   O1    A    
C34   C57   S    
Cr2   O5    S    
C40   H8    S    
C10   O27   S    
C59   O9    A    
C4    C12   S    
C29   C30   T    
C18   O30   S    
C13   O28   S    
C7    O41   S    
C7    H12   S    
Cr5   O16   S    
C13   C14   S    
C27   H4    S    
C34   O26   A    
C61   O14   A    
Cr2   O21   S    
Cr3   O4    S    
O27   H14   S    
Cr3   O23   S    
C44   C46   T    
C51   C52   T    
C36   C40   S    
C19   C22   S    
C51   C63   S    
C24   C25   S    
C39   H9    S    
C38   C41   S    
C31   O37   S    
C1    O12   A    
C39   C40   S    
C6    F6    S    
O36   H23   S    
Cr6   O19   S    
C33   F4    S    
C25   C26   S    
C37   H5    S    
Cr1   O5    S    
C50   C56   S    
C31   C37   S    
Cr2   O26   S    
C9    C14   S    
C5    C9    S    
C37   C38   S    
C26   F3    S    
C24   O36   S    
Cr1   O25   S    
C47   C48   T    
C45   O3    A    
C20   O31   S    
C26   O34   S    
C43   C45   S    
O31   H18   S    
Cr3   O3    S    
C21   C60   S    
C60   O11   A    
C63   O18   A    
C48   C49   S    
C21   C28   T    
C19   F1    S    
C24   O29   S    
C8    C15   T    
C22   C27   S    
C55   C57   T    
C26   C27   S    
C34   O25   A    
C37   H10   S    
C18   O35   S    
C61   O15   A    
C42   C43   T    
Cr3   O5    S    
C56   O24   A    
C32   H6    S    
C52   C53   S    
O41   H28   S    
Cr5   O15   S    
C60   O6    A    
C46   C47   S    
C56   O4    A    
Cr1   O1    S    
C18   C22   S    
C9    C16   S    
Cr4   O7    S    
C14   H13   S    
C2    C66   T    
C12   O22   A    
O39   H26   S    
C6    C7    S    
Cr5   O8    S    
Cr6   O18   S    
C44   C61   S    
O38   H25   S    
C33   C38   S    
C64   C65   T    
C62   O16   A    
C19   H3    S    
O35   H22   S    
C13   F8    S    
C32   O38   S    
C32   C33   S    
C12   O21   A    
C11   C13   S    
C6    H7    S    
Cr6   O17   S    
C33   O39   S    
C23   O23   A    
C1    C30   S    
C27   O33   S    
C2    C3    S    
C35   C62   S    
C35   C41   T    
C10   C11   S    
Cr1   O12   S    
C39   H11   S    
Cr6   O11   S    
Cr4   O13   S    
C5    C10   S    
C65   C66   S    
Cr2   O20   S    
O40   H27   S    
Cr2   O2    S    
C31   C36   S    
C58   O7    A    
C3    C4    T    
C1    O20   A    
O32   H19   S    
C62   O17   A    
