data_mof_unit_12459.cif
_audit_creation_date              2012-12-10T17:46:14-0500
_audit_creation_method            fapswitch 2.2
_symmetry_space_group_name_H-M    P1
_symmetry_Int_Tables_number       1
_space_group_crystal_system       triclinic
_cell_length_a                    14.133389
_cell_length_b                    10.644808
_cell_length_c                    10.025139
_cell_angle_alpha                 90.818894
_cell_angle_beta                  90.153815
_cell_angle_gamma                 93.102836
_cell_volume                      1505.88025137

loop_
_atom_site_label
_atom_site_type_symbol
_atom_type_description
_atom_site_fract_x
_atom_site_fract_y
_atom_site_fract_z
_atom_type_partial_charge
C1    C     C_R   0.500282 0.260916 0.498738 0.891596
C2    C     C_R   0.575664 0.067860 0.465809 -0.197578
C3    C     C_R   0.573991 0.939187 0.467829 -0.197685
C4    C     C_R   0.329477 0.497720 0.499694 1.008592
C5    C     C_R   0.491185 0.871590 0.504210 -0.061415
C6    C     C_R   0.356907 0.353570 0.134918 0.660058
C7    C     C_R   0.279911 0.300306 0.065353 -0.335636
C8    C     C_R   0.279433 0.300925 0.929203 -0.341020
C9    C     C_R   0.356017 0.354653 0.861283 0.671482
C10   C     C_R   0.429739 0.429192 0.926885 -0.029558
C11   C     C_R   0.429939 0.428991 0.071067 -0.041592
C12   C     C_1   0.772004 0.498849 0.500309 -0.162877
C13   C     C_R   0.565943 0.567397 0.073587 -0.052043
C14   C     C_R   0.566287 0.568967 0.931194 0.010726
C15   C     C_R   0.496144 0.738978 0.501146 0.925259
C16   C     C_R   0.670475 0.500353 0.500124 0.839327
C17   C     C_1   0.227838 0.495549 0.498928 -0.108641
C18   C     C_1   0.142470 0.494415 0.498495 0.045348
C19   C     C_1   0.042497 0.494432 0.498767 0.067542
C20   C     C_1   0.957201 0.495426 0.499333 0.048379
C21   C     C_1   0.857285 0.497239 0.500006 0.019671
C22   C     C_2   0.639381 0.650819 0.865005 0.422329
C23   C     C_R   0.321857 0.123769 0.535519 -0.141782
C24   C     C_2   0.151339 0.133005 0.580213 0.386974
C25   C     C_2   0.154728 0.863370 0.664823 0.538789
C26   C     C_R   0.237691 0.059738 0.573795 -0.125632
C27   C     C_R   0.238522 0.930353 0.603257 -0.100219
C28   C     C_R   0.322306 0.866559 0.580988 0.564755
C29   C     C_R   0.406464 0.931295 0.536141 -0.074558
C30   C     C_R   0.407022 0.061993 0.522735 0.041273
C31   C     C_R   0.493399 0.128119 0.494713 -0.025827
F1    F     F_    0.358944 0.315426 0.735260 -0.683973
F2    F     F_    0.322579 0.743669 0.612482 -0.660272
F3    F     F_    0.360694 0.313193 0.259943 -0.665890
H1    H     H_    0.641094 0.120724 0.442221 0.147343
H2    H     H_    0.223439 0.248028 0.875430 0.196945
H3    H     H_    0.319952 0.222697 0.512891 0.182827
H4    H     H_    0.637985 0.891964 0.443505 0.149345
H5    H     H_    0.618909 0.623224 0.129845 0.181632
H6    H     H_    0.224274 0.246975 0.117321 0.212049
H7    H     H_    0.632029 0.677209 0.762546 0.124872
H8    H     H_    0.158245 0.234066 0.596624 0.085442
H9    H     H_    0.101541 0.915558 0.715795 0.095645
N1    N     N_R   0.499190 0.498800 0.142780 -0.106968
N2    N     N_R   0.499160 0.498720 0.857170 -0.127311
O1    O     O_R   0.500000 0.316780 0.614690 -0.546103
O2    O     O_2   0.072514 0.083476 0.560702 -0.573768
O3    O     O_2   0.144365 0.748822 0.661386 -0.528019
O4    O     O_R   0.499990 0.316750 0.385360 -0.542382
O5    O     O_R   0.373720 0.500010 0.614690 -0.501919
O6    O     O_R   0.373710 0.499990 0.385360 -0.567601
O7    O     O_R   0.500010 0.683250 0.614640 -0.605929
O8    O     O_R   0.500000 0.683220 0.385310 -0.620602
O9    O     O_R   0.626290 0.500010 0.614640 -0.633106
O10   O     O_R   0.626280 0.499990 0.385310 -0.601812
O11   O     O_2   0.709490 0.692315 0.925950 -0.579775
Zn1   Zn    Zn3+2 0.500010 0.500020 0.653130 1.018281
Zn2   Zn    Zn3+2 0.499990 0.499980 0.346870 1.005012

loop_
_geom_bond_atom_site_label_1
_geom_bond_atom_site_label_2
_ccdc_geom_bond_type
C2    H1    S    
C8    C9    A    
C7    H6    S    
C6    C7    A    
C25   C27   S    
C24   H8    S    
C9    C10   A    
C19   C20   T    
C30   C31   A    
O8    Zn2   S    
C25   H9    S    
C10   N2    A    
C2    C3    A    
C16   O10   A    
C11   N1    A    
O6    Zn2   S    
C23   H3    S    
C15   O7    A    
O5    Zn1   S    
C25   O3    D    
N2    Zn1   S    
C26   C27   A    
C29   C30   A    
C4    C17   S    
C15   O8    A    
C28   C29   A    
C24   C26   S    
C28   F2    S    
C17   C18   T    
C14   N2    A    
C5    C29   A    
O1    Zn1   S    
C8    H2    S    
C14   C22   S    
C16   O9    A    
C1    O1    A    
C5    C15   S    
C22   H7    S    
C13   H5    S    
C10   C11   A    
C4    O6    A    
C23   C30   A    
C12   C16   S    
C1    C31   S    
C20   C21   S    
C7    C8    A    
O7    Zn1   S    
O10   Zn2   S    
C4    O5    A    
C6    C11   A    
C23   C26   A    
C18   C19   S    
C22   O11   D    
C9    F1    S    
C3    C5    A    
C13   C14   A    
C24   O2    D    
C1    O4    A    
C12   C21   T    
C13   N1    A    
O4    Zn2   S    
C6    F3    S    
C3    H4    S    
N1    Zn2   S    
C2    C31   A    
C27   C28   A    
O9    Zn1   S    
