data_mof_unit_12908.cif
_audit_creation_date              2012-12-10T18:05:47-0500
_audit_creation_method            fapswitch 2.2
_symmetry_space_group_name_H-M    P1
_symmetry_Int_Tables_number       1
_space_group_crystal_system       triclinic
_cell_length_a                    10.845652
_cell_length_b                    10.813096
_cell_length_c                    9.54586
_cell_angle_alpha                 90.730418
_cell_angle_beta                  89.650189
_cell_angle_gamma                 91.648192
_cell_volume                      1118.91892729

loop_
_atom_site_label
_atom_site_type_symbol
_atom_type_description
_atom_site_fract_x
_atom_site_fract_y
_atom_site_fract_z
_atom_type_partial_charge
C1    C     C_R   0.499804 0.262171 0.499448 0.795204
C2    C     C_R   0.500195 0.737829 0.500552 0.795200
C3    C     C_R   0.871527 0.495234 0.500009 -0.076087
C4    C     C_R   0.128473 0.504770 0.499992 -0.076088
C5    C     C_R   0.936046 0.441127 0.610645 0.010931
C6    C     C_R   0.063954 0.558875 0.389354 0.010922
C7    C     C_R   0.520031 0.062942 0.374261 -0.171473
C8    C     C_R   0.479967 0.937058 0.625738 -0.171480
C9    C     C_R   0.520448 0.935084 0.374964 -0.199340
C10   C     C_R   0.479550 0.064916 0.625035 -0.199345
C11   C     C_R   0.500376 0.871718 0.500705 -0.010321
C12   C     C_R   0.499623 0.128282 0.499295 -0.010321
C13   C     C_R   0.433697 0.411862 0.072098 0.073547
C14   C     C_R   0.566303 0.588138 0.927902 0.073540
C15   C     C_R   0.433907 0.412411 0.923760 -0.088506
C16   C     C_R   0.566093 0.587589 0.076240 -0.088502
C17   C     C_R   0.262383 0.502501 0.500154 0.801980
C18   C     C_R   0.737617 0.497500 0.499846 0.801983
C19   C     C_R   0.245700 0.804865 0.192154 -0.112425
C20   C     C_R   0.754301 0.195097 0.807799 -0.112419
C21   C     C_R   0.179738 0.743514 0.297971 -0.143261
C22   C     C_R   0.820268 0.256466 0.701995 -0.143277
C23   C     C_R   0.127892 0.624784 0.273277 0.074848
C24   C     C_R   0.872105 0.375199 0.726711 0.074840
C25   C     C_R   0.143299 0.567708 0.140786 0.043456
C26   C     C_R   0.856685 0.432260 0.859212 0.043457
C27   C     C_R   0.209970 0.629930 0.035492 -0.134919
C28   C     C_R   0.790009 0.370020 0.964493 -0.134910
C29   C     C_R   0.261018 0.748062 0.061240 -0.110925
C30   C     C_R   0.738969 0.251885 0.938723 -0.110926
C31   C     C_R   0.935867 0.552557 0.389986 -0.216977
C32   C     C_R   0.064132 0.447447 0.610016 -0.216976
Cu1   Cu    Cu3+1 0.500000 0.500020 0.640660 0.956772
Cu2   Cu    Cu3+1 0.500000 0.499980 0.359340 0.956773
H1    H     H_    0.312822 0.795433 0.979724 0.123029
H2    H     H_    0.687161 0.204500 0.020228 0.123022
H3    H     H_    0.380686 0.342859 0.865862 0.129894
H4    H     H_    0.619315 0.657140 0.134138 0.129897
H5    H     H_    0.285449 0.896327 0.211872 0.145905
H6    H     H_    0.714560 0.103633 0.788064 0.145915
H7    H     H_    0.169995 0.787925 0.399636 0.127588
H8    H     H_    0.830021 0.212067 0.600323 0.127591
H9    H     H_    0.222866 0.586811 0.933564 0.140250
H10   H     H_    0.777101 0.413127 0.066428 0.140253
H11   H     H_    0.886310 0.595326 0.305822 0.152692
H12   H     H_    0.113689 0.404675 0.694178 0.152685
H13   H     H_    0.536485 0.110356 0.276331 0.148783
H14   H     H_    0.463514 0.889644 0.723669 0.148783
H15   H     H_    0.536885 0.886108 0.277212 0.147447
H16   H     H_    0.463114 0.113892 0.722788 0.147450
N1    N     N_R   0.500030 0.500030 0.852070 -0.179616
N2    N     N_R   0.499970 0.499970 0.147930 -0.179615
O1    O     O_R   0.499990 0.319660 0.618740 -0.589571
O2    O     O_R   0.500010 0.680340 0.381260 -0.589573
O3    O     O_R   0.499990 0.319630 0.381170 -0.584267
O4    O     O_R   0.500010 0.680370 0.618830 -0.584268
O5    O     O_R   0.319650 0.500020 0.618780 -0.594805
O6    O     O_R   0.680350 0.499980 0.381220 -0.594804
O7    O     O_R   0.319640 0.500000 0.381210 -0.564672
O8    O     O_R   0.680360 0.500000 0.618790 -0.564673
C33   C     C_1   0.095234 0.444044 0.113201 0.197240
N3    N     N_1   0.057021 0.344666 0.091611 -0.272078
C34   C     C_1   0.904741 0.555926 0.886822 0.197224
N4    N     N_1   0.942948 0.655306 0.908432 -0.272078
C35   C     C_1   0.361774 0.316554 0.140854 0.267769
N5    N     N_1   0.303724 0.239221 0.195069 -0.288074
C36   C     C_1   0.638224 0.683446 0.859146 0.267782
N6    N     N_1   0.696274 0.760781 0.804931 -0.288078

loop_
_geom_bond_atom_site_label_1
_geom_bond_atom_site_label_2
_ccdc_geom_bond_type
C22   H8    S    
Cu1   O5    S    
C14   C36   S    
C8    H14   S    
C15   N1    A    
Cu1   N1    S    
C13   N2    A    
C29   H1    S    
Cu2   N2    S    
C14   N1    A    
C30   H2    S    
C26   C34   S    
C5    C32   A    
C32   H12   S    
C7    C9    A    
Cu1   O4    S    
C28   C30   A    
Cu1   Cu2   S    
C1    O3    A    
C9    H15   S    
Cu2   O3    S    
C19   C29   A    
C25   C33   S    
C3    C31   A    
C9    C11   A    
C10   H16   S    
C4    C32   A    
C1    C12   S    
C19   H5    S    
C17   O7    A    
C8    C11   A    
C21   H7    S    
C2    C11   S    
C10   C12   A    
C13   C35   S    
C18   O8    A    
C19   C21   A    
C20   C22   A    
Cu2   O2    S    
Cu1   O8    S    
C22   C24   A    
C13   C15   A    
C21   C23   A    
Cu1   O1    S    
C33   N3    T    
C20   H6    S    
C14   C16   A    
C7    C12   A    
C2    O2    A    
C8    C10   A    
C27   C29   A    
C6    C23   S    
C36   N6    T    
C6    C31   A    
C27   H9    S    
C23   C25   A    
C4    C17   S    
C3    C18   S    
C4    C6    A    
C35   N5    T    
C31   H11   S    
C16   H4    S    
Cu2   O6    S    
C1    O1    A    
C5    C24   S    
C20   C30   A    
C17   O5    A    
Cu2   O7    S    
C26   C28   A    
C28   H10   S    
C2    O4    A    
C15   H3    S    
C18   O6    A    
C16   N2    A    
C24   C26   A    
C34   N4    T    
C3    C5    A    
C25   C27   A    
C7    H13   S    
