data_mof_unit_49714.cif
_audit_creation_date              2012-12-10T18:48:38-0500
_audit_creation_method            fapswitch 2.2
_symmetry_space_group_name_H-M    P1
_symmetry_Int_Tables_number       1
_space_group_crystal_system       triclinic
_cell_length_a                    15.607714
_cell_length_b                    14.706535
_cell_length_c                    9.956023
_cell_angle_alpha                 94.506858
_cell_angle_beta                  90.607979
_cell_angle_gamma                 89.978486
_cell_volume                      2278.06497391

loop_
_atom_site_label
_atom_site_type_symbol
_atom_type_description
_atom_site_fract_x
_atom_site_fract_y
_atom_site_fract_z
_atom_type_partial_charge
C1    C     C_R   0.125951 0.387222 0.497549 0.957884
C2    C     C_R   0.994647 0.419999 0.918198 -0.039547
C3    C     C_R   0.003986 0.419460 0.061047 -0.075627
C4    C     C_R   0.012478 0.578757 0.938349 -0.073515
C5    C     C_R   0.506963 0.079987 0.081242 -0.076026
C6    C     C_R   0.496401 0.920076 0.918684 -0.026954
C7    C     C_R   0.504743 0.920325 0.061384 -0.064773
C8    C     C_R   0.513157 0.078769 0.938029 -0.071346
C9    C     C_R   0.807184 0.244264 0.395488 0.132575
C10   C     C_R   0.172384 0.772766 0.579664 0.106339
C11   C     C_R   0.251758 0.673697 0.415822 0.135909
C12   C     C_R   0.879026 0.618604 0.503267 0.894591
C13   C     C_R   0.737578 0.337671 0.577853 0.134688
C14   C     C_R   0.247384 0.322293 0.615462 0.174076
C15   C     C_R   0.741565 0.667226 0.414909 0.126709
C16   C     C_R   0.804165 0.748923 0.616729 0.085701
C17   C     C_R   0.227843 0.281585 0.373199 0.120917
C18   C     C_R   0.304713 0.746244 0.393666 0.113649
C19   C     C_R   0.672860 0.272274 0.578322 0.114928
C20   C     C_R   0.752839 0.172213 0.414897 0.114234
C21   C     C_R   0.237538 0.837773 0.579876 0.143974
C22   C     C_R   0.747513 0.820672 0.604799 0.135404
C23   C     C_R   0.878082 0.382102 0.496206 0.920564
C24   C     C_R   0.266032 0.197467 0.387984 0.231666
C25   C     C_R   0.302030 0.248090 0.622957 0.084055
C26   C     C_R   0.675422 0.730474 0.419174 0.147380
C27   C     C_R   0.184689 0.687988 0.507182 -0.143731
C28   C     C_R   0.806056 0.321303 0.488224 -0.207514
C29   C     C_R   0.807695 0.679403 0.511295 -0.165477
C30   C     C_R   0.203909 0.333456 0.492860 -0.260985
C31   C     C_R   0.685344 0.187218 0.506163 -0.158497
C32   C     C_R   0.304997 0.822455 0.487912 -0.190075
C33   C     C_R   0.311687 0.186611 0.507839 -0.200458
C34   C     C_R   0.119165 0.620507 0.503369 0.939053
C35   C     C_R   0.685459 0.812465 0.500247 -0.154660
C36   C     C_2   0.007903 0.668242 0.162121 0.982922
C37   C     C_2   0.980489 0.333039 0.835936 1.012501
C38   C     C_2   0.029953 0.332307 0.115530 0.892334
C39   C     C_2   0.054117 0.656991 0.883990 1.018252
C40   C     C_2   0.521479 0.166838 0.163214 0.976680
C41   C     C_2   0.489587 0.831953 0.837318 0.964893
C42   C     C_2   0.538297 0.837949 0.116300 0.944802
C43   C     C_2   0.552521 0.157350 0.881657 1.028335
C44   C     C_3   0.813021 0.279620 0.164267 -0.669334
C45   C     C_R   0.620067 0.880337 0.498486 0.955076
C46   C     C_3   0.029098 0.826059 0.542051 -0.731801
C47   C     C_3   0.331438 0.531801 0.385459 -0.890790
C48   C     C_3   0.742020 0.428638 0.795050 -0.713124
C49   C     C_3   0.279258 0.471669 0.725833 -0.749992
C50   C     C_3   0.752668 0.592213 0.187226 -0.721635
C51   C     C_3   0.811944 0.696596 0.839376 -0.662992
C52   C     C_3   0.300441 0.318920 0.167460 -0.701834
C53   C     C_3   0.306692 0.785549 0.164334 -0.668258
C54   C     C_3   0.528268 0.324832 0.545146 -0.730441
C55   C     C_3   0.831297 0.030475 0.350858 -0.824744
C56   C     C_R   0.377882 0.118173 0.502777 0.919772
C57   C     C_3   0.244801 0.923147 0.800885 -0.722719
C58   C     C_3   0.787737 0.977355 0.674720 -0.759191
C59   C     C_3   0.258127 0.092485 0.180116 -0.743446
C60   C     C_3   0.298186 0.175886 0.832481 -0.708685
C61   C     C_3   0.535141 0.673891 0.464401 -0.721268
C62   C     C_R   0.377752 0.882435 0.496154 0.912801
C63   C     C_R   0.619444 0.120178 0.503125 0.941203
C64   C     C_R   0.003775 0.580002 0.080974 -0.064552
H1    H     H_    0.081825 0.772823 0.238346 0.329521
H2    H     H_    0.858027 0.284395 0.080103 0.253186
H3    H     H_    0.787724 0.348988 0.193244 0.235933
H4    H     H_    0.759926 0.234038 0.127476 0.260687
H5    H     H_    0.094572 0.839975 0.723477 0.276017
H6    H     H_    0.053870 0.885865 0.492745 0.228800
H7    H     H_    0.969209 0.846609 0.594711 0.231024
H8    H     H_    0.013578 0.770080 0.464407 0.249026
H9    H     H_    0.256475 0.588930 0.237678 0.258306
H10   H     H_    0.382160 0.524947 0.307910 0.240598
H11   H     H_    0.306546 0.463325 0.401359 0.264674
H12   H     H_    0.897190 0.233489 0.772769 0.338815
H13   H     H_    0.360296 0.560305 0.482359 0.247909
H14   H     H_    0.749659 0.480315 0.605624 0.206996
H15   H     H_    0.806719 0.456857 0.819859 0.259354
H16   H     H_    0.736970 0.360430 0.834778 0.255686
H17   H     H_    0.693763 0.474260 0.846244 0.218521
H18   H     H_    0.238578 0.359697 0.823592 0.245781
H19   H     H_    0.267078 0.515135 0.819972 0.270845
H20   H     H_    0.254756 0.508169 0.640110 0.255194
H21   H     H_    0.349421 0.460577 0.716002 0.213125
H22   H     H_    0.754886 0.525725 0.366636 0.212640
H23   H     H_    0.094222 0.213504 0.086429 0.341318
H24   H     H_    0.811466 0.552943 0.159111 0.254882
H25   H     H_    0.762329 0.664165 0.163822 0.262563
H26   H     H_    0.698480 0.562991 0.125009 0.213362
H27   H     H_    0.880683 0.805423 0.773712 0.256387
H28   H     H_    0.854876 0.693108 0.928253 0.251968
H29   H     H_    0.795288 0.625984 0.800510 0.238970
H30   H     H_    0.752310 0.732436 0.872672 0.249226
H31   H     H_    0.192624 0.378213 0.237909 0.270306
H32   H     H_    0.290237 0.356967 0.076452 0.219918
H33   H     H_    0.321798 0.250270 0.131731 0.279905
H34   H     H_    0.167365 0.714213 0.842933 0.329917
H35   H     H_    0.351770 0.353497 0.230306 0.253923
H36   H     H_    0.378830 0.683435 0.240918 0.246177
H37   H     H_    0.349210 0.788093 0.076191 0.250862
H38   H     H_    0.286269 0.856245 0.196402 0.238006
H39   H     H_    0.249676 0.743812 0.132654 0.254964
H40   H     H_    0.595743 0.338412 0.724401 0.272112
H41   H     H_    0.467635 0.340450 0.599370 0.237667
H42   H     H_    0.515079 0.270554 0.463953 0.259638
H43   H     H_    0.550268 0.387502 0.500191 0.228369
H44   H     H_    0.741760 0.094145 0.231154 0.278818
H45   H     H_    0.605001 0.265835 0.227412 0.331097
H46   H     H_    0.872119 0.025510 0.259877 0.241441
H47   H     H_    0.808218 0.960817 0.366795 0.263455
H48   H     H_    0.871071 0.056164 0.439123 0.243828
H49   H     H_    0.251285 0.979768 0.614179 0.215261
H50   H     H_    0.308899 0.952695 0.826494 0.261512
H51   H     H_    0.242266 0.853367 0.835841 0.254834
H52   H     H_    0.195691 0.965578 0.855851 0.222678
H53   H     H_    0.755701 0.879142 0.804613 0.258043
H54   H     H_    0.783903 0.029255 0.761713 0.269727
H55   H     H_    0.755044 0.005535 0.588242 0.252465
H56   H     H_    0.413071 0.729021 0.763359 0.332120
H57   H     H_    0.856191 0.963609 0.651621 0.216122
H58   H     H_    0.165845 0.111907 0.327044 0.222220
H59   H     H_    0.239835 0.020510 0.152043 0.221790
H60   H     H_    0.328399 0.097675 0.170253 0.278604
H61   H     H_    0.225120 0.135354 0.108976 0.237669
H62   H     H_    0.368175 0.291872 0.798214 0.258312
H63   H     H_    0.340759 0.157037 0.915716 0.230057
H64   H     H_    0.276671 0.112429 0.774676 0.249440
H65   H     H_    0.241148 0.211748 0.876084 0.247068
H66   H     H_    0.594787 0.658800 0.280897 0.250993
H67   H     H_    0.628410 0.738961 0.102254 0.325257
H68   H     H_    0.474014 0.652844 0.414720 0.230334
H69   H     H_    0.521199 0.729887 0.542143 0.259131
H70   H     H_    0.562366 0.614555 0.512874 0.229851
H71   H     H_    0.664619 0.218730 0.844829 0.329624
H72   H     H_    0.887642 0.182400 0.250308 0.252336
N1    N     N_R   0.000000 0.500000 0.857200 -0.169339
N2    N     N_2   0.734232 0.585211 0.328457 -0.312551
N3    N     N_2   0.854318 0.744221 0.736403 -0.252555
N4    N     N_2   0.221360 0.315940 0.242100 -0.277259
N5    N     N_2   0.352170 0.745401 0.272652 -0.238800
N6    N     N_2   0.592196 0.294901 0.638310 -0.270986
N7    N     N_2   0.758225 0.088978 0.330795 -0.282761
N8    N     N_2   0.228568 0.923129 0.657228 -0.305634
N9    N     N_2   0.745186 0.894899 0.706880 -0.256959
N10   N     N_2   0.231306 0.117368 0.316609 -0.307236
N11   N     N_2   0.344557 0.233518 0.746704 -0.246300
N12   N     N_R   0.000000 0.500000 0.142800 -0.158207
N13   N     N_2   0.593526 0.704135 0.365102 -0.256644
N14   N     N_R   0.500000 0.000000 0.857200 -0.166972
N15   N     N_R   0.500000 0.000000 0.142800 -0.158484
N16   N     N_2   0.857008 0.242989 0.276989 -0.244912
N17   N     N_2   0.091403 0.796022 0.637791 -0.268977
N18   N     N_2   0.261958 0.587791 0.340851 -0.284751
N19   N     N_2   0.726947 0.424539 0.650828 -0.308438
N20   N     N_2   0.235386 0.385486 0.730564 -0.255147
O1    O     O_R   0.091610 0.408380 0.614620 -0.551789
O2    O     O_R   0.408390 0.091620 0.385380 -0.589248
O3    O     O_R   0.408390 0.091620 0.614620 -0.605103
O4    O     O_R   0.591610 0.908380 0.385380 -0.590080
O5    O     O_R   0.408390 0.908380 0.385380 -0.564151
O6    O     O_R   0.591610 0.091620 0.614620 -0.591784
O7    O     O_R   0.591610 0.091620 0.385380 -0.613830
O8    O     O_R   0.408390 0.908380 0.614620 -0.621039
O9    O     O_2   0.941809 0.706956 0.198096 -0.644817
O10   O     O_R   0.087108 0.710907 0.186738 -0.822364
O11   O     O_2   0.040359 0.293553 0.778953 -0.581435
O12   O     O_R   0.908390 0.591620 0.385380 -0.597810
O13   O     O_R   0.899151 0.293326 0.830720 -0.856474
O14   O     O_2   0.004311 0.311742 0.223444 -0.575182
O15   O     O_R   0.084662 0.272348 0.041886 -0.812868
O16   O     O_2   0.014350 0.727222 0.871437 -0.663853
O17   O     O_R   0.142660 0.653723 0.865086 -0.798376
O18   O     O_2   0.462053 0.206255 0.220644 -0.675686
O19   O     O_R   0.603001 0.206021 0.169371 -0.828878
O20   O     O_2   0.554203 0.793231 0.794687 -0.607865
O21   O     O_R   0.409721 0.789744 0.818804 -0.845722
O22   O     O_2   0.501681 0.804857 0.207352 -0.589669
O23   O     O_R   0.908390 0.591620 0.614620 -0.610251
O24   O     O_R   0.612837 0.797838 0.062131 -0.806933
O25   O     O_2   0.510319 0.225424 0.865300 -0.670506
O26   O     O_R   0.641383 0.157342 0.865689 -0.782979
O27   O     O_R   0.091610 0.408380 0.385380 -0.613101
O28   O     O_R   0.908390 0.408380 0.385380 -0.567661
O29   O     O_R   0.091610 0.591620 0.614620 -0.598477
O30   O     O_R   0.091610 0.591620 0.385380 -0.610083
O31   O     O_R   0.908390 0.408380 0.614620 -0.618404
O32   O     O_R   0.591610 0.908380 0.614620 -0.574876
Zn1   Zn    Zn3+2 0.000000 0.500000 0.653120 1.004646
Zn2   Zn    Zn3+2 1.000000 0.500000 0.346880 0.990745
Zn3   Zn    Zn3+2 0.500000 0.000000 0.653120 1.003313
Zn4   Zn    Zn3+2 0.500000 1.000000 0.346880 1.008459

loop_
_geom_bond_atom_site_label_1
_geom_bond_atom_site_label_2
_ccdc_geom_bond_type
C10   C27   A    
C63   O6    A    
C40   O18   D    
C53   N5    S    
C9    N16   S    
C55   H48   S    
C21   N8    S    
C49   N20   S    
C44   H2    S    
C8    C43   S    
C39   O17   S    
C19   C31   A    
C1    O27   A    
C58   N9    S    
C61   H69   S    
C38   O15   S    
C11   C18   A    
C1    C30   S    
C63   O7    A    
C22   C35   A    
H31   N4    S    
C44   N16   S    
C54   H43   S    
O32   Zn3   S    
H27   N3    S    
C48   H15   S    
C41   O21   S    
C57   H51   S    
C42   O22   D    
C56   O3    A    
H36   N5    S    
C37   O13   S    
C12   C29   S    
H14   N19   S    
C62   O5    A    
C52   H33   S    
C58   H54   S    
O12   Zn2   S    
C48   H17   S    
H53   N9    S    
C7    C42   S    
C34   O30   A    
C13   N19   S    
C56   O2    A    
C50   H25   S    
C11   N18   S    
N14   Zn3   S    
C50   H26   S    
C62   O8    A    
C3    C38   S    
C42   O24   S    
C6    C41   S    
H9    N18   S    
C22   N9    S    
C13   C28   A    
C15   C29   A    
O7    Zn4   S    
C60   N11   S    
O8    Zn3   S    
C46   H8    S    
C61   H68   S    
C50   H24   S    
C15   N2    S    
H18   N20   S    
C33   C56   S    
C4    N1    A    
C3    N12   A    
C10   C21   A    
C64   N12   A    
N12   Zn2   S    
C17   C30   A    
C20   N7    S    
C45   O4    A    
C14   C30   A    
O5    Zn4   S    
C10   N17   S    
O6    Zn3   S    
H72   N16   S    
C61   H70   S    
C38   O14   D    
C57   H52   S    
C60   H63   S    
C27   C34   S    
C59   H59   S    
C21   C32   A    
C17   C24   A    
C55   N7    S    
C54   H42   S    
O3    Zn3   S    
C60   H64   S    
O4    Zn4   S    
C37   O11   D    
C53   H37   S    
H34   O17   S    
C13   C19   A    
C15   C26   A    
C49   H21   S    
C16   C29   A    
H1    O10   S    
C43   O25   D    
H5    N17   S    
O30   Zn2   S    
C34   O29   A    
C8    N14   A    
H56   O21   S    
C39   O16   D    
O2    Zn4   S    
C51   H28   S    
C5    C8    A    
C57   N8    S    
C9    C20   A    
O23   Zn1   S    
C4    C39   S    
C11   C27   A    
C53   H38   S    
H67   O24   S    
H23   O15   S    
H66   N13   S    
C36   O10   S    
C25   N11   S    
C23   C28   S    
C46   H7    S    
C57   H50   S    
C51   H29   S    
C7    N15   A    
N15   Zn4   S    
C54   N6    S    
C48   N19   S    
C19   N6    S    
C55   H46   S    
N1    Zn1   S    
C44   H4    S    
C16   N3    S    
C18   C32   A    
C47   H13   S    
C35   C45   S    
O27   Zn2   S    
C46   H6    S    
C49   H20   S    
C59   H60   S    
C46   N17   S    
C58   H57   S    
C16   C22   A    
C43   O26   S    
C54   H41   S    
C55   H47   S    
C2    N1    A    
C41   O20   D    
C18   N5    S    
C47   H10   S    
C14   N20   S    
C60   H65   S    
C12   O12   A    
C40   O19   S    
H62   N11   S    
C50   N2    S    
C45   O32   A    
O29   Zn1   S    
C6    C7    A    
C47   N18   S    
C59   H61   S    
C31   C63   S    
C4    C64   A    
C52   H35   S    
C24   C33   A    
C5    N15   A    
H49   N8    S    
C48   H16   S    
C1    O1    A    
C2    C3    A    
C32   C62   S    
C23   O28   A    
H45   O19   S    
C24   N10   S    
C23   O31   A    
C2    C37   S    
C49   H19   S    
C53   H39   S    
O28   Zn2   S    
C36   O9    D    
C52   N4    S    
C52   H32   S    
C17   N4    S    
H40   N6    S    
H58   N10   S    
C14   C25   A    
H12   O13   S    
O1    Zn1   S    
O31   Zn1   S    
H22   N2    S    
C51   H30   S    
C47   H11   S    
C6    N14   A    
C59   N10   S    
C26   C35   A    
C12   O23   A    
C58   H55   S    
C5    C40   S    
C44   H3    S    
H71   O26   S    
C26   N13   S    
C36   C64   S    
C61   N13   S    
H44   N7    S    
C9    C28   A    
C25   C33   A    
C20   C31   A    
C51   N3    S    
