data_mof_unit_51172.cif
_audit_creation_date              2012-12-10T19:04:47-0500
_audit_creation_method            fapswitch 2.2
_symmetry_space_group_name_H-M    P1
_symmetry_Int_Tables_number       1
_space_group_crystal_system       triclinic
_cell_length_a                    15.856229
_cell_length_b                    10.81537
_cell_length_c                    9.587036
_cell_angle_alpha                 90.005617
_cell_angle_beta                  90.0488
_cell_angle_gamma                 90.099175
_cell_volume                      1644.08716449

loop_
_atom_site_label
_atom_site_type_symbol
_atom_type_description
_atom_site_fract_x
_atom_site_fract_y
_atom_site_fract_z
_atom_type_partial_charge
C1    C     C_R   0.502209 0.262625 0.500020 0.817507
C2    C     C_3   0.083164 0.493270 0.501739 0.079019
C3    C     C_3   0.971245 0.607555 0.530238 -0.292363
C4    C     C_3   0.916818 0.491177 0.502755 0.075463
C5    C     C_3   0.027458 0.571561 0.403835 -0.261099
C6    C     C_3   0.971549 0.455904 0.375844 -0.171463
C7    C     C_1   0.174816 0.495836 0.501057 -0.000843
C8    C     C_1   0.825188 0.492858 0.502068 -0.038527
C9    C     C_R   0.506970 0.063839 0.624374 0.014568
C10   C     C_R   0.511936 0.129931 0.500145 -0.206550
C11   C     C_R   0.531285 0.066417 0.376639 -0.274879
C12   C     C_R   0.339977 0.499681 0.499984 0.811906
C13   C     C_R   0.530672 0.936847 0.374188 0.473197
C14   C     C_R   0.512491 0.871063 0.498598 -0.180353
C15   C     C_R   0.506525 0.936649 0.623550 -0.029894
C16   C     C_3   0.442984 0.927965 0.738486 -0.495007
C17   C     C_3   0.442388 0.068841 0.739331 0.383850
C18   C     C_R   0.572577 0.480351 0.074192 0.200494
C19   C     C_R   0.427472 0.517078 0.073805 -0.087002
C20   C     C_R   0.427589 0.518227 0.925804 -0.057631
C21   C     C_R   0.571975 0.473074 0.926782 0.164816
C22   C     C_3   0.654565 0.539647 0.916379 -0.167274
C23   C     C_R   0.502694 0.737628 0.499641 0.821189
C24   C     C_3   0.648328 0.563448 0.072983 0.283846
C25   C     C_R   0.660033 0.499189 0.500137 0.820337
C26   C     C_3   0.972642 0.412866 0.599906 0.132858
C27   C     C_3   0.028300 0.378942 0.474160 0.162471
C28   C     C_1   0.250332 0.497846 0.500282 -0.176275
C29   C     C_1   0.749680 0.495761 0.500850 -0.150927
C30   C     C_3   0.027482 0.527714 0.626294 0.531794
Cu1   Cu    Cu3+1 0.500000 0.499980 0.640670 0.947558
Cu2   Cu    Cu3+1 0.500000 0.500020 0.359330 0.975734
H1    H     H_    0.469943 0.885542 0.833945 0.200162
H2    H     H_    0.381343 0.107650 0.702733 0.091000
H3    H     H_    0.368687 0.532587 0.127724 0.152361
H4    H     H_    0.369014 0.535343 0.871719 0.155519
H5    H     H_    0.651443 0.625452 0.852686 0.156878
H6    H     H_    0.630126 0.660201 0.100623 0.097728
H7    H     H_    0.948075 0.424522 0.272631 0.148752
H8    H     H_    0.051217 0.636200 0.322909 0.157617
H9    H     H_    0.946271 0.701355 0.552249 0.143778
H10   H     H_    0.543637 0.116445 0.280919 0.178313
H11   H     H_    0.382303 0.886766 0.703236 0.161047
N1    N     N_R   0.500530 0.500930 0.147930 -0.210163
N2    N     N_R   0.500530 0.500890 0.852020 -0.188984
O1    O     O_R   0.500000 0.319640 0.618810 -0.563813
O2    O     O_R   0.500010 0.319680 0.381230 -0.575619
O3    O     O_R   0.379070 0.499970 0.618770 -0.579492
O4    O     O_R   0.379080 0.500010 0.381190 -0.590813
O5    O     O_R   0.499990 0.680320 0.618770 -0.584847
O6    O     O_R   0.500000 0.680360 0.381190 -0.544490
O7    O     O_R   0.620920 0.499990 0.618810 -0.597482
O8    O     O_R   0.620930 0.500030 0.381230 -0.527768
C31   C     C_3   0.061539 0.250441 0.441098 -0.868707
H12   H     H_    0.007845 0.185983 0.425357 0.236285
H13   H     H_    0.100166 0.253804 0.344697 0.236631
H14   H     H_    0.101044 0.217034 0.528909 0.236549
O9    O     O_3   0.466653 0.121184 0.870192 -0.563642
C32   C     C_3   0.554719 0.124105 0.893529 -0.266048
H15   H     H_    0.586024 0.190729 0.822049 0.180010
H16   H     H_    0.583241 0.030703 0.884011 0.154629
H17   H     H_    0.566304 0.156881 0.001505 0.171729
C33   C     C_3   0.727146 0.451521 0.875933 -0.743228
H18   H     H_    0.787218 0.504060 0.872292 0.215070
H19   H     H_    0.733620 0.374124 0.951403 0.248617
H20   H     H_    0.717035 0.407750 0.773402 0.234200
O10   O     O_3   0.716384 0.514900 0.150784 -0.537805
C34   C     C_3   0.777730 0.608320 0.168411 -0.294221
H21   H     H_    0.755421 0.678892 0.244195 0.171950
H22   H     H_    0.794983 0.653257 0.067874 0.140744
H23   H     H_    0.835796 0.566122 0.210977 0.183956
C35   C     C_3   0.941530 0.321417 0.709043 -0.863052
H24   H     H_    0.996263 0.280236 0.764139 0.247665
H25   H     H_    0.900647 0.368944 0.785658 0.226954
H26   H     H_    0.904772 0.246928 0.657438 0.233503
O11   O     O_3   0.062939 0.560096 0.756435 -0.572160
C36   C     C_3   0.003209 0.625147 0.836437 -0.332663
H27   H     H_    0.941629 0.576053 0.841983 0.150962
H28   H     H_    0.994431 0.720092 0.794660 0.160035
H29   H     H_    0.027470 0.633878 0.944555 0.188374
O12   O     O_3   0.550337 0.875320 0.251948 -0.581543
C37   C     C_3   0.480779 0.881764 0.160416 -0.304184
H30   H     H_    0.421467 0.849558 0.211034 0.160693
H31   H     H_    0.492976 0.819468 0.070887 0.170959
H32   H     H_    0.472503 0.976917 0.119122 0.191533

loop_
_geom_bond_atom_site_label_1
_geom_bond_atom_site_label_2
_ccdc_geom_bond_type
C33   H19   S    
C18   C21   A    
C26   C35   S    
C19   C20   A    
Cu1   O7    S    
C12   O3    A    
C12   O4    A    
C27   C31   S    
C36   H27   S    
C26   C27   S    
C12   C28   S    
C18   C24   S    
C8    C29   T    
C25   O8    A    
C5    C6    S    
C1    O1    A    
C15   C16   S    
C13   O12   S    
C11   H10   S    
C24   O10   S    
C22   C33   S    
C34   H21   S    
Cu1   Cu2   S    
C16   C17   S    
Cu1   O1    S    
C24   H6    S    
C2    C27   S    
C9    C10   A    
C20   N2    A    
C4    C8    S    
C17   O9    S    
C33   H20   S    
C32   H15   S    
C13   C14   A    
C35   H26   S    
O12   C37   S    
C21   N2    A    
C36   H28   S    
C25   C29   S    
C31   H13   S    
C32   H16   S    
O10   C34   S    
O11   C36   S    
C4    C6    S    
C1    O2    A    
C23   O5    A    
O9    C32   S    
C22   H5    S    
C7    C28   T    
C14   C23   S    
C3    C30   S    
Cu2   O6    S    
C18   N1    A    
C16   H1    S    
C30   O11   S    
C23   O6    A    
C6    C27   S    
Cu2   N1    S    
C16   H11   S    
C35   H25   S    
C26   C30   S    
C37   H31   S    
Cu1   O3    S    
C2    C7    S    
Cu2   O2    S    
C22   C24   S    
C2    C5    S    
C17   H2    S    
Cu1   O5    S    
C3    C4    S    
Cu2   O8    S    
C19   N1    A    
C36   H29   S    
C9    C17   S    
C31   H12   S    
C3    H9    S    
C32   H17   S    
C14   C15   A    
C1    C10   S    
C35   H24   S    
C3    C5    S    
C4    C26   S    
C37   H32   S    
C2    C30   S    
C9    C15   A    
C25   O7    A    
C19   H3    S    
C11   C13   A    
C34   H23   S    
Cu2   O4    S    
C10   C11   A    
C33   H18   S    
C20   H4    S    
C34   H22   S    
C37   H30   S    
Cu1   N2    S    
C5    H8    S    
C6    H7    S    
C21   C22   S    
C31   H14   S    
