data_mof_unit_42158.cif
_audit_creation_date              2013-03-05T15:55:53-0500
_audit_creation_method            fapswitch 2.2
_symmetry_space_group_name_H-M    P1
_symmetry_Int_Tables_number       1
_space_group_crystal_system       triclinic
_cell_length_a                    12.563019
_cell_length_b                    13.060457
_cell_length_c                    15.82283
_cell_angle_alpha                 72.979227
_cell_angle_beta                  101.765926
_cell_angle_gamma                 117.694298
_cell_volume                      2191.00721495

loop_
_atom_site_label
_atom_site_type_symbol
_atom_site_description
_atom_site_fract_x
_atom_site_fract_y
_atom_site_fract_z
_atom_type_partial_charge
O1    O     O_R   0.972510 0.318130 0.524770 -0.496692
O2    O     O_R   0.806530 0.359650 0.491510 -0.524532
C1    C     C_R   0.855241 0.285063 0.506859 0.926040
O3    O     O_R   0.082970 0.479240 0.637550 -0.510048
O4    O     O_R   0.916990 0.520750 0.604290 -0.531865
C2    C     C_R   0.000816 0.499509 0.659938 0.860761
Cu1   Cu    Cu3+1 0.098270 0.475420 0.519690 1.152170
Cu2   Cu    Cu3+1 0.901730 0.524580 0.480310 1.069844
O5    O     O_R   0.193470 0.640350 0.508490 -0.506213
O6    O     O_R   0.027490 0.681870 0.475230 -0.523575
O7    O     O_R   0.083010 0.479250 0.395710 -0.522083
O8    O     O_R   0.917030 0.520760 0.362450 -0.584155
C3    C     C_R   0.144705 0.715936 0.485217 0.966889
C4    C     C_R   0.998835 0.499929 0.340193 0.870021
C5    C     C_3   0.029169 0.414032 0.053835 0.290153
C6    C     C_3   0.919365 0.389818 0.984421 -0.277166
H1    H     H_    0.854057 0.301958 0.970936 0.196851
C7    C     C_1   0.002469 0.498473 0.750180 -0.055897
C8    C     C_1   0.996250 0.499171 0.250364 -0.017334
C9    C     C_3   0.111640 0.519688 0.985982 -0.178924
C10   C     C_3   0.001141 0.497427 0.917528 -0.053232
C11   C     C_3   0.077352 0.602432 0.015702 0.363944
C12   C     C_3   0.997354 0.497310 0.083738 -0.159939
C13   C     C_3   0.968742 0.582663 0.945439 -0.199757
C14   C     C_3   0.889481 0.475577 0.014149 0.395797
C15   C     C_1   0.002491 0.497815 0.825975 0.108056
C16   C     C_1   0.995944 0.498186 0.175013 0.181659
H2    H     H_    0.943844 0.652396 0.900107 0.226677
H3    H     H_    0.203436 0.537941 0.973800 0.221362
C17   C     C_R   0.287887 0.045300 0.371044 0.358555
H4    H     H_    0.481710 0.238822 0.306649 0.181644
C18   C     C_R   0.227249 0.844649 0.463772 -0.328748
C19   C     C_R   0.806832 0.066061 0.551234 0.321764
C20   C     C_R   0.718292 0.946268 0.563895 0.274153
C21   C     C_R   0.597333 0.922132 0.538141 -0.145022
C22   C     C_R   0.561471 0.013000 0.495253 0.026434
C23   C     C_R   0.652525 0.128186 0.465748 -0.029784
C24   C     C_R   0.437926 0.989074 0.471471 -0.007808
C25   C     C_R   0.409070 0.073188 0.403875 -0.131281
C26   C     C_R   0.501917 0.179252 0.364103 -0.231738
C27   C     C_R   0.622875 0.206727 0.393016 0.460626
C28   C     C_R   0.341581 0.883666 0.511312 0.306520
C29   C     C_R   0.200918 0.926708 0.391133 0.358367
C30   C     C_R   0.772264 0.158318 0.505590 -0.167810
H5    H     H_    0.531750 0.830755 0.546206 0.236086
C31   C     C_R   0.373164 0.374780 0.665346 -0.187798
H6    H     H_    0.386231 0.333333 0.734329 0.255404
N1    N     N_R   0.246280 0.438200 0.549540 -0.291757
C32   C     C_R   0.738389 0.604725 0.362520 0.021125
C33   C     C_R   0.622030 0.572829 0.320382 0.354034
C34   C     C_R   0.524822 0.513440 0.372663 -0.050662
C35   C     C_R   0.542525 0.503623 0.464643 -0.110363
C36   C     C_R   0.656433 0.505990 0.503052 0.207459
C37   C     C_R   0.447026 0.470497 0.519598 -0.149408
C38   C     C_R   0.465094 0.421685 0.610471 -0.032468
C39   C     C_R   0.571952 0.411245 0.646430 0.356273
C40   C     C_R   0.657389 0.435706 0.589978 0.330051
C41   C     C_R   0.339734 0.491812 0.491749 0.489489
C42   C     C_R   0.261930 0.373733 0.634046 0.506862
N2    N     N_R   0.754330 0.561180 0.450980 -0.197168
H7    H     H_    0.814127 0.647281 0.322691 0.173966
H8    H     H_    0.436325 0.473957 0.340831 0.221629
S1    S     S_3+6 0.351853 0.819639 0.627461 0.031446
O9    O     O_2   0.237370 0.788540 0.665409 -0.266143
O10   O     O_2   0.368359 0.708378 0.643507 -0.269003
O11   O     O_3   0.468232 0.917270 0.679468 -0.509980
H9    H     H_    0.477386 0.870727 0.740112 0.400043
O12   O     O_3   0.927062 0.095942 0.579109 -0.631479
H10   H     H_    0.936457 0.028185 0.622225 0.401889
S2    S     S_3+6 0.754473 0.824102 0.611687 0.044921
O13   O     O_2   0.795073 0.821926 0.708085 -0.211877
O14   O     O_2   0.646992 0.708531 0.604252 -0.285073
O15   O     O_3   0.866967 0.838740 0.560165 -0.474637
H11   H     H_    0.832015 0.832129 0.498875 0.378582
O16   O     O_3   0.713039 0.301609 0.343929 -0.718723
H12   H     H_    0.677565 0.347554 0.295636 0.348515
S3    S     S_3+6 0.156695 0.294316 0.717883 0.072877
O17   O     O_2   0.172176 0.183709 0.766192 -0.249686
O18   O     O_2   0.191602 0.370906 0.782888 -0.273553
O19   O     O_3   0.009686 0.251187 0.686289 -0.495888
H13   H     H_    0.968988 0.216015 0.742129 0.360078
O20   O     O_3   0.587662 0.367466 0.736745 -0.687923
H14   H     H_    0.674811 0.389896 0.753790 0.351889
S4    S     S_3+6 0.339556 0.598019 0.386033 0.057014
O21   O     O_2   0.467351 0.686311 0.368229 -0.269626
O22   O     O_2   0.284638 0.530146 0.314067 -0.270128
O23   O     O_3   0.268579 0.683834 0.370409 -0.519601
H15   H     H_    0.276605 0.727956 0.307578 0.397725
S5    S     S_3+6 0.069638 0.302245 0.126212 0.114205
O24   O     O_2   0.181205 0.359246 0.183849 -0.181837
O25   O     O_2   0.968678 0.214739 0.183750 -0.215769
O26   O     O_3   0.097407 0.231443 0.066250 -0.417646
H16   H     H_    0.022165 0.199588 0.028015 0.353598
O27   O     O_3   0.600308 0.593067 0.229363 -0.637429
H17   H     H_    0.678605 0.634426 0.202393 0.349862
O28   O     O_3   0.718209 0.365996 0.611825 -0.713944
H18   H     H_    0.680392 0.295007 0.659632 0.327508
S6    S     S_3+6 0.742175 0.446371 0.033354 0.057865
O29   O     O_2   0.692729 0.334398 0.104098 -0.250297
O30   O     O_2   0.748562 0.548527 0.063008 -0.265660
O31   O     O_3   0.652629 0.430066 0.938823 -0.468372
H19   H     H_    0.572878 0.414286 0.953994 0.404577
S7    S     S_3+6 0.182166 0.743205 0.037462 0.074865
O32   O     O_2   0.116319 0.797063 0.065850 -0.244243
O33   O     O_2   0.274823 0.727206 0.110063 -0.223035
O34   O     O_3   0.250174 0.832427 0.944738 -0.465881
H20   H     H_    0.306504 0.908562 0.961310 0.399645
S8    S     S_3+6 0.064850 0.883467 0.320853 0.087773
O35   O     O_2   0.960929 0.853375 0.371124 -0.277578
O36   O     O_2   0.069597 0.980476 0.239837 -0.134835
O37   O     O_3   0.044199 0.764169 0.287530 -0.571928
H21   H     H_    0.991150 0.764008 0.231827 0.377898
O38   O     O_3   0.254099 0.130197 0.314814 -0.592342
H22   H     H_    0.303520 0.206476 0.333097 0.333901

loop_
_geom_bond_atom_site_label_1
_geom_bond_atom_site_label_2
_geom_bond_distance
_ccdc_geom_bond_type
C10   C15   1.450679 S    
S1    O10   1.503879 D    
C6    C10   1.543208 S    
C31   C42   1.379219 A    
O15   H11   0.990376 S    
C3    C18   1.485141 S    
C21   C22   1.404557 A    
C7    C15   1.196751 T    
S4    O23   1.670097 S    
C38   C39   1.399188 A    
C42   S3    1.794017 S    
Cu1   Cu2   2.740257 S    
S3    O17   1.504326 D    
C39   C40   1.398999 A    
Cu1   O7    1.919808 S    
O31   H19   0.990515 S    
C32   N2    1.359475 A    
C22   C23   1.413051 A    
S4    O22   1.503505 D    
C24   C28   1.418427 A    
O4    C2    1.308312 A    
O7    C4    1.307908 A    
C5    S5    1.781908 S    
O34   H20   0.990555 S    
C5    C6    1.545710 S    
S6    O29   1.502777 D    
S8    O35   1.501745 D    
C20   C21   1.397149 A    
C31   H6    1.083968 S    
O5    C3    1.320148 A    
H4    C26   1.082406 S    
O12   H10   0.986543 S    
O37   H21   0.990561 S    
C6    H1    1.110071 S    
C40   O28   1.373635 S    
C31   C38   1.379475 A    
S2    O13   1.502756 D    
C12   C16   1.451389 S    
S5    O25   1.502717 D    
C8    C16   1.195298 T    
C20   S2    1.775327 S    
C5    C12   1.532673 S    
O11   H9    0.990955 S    
S1    O11   1.682690 S    
C34   H8    1.070722 S    
O3    Cu1   1.930486 S    
C36   N2    1.397348 A    
C35   C37   1.451018 A    
C33   C34   1.390408 A    
C9    H3    1.110030 S    
S3    O18   1.503819 D    
C5    C9    1.545223 S    
C2    C7    1.419968 S    
C1    C30   1.494732 S    
C32   H7    1.076733 S    
C34   C35   1.403319 A    
C13   C14   1.544806 S    
O3    C2    1.311018 A    
C25   C26   1.400931 A    
C36   C40   1.413823 A    
C33   O27   1.379262 S    
C11   S7    1.779933 S    
O1    C1    1.321842 A    
O16   H12   0.991872 S    
C41   S4    1.834417 S    
C27   O16   1.382951 S    
Cu2   O8    1.930487 S    
O28   H18   0.992008 S    
S2    O15   1.681049 S    
C19   C20   1.419512 A    
S7    O33   1.502838 D    
S4    O21   1.503360 D    
S5    O26   1.680890 S    
N1    C41   1.415528 A    
C26   C27   1.397487 A    
C9    C11   1.545111 S    
O20   H14   0.992449 S    
S6    O30   1.502781 D    
C11   C13   1.544794 S    
C17   C29   1.405063 A    
C21   H5    1.076629 S    
C35   C36   1.425951 A    
N1    C42   1.386738 A    
O38   H22   0.991054 S    
C37   C41   1.457145 A    
S3    O19   1.673173 S    
C6    C14   1.545325 S    
Cu1   O5    1.889473 S    
C37   C38   1.410722 A    
O1    Cu1   1.913373 S    
C19   C30   1.418100 A    
C4    C8    1.417921 S    
O2    Cu2   1.889473 S    
C13   H2    1.110239 S    
O8    C4    1.310662 A    
O19   H13   0.990652 S    
O6    C3    1.314791 A    
O4    Cu2   1.919808 S    
C39   O20   1.385478 S    
S6    O31   1.680996 S    
S8    O37   1.679991 S    
Cu1   N1    2.065077 S    
C23   C30   1.422462 A    
C22   C24   1.424109 A    
O2    C1    1.318116 A    
Cu2   N2    2.053149 S    
C24   C25   1.416469 A    
O26   H16   0.990556 S    
C18   C29   1.425611 A    
S8    O36   1.504059 D    
C17   C25   1.411781 A    
S7    O34   1.680865 S    
C29   S8    1.781219 S    
C12   C14   1.531805 S    
C23   C27   1.415840 A    
O27   H17   0.991881 S    
S1    O9    1.503501 D    
C14   S6    1.779863 S    
C9    C10   1.542981 S    
O23   H15   0.990987 S    
Cu2   O6    1.913373 S    
C32   C33   1.397891 A    
C10   C13   1.543463 S    
S7    O32   1.502748 D    
C18   C28   1.411397 A    
C11   C12   1.532095 S    
S2    O14   1.503385 D    
S5    O24   1.502249 D    
C28   S1    1.788114 S    
C19   O12   1.381838 S    
C17   O38   1.380992 S    
