data_mof_unit_31763.cif
_audit_creation_date              2012-10-26T19:58:21-0400
_audit_creation_method            fapswitch 2.2
_symmetry_space_group_name_H-M    P1
_symmetry_Int_Tables_number       1
_space_group_crystal_system       triclinic
_cell_length_a                    7.485856
_cell_length_b                    8.680502
_cell_length_c                    13.471138
_cell_angle_alpha                 94.284043
_cell_angle_beta                  79.192868
_cell_angle_gamma                 102.968351
_cell_volume                      837.42450627

loop_
_atom_site_label
_atom_site_type_symbol
_atom_type_description
_atom_site_fract_x
_atom_site_fract_y
_atom_site_fract_z
_atom_type_partial_charge
C1    C     C_R   0.545062 0.800030 0.503295 0.546035
C2    C     C_R   0.351204 0.441250 0.800777 0.033349
C3    C     C_2   0.570311 0.968005 0.505066 -0.144073
C4    C     C_R   0.402080 0.481591 0.693102 0.560697
C5    C     C_2   0.429244 0.032038 0.495914 -0.147811
C6    C     C_R   0.454735 0.199982 0.497125 0.544163
C7    C     C_R   0.598162 0.515165 0.307500 0.533270
C8    C     C_R   0.802121 0.747444 0.076125 -0.108667
C9    C     C_R   0.647579 0.554820 0.201848 0.009614
C10   C     C_R   0.194616 0.321772 0.831210 -0.035023
C11   C     C_R   0.145377 0.276907 0.931566 -0.076200
C12   C     C_R   0.414464 0.467234 0.974783 0.019458
C13   C     C_R   0.249740 0.352276 0.003607 -0.109510
C14   C     C_R   0.468979 0.506461 0.871642 0.023161
C15   C     C_R   0.534174 0.541324 0.043165 0.045220
C16   C     C_R   0.679344 0.673792 0.011373 0.042422
C17   C     C_R   0.715880 0.714713 0.910219 -0.107211
C18   C     C_R   0.650161 0.597011 0.841948 0.251827
C19   C     C_R   0.522662 0.482760 0.138382 -0.102847
C20   C     C_R   0.787035 0.687225 0.170977 -0.125063
Cu1   Cu    Cu3+1 0.321300 0.483160 0.488710 0.973444
Cu2   Cu    Cu3+1 0.678700 0.516840 0.511290 1.008417
H1    H     H_    0.879110 0.747315 0.221586 0.122827
H2    H     H_    0.022368 0.185544 0.954151 0.131366
H3    H     H_    0.706225 0.039308 0.513775 0.133729
H4    H     H_    0.874928 0.304468 0.685289 0.354387
H5    H     H_    0.293284 0.960744 0.487307 0.131546
H6    H     H_    0.016159 0.629168 0.572062 0.275983
H7    H     H_    0.985318 0.374159 0.425256 0.233758
H8    H     H_    0.839143 0.803998 0.883679 0.130717
H9    H     H_    0.913175 0.848118 0.052115 0.106955
H10   H     H_    0.418369 0.379848 0.165007 0.106798
H11   H     H_    0.110725 0.261557 0.776860 0.139722
H12   H     H_    0.198501 0.318931 0.081030 0.101928
N1    N     N_2   0.947230 0.542220 0.528320 -0.231805
N2    N     N_2   0.052770 0.457780 0.471680 -0.270248
O1    O     O_R   0.383920 0.714220 0.492660 -0.505264
O2    O     O_2   0.848508 0.413415 0.894424 -0.308120
O3    O     O_3   0.757003 0.331935 0.720295 -0.499315
O4    O     O_R   0.685730 0.742660 0.511730 -0.507980
O5    O     O_R   0.275440 0.478800 0.636790 -0.471542
O6    O     O_R   0.577250 0.507240 0.655860 -0.442478
O7    O     O_R   0.314270 0.257340 0.488270 -0.515456
O8    O     O_R   0.616080 0.285780 0.507340 -0.493864
O9    O     O_R   0.422750 0.492760 0.344140 -0.507546
O10   O     O_R   0.724560 0.521200 0.363210 -0.512647
O11   O     O_2   0.998368 0.590642 0.755998 -0.331483
S1    S     S_3+6 0.819976 0.482801 0.801383 -0.006640

loop_
_geom_bond_atom_site_label_1
_geom_bond_atom_site_label_2
_ccdc_geom_bond_type
C2    C4    S    
C20   H1    S    
Cu2   N1    S    
C14   C18   A    
C9    C20   A    
O2    S1    D    
N1    N2    D    
C12   C15   A    
C1    O1    A    
Cu2   O4    S    
C17   C18   A    
C13   H12   S    
C8    C16   A    
Cu1   N2    S    
C6    O8    A    
Cu1   Cu2   S    
C15   C19   A    
C17   H8    S    
C11   C13   A    
H7    N2    S    
Cu2   O6    S    
C4    O6    A    
C8    C20   A    
Cu1   O5    S    
C19   H10   S    
C7    O9    A    
Cu2   O10   S    
C12   C14   A    
C10   H11   S    
Cu1   O9    S    
C6    O7    A    
C5    C6    S    
C2    C14   A    
Cu2   O8    S    
H4    O3    S    
C10   C11   A    
C15   C16   A    
C2    C10   A    
C7    O10   A    
C11   H2    S    
C3    H3    S    
Cu1   O1    S    
C12   C13   A    
C4    O5    A    
C7    C9    S    
O3    S1    S    
C1    O4    A    
C3    C5    D    
C5    H5    S    
C8    H9    S    
C9    C19   A    
Cu1   O7    S    
O11   S1    D    
H6    N1    S    
C16   C17   A    
C1    C3    S    
C18   S1    S    
