data_mof_unit_8959.cif
_audit_creation_date              2012-12-11T17:24:06-0500
_audit_creation_method            fapswitch 2.2
_symmetry_space_group_name_H-M    P1
_symmetry_Int_Tables_number       1
_space_group_crystal_system       triclinic
_cell_length_a                    22.841819
_cell_length_b                    7.202696
_cell_length_c                    20.92303
_cell_angle_alpha                 90.000037
_cell_angle_beta                  93.682911
_cell_angle_gamma                 90.0
_cell_volume                      3435.20394314

loop_
_atom_site_label
_atom_site_type_symbol
_atom_type_description
_atom_site_fract_x
_atom_site_fract_y
_atom_site_fract_z
_atom_type_partial_charge
O1    O     O_R   0.307200 0.614510 0.194080 -0.524196
O2    O     O_R   0.692800 0.385490 0.805920 -0.525923
O3    O     O_R   0.192800 0.114510 0.305920 -0.524196
O4    O     O_R   0.807200 0.885490 0.694080 -0.525922
O5    O     O_R   0.188140 0.283260 0.181690 -0.541685
O6    O     O_R   0.811860 0.716740 0.818310 -0.541626
O7    O     O_R   0.311860 0.783260 0.318310 -0.541686
O8    O     O_R   0.688140 0.216740 0.681690 -0.541626
C1    C     C_R   0.168255 0.453432 0.165994 0.692590
C2    C     C_R   0.831734 0.546553 0.834024 0.694720
C3    C     C_R   0.331745 0.953432 0.334006 0.692589
C4    C     C_R   0.668266 0.046553 0.665976 0.694720
O9    O     O_R   0.306460 0.284700 0.186400 -0.531304
O10   O     O_R   0.693540 0.715300 0.813600 -0.532529
O11   O     O_R   0.193540 0.784700 0.313600 -0.531305
O12   O     O_R   0.806460 0.215300 0.686400 -0.532529
O13   O     O_R   0.311970 0.115840 0.310660 -0.533393
O14   O     O_R   0.688030 0.884160 0.689340 -0.533141
O15   O     O_R   0.188030 0.615840 0.189340 -0.533393
O16   O     O_R   0.811970 0.384160 0.810660 -0.533139
C5    C     C_R   0.325279 0.453312 0.171685 0.696828
C6    C     C_R   0.674733 0.546685 0.828325 0.699061
C7    C     C_R   0.174721 0.953311 0.328315 0.696825
C8    C     C_R   0.825267 0.046685 0.671675 0.699062
O17   O     O_3   0.251670 0.448440 0.290760 -0.366099
O18   O     O_3   0.748330 0.551560 0.709240 -0.369054
O19   O     O_3   0.248330 0.948440 0.209240 -0.366098
O20   O     O_3   0.751670 0.051560 0.790760 -0.369054
V1    V     V_3+5 0.249690 0.173030 0.242440 1.559089
V2    V     V_3+5 0.750310 0.826970 0.757560 1.532215
V3    V     V_3+5 0.250310 0.673030 0.257560 1.559086
V4    V     V_3+5 0.749690 0.326970 0.742440 1.532217
C9    C     C_R   0.994584 0.157469 0.538044 -0.199129
C10   C     C_R   0.005283 0.842493 0.461810 -0.188434
C11   C     C_R   0.505416 0.657469 0.961956 -0.199137
C12   C     C_R   0.494717 0.342493 0.038190 -0.188434
H1    H     H_    0.990509 0.279260 0.567750 0.226570
H2    H     H_    0.009393 0.720689 0.432121 0.225300
H3    H     H_    0.509491 0.779260 0.932250 0.226568
H4    H     H_    0.490607 0.220689 0.067879 0.225300
C13   C     C_R   0.954704 0.010788 0.543199 -0.090734
C14   C     C_R   0.045168 0.989180 0.456664 -0.097064
C15   C     C_R   0.545296 0.510788 0.956801 -0.090734
C16   C     C_R   0.454832 0.489180 0.043336 -0.097064
C17   C     C_R   0.960274 0.851308 0.504735 0.491983
C18   C     C_R   0.039586 0.148632 0.495128 0.414290
C19   C     C_R   0.539726 0.351308 0.995265 0.491983
C20   C     C_R   0.460414 0.648632 0.004872 0.414286
C21   C     C_1   0.908767 0.026261 0.588375 0.164070
C22   C     C_1   0.091148 0.973709 0.411538 0.158871
C23   C     C_1   0.591233 0.526261 0.911625 0.164063
C24   C     C_1   0.408852 0.473709 0.088462 0.158871
C25   C     C_1   0.129375 0.962939 0.373816 -0.071610
C26   C     C_1   0.870577 0.037045 0.626137 -0.088239
C27   C     C_1   0.370625 0.462939 0.126184 -0.071607
C28   C     C_1   0.629423 0.537045 0.873863 -0.088244
C29   C     C_R   0.422740 0.109064 0.380621 -0.076749
C30   C     C_R   0.577623 0.889924 0.618931 -0.077857
C31   C     C_R   0.077260 0.609064 0.119379 -0.076730
C32   C     C_R   0.922377 0.389926 0.881068 -0.077842
C33   C     C_R   0.381792 0.964406 0.382923 -0.107623
C34   C     C_R   0.618340 0.035346 0.616910 -0.105698
C35   C     C_R   0.118208 0.464406 0.117077 -0.107625
C36   C     C_R   0.881661 0.535347 0.883090 -0.105700
C37   C     C_R   0.388682 0.831910 0.432058 -0.110166
C38   C     C_R   0.611465 0.167831 0.567760 -0.106300
C39   C     C_R   0.111318 0.331911 0.067941 -0.110147
C40   C     C_R   0.888535 0.667831 0.932240 -0.106288
C41   C     C_R   0.436113 0.841333 0.478909 -0.024948
C42   C     C_R   0.564450 0.157011 0.520430 0.011121
C43   C     C_R   0.063887 0.341336 0.021090 -0.024934
C44   C     C_R   0.935550 0.657012 0.979569 0.011082
C45   C     C_R   0.476635 0.990542 0.476268 0.016156
C46   C     C_R   0.523889 0.007943 0.523113 0.034174
C47   C     C_R   0.023365 0.490543 0.023732 0.015959
C48   C     C_R   0.976111 0.507944 0.976886 0.034024
C49   C     C_R   0.469823 0.123235 0.426830 0.110347
C50   C     C_R   0.530682 0.875332 0.572575 0.088406
C51   C     C_R   0.030177 0.623235 0.073170 0.110291
C52   C     C_R   0.969318 0.375335 0.927424 0.088427
C53   C     C_R   0.444184 0.707715 0.528627 0.438745
C54   C     C_R   0.556894 0.289120 0.470184 0.408892
C55   C     C_R   0.055818 0.207721 0.971371 0.438670
C56   C     C_R   0.943107 0.789122 0.029815 0.408878
C57   C     C_R   0.491039 0.727520 0.574807 -0.202220
C58   C     C_R   0.509759 0.270181 0.424290 -0.214057
C59   C     C_R   0.008963 0.227525 0.925191 -0.202225
C60   C     C_R   0.990241 0.770181 0.075710 -0.214071
H5    H     H_    0.417909 0.211498 0.342660 0.116025
H6    H     H_    0.582488 0.787312 0.656832 0.116500
H7    H     H_    0.082090 0.711498 0.157340 0.116028
H8    H     H_    0.917513 0.287315 0.843167 0.116500
H9    H     H_    0.496935 0.626310 0.612963 0.180348
H10   H     H_    0.503927 0.370993 0.386022 0.152900
H11   H     H_    0.003066 0.126316 0.887035 0.180347
H12   H     H_    0.996074 0.870994 0.113977 0.152914
S1    S     S_3+6 0.088395 0.338265 0.490243 0.055052
O21   O     O_2   0.083019 0.415719 0.423443 -0.316259
O22   O     O_2   0.074782 0.488667 0.536852 -0.309340
O23   O     O_3   0.157668 0.264640 0.506007 -0.458027
H13   H     H_    0.157708 0.206451 0.548905 0.354672
S2    S     S_3+6 0.911582 0.661554 0.509830 0.036694
O24   O     O_2   0.925399 0.511608 0.463134 -0.305572
O25   O     O_2   0.916979 0.584751 0.576749 -0.351189
O26   O     O_3   0.842500 0.736387 0.493520 -0.475041
H14   H     H_    0.817317 0.629278 0.503130 0.391382
S3    S     S_3+6 0.411605 0.838265 0.009756 0.055056
O27   O     O_2   0.416981 0.915719 0.076557 -0.316258
O28   O     O_2   0.425218 0.988667 0.963148 -0.309343
O29   O     O_3   0.342332 0.764640 0.993993 -0.458011
H15   H     H_    0.342292 0.706448 0.951096 0.354681
S4    S     S_3+6 0.588418 0.161554 0.990171 0.036692
O30   O     O_2   0.574601 0.011608 0.036866 -0.305572
O31   O     O_2   0.583021 0.084751 0.923251 -0.351193
O32   O     O_3   0.657500 0.236388 0.006481 -0.475039
H16   H     H_    0.682683 0.129279 0.996870 0.391382
H17   H     H_    0.355679 0.725250 0.433894 0.206990
H18   H     H_    0.644043 0.276001 0.566389 0.200521
H19   H     H_    0.144320 0.225249 0.066106 0.206989
H20   H     H_    0.855956 0.776000 0.933611 0.200521
S5    S     S_3+6 0.396607 0.515251 0.536103 0.008621
O33   O     O_2   0.338935 0.583477 0.557707 -0.281097
O34   O     O_2   0.386365 0.419220 0.472647 -0.362133
O35   O     O_3   0.425810 0.362663 0.590109 -0.504992
H21   H     H_    0.403959 0.245516 0.581554 0.376257
S6    S     S_3+6 0.606023 0.476988 0.461468 0.022209
O36   O     O_2   0.613919 0.583378 0.523115 -0.332152
O37   O     O_2   0.664643 0.401967 0.445152 -0.300734
O38   O     O_3   0.580661 0.623335 0.403392 -0.483615
H22   H     H_    0.592215 0.566929 0.362899 0.358458
S7    S     S_3+6 0.103397 0.015262 0.963894 0.008732
O39   O     O_2   0.161074 0.083489 0.942303 -0.280921
O40   O     O_2   0.113630 0.919220 0.027349 -0.362243
O41   O     O_3   0.074201 0.862691 0.909875 -0.504901
H23   H     H_    0.095863 0.745311 0.918611 0.376144
S8    S     S_3+6 0.893980 0.976995 0.038530 0.022218
O42   O     O_2   0.886081 0.083375 0.976881 -0.332152
O43   O     O_2   0.835360 0.901979 0.054851 -0.300729
O44   O     O_3   0.919345 0.123351 0.096603 -0.483604
H24   H     H_    0.907789 0.066958 0.137098 0.358460

loop_
_geom_bond_atom_site_label_1
_geom_bond_atom_site_label_2
_ccdc_geom_bond_type
C30   C34   A    
C55   C59   A    
C60   H12   S    
O1    C5    A    
S6    O36   D    
O19   V1    S    
O13   V1    S    
C45   C46   A    
O3    C7    A    
C10   C14   A    
C44   C48   A    
S7    O41   S    
O15   V3    S    
S4    O31   D    
S1    O21   D    
O7    C3    A    
C29   H5    S    
S2    O26   S    
C36   C40   A    
O9    V1    S    
C52   C59   A    
O4    C8    A    
C20   S3    S    
C8    C26   S    
C21   C26   T    
O1    V3    S    
C12   C19   A    
O2    V4    S    
C23   C28   T    
C14   C18   A    
O3    V1    S    
C45   C49   A    
C42   C46   A    
C54   S6    S    
S5    O35   S    
C58   H10   S    
O29   H15   S    
C57   H9    S    
C1    O15   A    
C56   S8    S    
C2    O16   A    
C59   H11   S    
O2    C6    A    
S3    O27   D    
C41   C45   A    
O14   V2    S    
C11   C15   A    
O5    V1    S    
C24   C27   T    
C40   C44   A    
C16   C24   S    
O11   C7    A    
O12   C8    A    
C10   H2    S    
C9    C18   A    
S3    O28   D    
O10   V2    S    
S8    O44   S    
C11   C20   A    
C13   C21   S    
S4    O30   D    
S1    O22   D    
C7    C25   S    
C43   C55   A    
C32   H8    S    
C35   C39   A    
C22   C25   T    
O7    V3    S    
C34   C38   A    
O8    V4    S    
C29   C49   A    
C12   H4    S    
S8    O43   D    
C31   C51   A    
C5    C27   S    
O18   V4    S    
C6    C28   S    
S6    O38   S    
C3    C33   S    
C54   C58   A    
O11   V3    S    
C9    H1    S    
C53   S5    S    
C56   C60   A    
C11   H3    S    
C47   C48   A    
O5    C1    A    
C4    C34   S    
O8    C4    A    
O9    C5    A    
C10   C17   A    
C31   H7    S    
S2    O25   D    
C30   H6    S    
S5    O33   D    
C44   C56   A    
C51   C60   A    
C14   C22   S    
C50   C57   A    
O6    V2    S    
C18   S1    S    
C49   C58   A    
C15   C19   A    
C38   H18   S    
S3    O29   S    
C12   C16   A    
S7    O39   D    
S1    O23   S    
O38   H22   S    
O16   V4    S    
C3    O13   A    
S6    O37   D    
C32   C52   A    
C1    C35   S    
O17   V3    S    
C2    C36   S    
C48   C52   A    
S8    O42   D    
S7    O40   D    
O6    C2    A    
O44   H24   S    
C29   C33   A    
O41   H23   S    
O12   V4    S    
O26   H14   S    
C31   C35   A    
C32   C36   A    
C9    C13   A    
O10   C6    A    
O20   V2    S    
C55   S7    S    
C16   C20   A    
C13   C17   A    
C40   H20   S    
C43   C47   A    
C15   C23   S    
O32   H16   S    
C38   C42   A    
C39   H19   S    
C37   C41   A    
O23   H13   S    
C39   C43   A    
S2    O24   D    
C42   C54   A    
C53   C57   A    
S5    O34   D    
C41   C53   A    
C17   S2    S    
C30   C50   A    
C33   C37   A    
C46   C50   A    
C4    O14   A    
C37   H17   S    
C47   C51   A    
S4    O32   S    
O4    V2    S    
C19   S4    S    
O35   H21   S    
