data_mof_unit_57227.cif
_audit_creation_date              2012-10-26T19:42:17-0400
_audit_creation_method            fapswitch 2.2
_symmetry_space_group_name_H-M    P1
_symmetry_Int_Tables_number       1
_space_group_crystal_system       triclinic
_cell_length_a                    9.575835
_cell_length_b                    10.815743
_cell_length_c                    17.370205
_cell_angle_alpha                 92.983264
_cell_angle_beta                  85.938018
_cell_angle_gamma                 88.331413
_cell_volume                      1791.10500215

loop_
_atom_site_label
_atom_site_type_symbol
_atom_type_description
_atom_site_fract_x
_atom_site_fract_y
_atom_site_fract_z
_atom_type_partial_charge
C1    C     C_R   0.496728 0.738285 0.507842 0.548142
C2    C     C_R   0.527819 0.487999 0.265683 0.011747
C3    C     C_R   0.245496 0.889979 0.581275 -0.098576
C4    C     C_R   0.481650 0.501507 0.649831 0.533612
C5    C     C_R   0.128674 0.961710 0.610361 -0.132644
C6    C     C_R   0.134881 0.089645 0.615724 -0.131636
C7    C     C_R   0.257492 0.146421 0.591395 -0.097101
C8    C     C_R   0.375272 0.076239 0.556935 0.015466
C9    C     C_R   0.369666 0.944823 0.552424 0.023184
C10   C     C_R   0.491901 0.873838 0.524156 -0.031025
C11   C     C_R   0.620007 0.932276 0.519102 -0.141705
C12   C     C_R   0.342317 0.497251 0.776157 -0.134489
C13   C     C_R   0.628318 0.059938 0.528486 -0.011101
C14   C     C_R   0.502190 0.133244 0.532888 -0.007817
C15   C     C_R   0.874349 0.346631 0.390383 -0.100109
C16   C     C_R   0.500726 0.264435 0.511413 0.536953
C17   C     C_R   0.955783 0.277228 0.333468 -0.188411
C18   C     C_R   0.099650 0.274874 0.334289 -0.181286
C19   C     C_R   0.162699 0.344008 0.390962 -0.091672
C20   C     C_R   0.084118 0.424499 0.445848 0.157033
C21   C     C_R   0.934445 0.424994 0.445775 0.151711
C22   C     C_R   0.916835 0.569796 0.552547 -0.011447
C23   C     C_R   0.412729 0.462255 0.146702 -0.108388
C24   C     C_R   0.064723 0.568834 0.552940 -0.014732
C25   C     C_R   0.518371 0.497397 0.350155 0.545606
C26   C     C_R   0.472202 0.505367 0.734253 0.015758
C27   C     C_R   0.594157 0.518933 0.773689 -0.133446
C28   C     C_R   0.586914 0.522385 0.853758 -0.109491
C29   C     C_R   0.457627 0.510811 0.895639 0.044311
C30   C     C_R   0.335191 0.500540 0.856556 -0.116709
C31   C     C_3   0.772493 0.108040 0.542521 -0.265364
C32   C     C_3   0.876127 0.082714 0.472141 -0.420745
C33   C     C_R   0.405603 0.472525 0.226725 -0.135557
C34   C     C_R   0.657966 0.490589 0.223316 -0.133526
C35   C     C_R   0.664917 0.481052 0.142869 -0.116760
C36   C     C_R   0.542113 0.469531 0.104197 0.043888
C37   C     C_2   0.447406 0.511135 0.980182 -0.134857
C38   C     C_2   0.551569 0.466333 0.019527 -0.135605
Cu1   Cu    Cu3+1 0.359340 0.500010 0.500010 0.907728
Cu2   Cu    Cu3+1 0.640660 0.499990 0.499990 0.908728
H1    H     H_    0.695401 0.527686 0.742813 0.119324
H2    H     H_    0.906470 0.219501 0.291112 0.120263
H3    H     H_    0.304096 0.467734 0.257906 0.132233
H4    H     H_    0.162913 0.216084 0.292175 0.122682
H5    H     H_    0.272878 0.328843 0.389590 0.186774
H6    H     H_    0.111920 0.623055 0.597402 0.094967
H7    H     H_    0.753949 0.500796 0.252149 0.132742
H8    H     H_    0.648459 0.429936 0.989372 0.113516
H9    H     H_    0.234458 0.493076 0.888257 0.097383
H10   H     H_    0.316860 0.447751 0.118545 0.101273
H11   H     H_    0.246637 0.487676 0.746961 0.117593
H12   H     H_    0.765750 0.485178 0.110770 0.099550
H13   H     H_    0.350560 0.547755 0.010248 0.115034
H14   H     H_    0.682370 0.535797 0.882503 0.098858
H15   H     H_    0.913897 0.984415 0.468111 0.145024
H16   H     H_    0.825460 0.102076 0.418412 0.162142
H17   H     H_    0.968554 0.141300 0.477570 0.162733
H18   H     H_    0.772128 0.206518 0.562705 0.182465
H19   H     H_    0.812977 0.058804 0.591396 0.123011
H20   H     H_    0.716816 0.877542 0.509898 0.146741
H21   H     H_    0.238325 0.792361 0.587065 0.136227
H22   H     H_    0.034926 0.917477 0.632047 0.098078
H23   H     H_    0.046178 0.145054 0.641693 0.104744
H24   H     H_    0.260572 0.244759 0.604963 0.152449
H25   H     H_    0.854063 0.626998 0.595618 0.108570
H26   H     H_    0.765410 0.330565 0.390761 0.187997
N1    N     N_R   0.852190 0.498790 0.499250 -0.246341
N2    N     N_R   0.148060 0.498710 0.499220 -0.245021
O1    O     O_R   0.381190 0.680360 0.500010 -0.498680
O2    O     O_R   0.618760 0.680340 0.500000 -0.500592
O3    O     O_R   0.367440 0.500030 0.613600 -0.524266
O4    O     O_R   0.605010 0.500010 0.613590 -0.515489
O5    O     O_R   0.381240 0.319660 0.500000 -0.532950
O6    O     O_R   0.618810 0.319640 0.499990 -0.525581
O7    O     O_R   0.394990 0.499990 0.386410 -0.516415
O8    O     O_R   0.632560 0.499970 0.386400 -0.516705

loop_
_geom_bond_atom_site_label_1
_geom_bond_atom_site_label_2
_ccdc_geom_bond_type
Cu1   N2    S    
C19   C20   A    
C4    O4    A    
C7    C8    A    
C26   C27   A    
C37   C38   D    
Cu2   O2    S    
C16   O6    A    
C31   H18   S    
C28   C29   A    
C34   C35   A    
C5    C6    A    
C18   C19   A    
C31   H19   S    
C17   H2    S    
C35   C36   A    
C8    C9    A    
C23   C33   A    
Cu2   N1    S    
Cu1   O7    S    
C9    C10   A    
C32   H15   S    
C38   H8    S    
C37   H13   S    
C2    C34   A    
C13   C14   A    
C21   N1    A    
C32   H17   S    
C20   N2    A    
C3    H21   S    
C7    H24   S    
C16   O5    A    
C33   H3    S    
Cu1   Cu2   S    
C28   H14   S    
C23   H10   S    
C15   H26   S    
C1    O1    A    
Cu2   O8    S    
C12   C26   A    
C25   O7    A    
C6    H23   S    
C22   H25   S    
C29   C30   A    
C3    C9    A    
C18   H4    S    
C27   H1    S    
C31   C32   S    
C17   C18   A    
Cu1   O1    S    
C2    C33   A    
C30   H9    S    
C14   C16   S    
C11   H20   S    
C27   C28   A    
C12   H11   S    
C15   C17   A    
C8    C14   A    
Cu2   O4    S    
C12   C30   A    
C13   C31   S    
C1    C10   S    
C3    C5    A    
C4    C26   S    
C19   H5    S    
C6    C7    A    
C1    O2    A    
C25   O8    A    
C24   H6    S    
C36   C38   S    
C11   C13   A    
Cu2   O6    S    
C5    H22   S    
C2    C25   S    
C22   C24   A    
Cu1   O5    S    
C22   N1    A    
C10   C11   A    
C24   N2    A    
C15   C21   A    
C20   C21   A    
C23   C36   A    
C29   C37   S    
C35   H12   S    
Cu1   O3    S    
C34   H7    S    
C32   H16   S    
C4    O3    A    
