data_mof_unit_9630.cif
_audit_creation_date              2012-12-10T16:44:41-0500
_audit_creation_method            fapswitch 2.2
_symmetry_space_group_name_H-M    P1
_symmetry_Int_Tables_number       1
_space_group_crystal_system       triclinic
_cell_length_a                    14.977146
_cell_length_b                    8.674366
_cell_length_c                    7.453657
_cell_angle_alpha                 102.877608
_cell_angle_beta                  93.958375
_cell_angle_gamma                 92.461217
_cell_volume                      940.055510392

loop_
_atom_site_label
_atom_site_type_symbol
_atom_type_description
_atom_site_fract_x
_atom_site_fract_y
_atom_site_fract_z
_atom_type_partial_charge
C1    C     C_R   0.497313 0.199794 0.453333 0.901135
C2    C     C_R   0.502686 0.800206 0.546667 0.901135
C3    C     C_R   0.037927 0.212184 0.388826 0.405703
C4    C     C_R   0.962073 0.787816 0.611174 0.405703
C5    C     C_2   0.496043 0.031879 0.427071 -0.332400
C6    C     C_2   0.503957 0.968121 0.572929 -0.332400
C7    C     C_R   0.329265 0.499939 0.502807 0.875237
C8    C     C_R   0.670735 0.500061 0.497193 0.875237
C9    C     C_R   0.817495 0.640701 0.545669 -0.293107
C10   C     C_R   0.182505 0.359298 0.454331 -0.293107
C11   C     C_R   0.766691 0.497785 0.490975 -0.112964
C12   C     C_R   0.233308 0.502215 0.509024 -0.112964
C13   C     C_R   0.806754 0.353145 0.443909 0.385529
C14   C     C_R   0.193245 0.646855 0.556090 0.385528
C15   C     C_R   0.901052 0.353137 0.442894 -0.010769
C16   C     C_R   0.098947 0.646862 0.557105 -0.010769
C17   C     C_R   0.952980 0.499101 0.498786 -0.044010
C18   C     C_R   0.047019 0.500899 0.501213 -0.044009
C19   C     C_R   0.910781 0.643421 0.551834 0.102811
C20   C     C_R   0.089219 0.356579 0.448166 0.102811
C21   C     C_R   0.944249 0.212030 0.384255 -0.283080
C22   C     C_R   0.055751 0.787969 0.615745 -0.283082
Cu1   Cu    Cu3+1 0.510010 0.517380 0.684380 0.990456
Cu2   Cu    Cu3+1 0.489990 0.482620 0.315620 0.990456
H1    H     H_    0.783405 0.749541 0.585072 0.197324
H2    H     H_    0.216595 0.250459 0.414929 0.197324
H3    H     H_    0.906031 0.100500 0.332145 0.171119
H4    H     H_    0.093969 0.899499 0.667854 0.171119
H5    H     H_    0.488587 0.960387 0.286490 0.181839
H6    H     H_    0.511413 0.039613 0.713510 0.181839
H7    H     H_    0.430082 0.377683 0.948801 0.229039
H8    H     H_    0.569918 0.622316 0.051199 0.229039
N1    N     N_2   0.474890 0.456420 0.038520 -0.211747
N2    N     N_2   0.525110 0.543580 0.961480 -0.211747
O1    O     O_R   0.506510 0.286130 0.619770 -0.590640
O2    O     O_R   0.493490 0.713870 0.380230 -0.590640
O3    O     O_R   0.489600 0.256770 0.308360 -0.580276
O4    O     O_R   0.510400 0.743230 0.691640 -0.580276
O5    O     O_R   0.378710 0.514640 0.655720 -0.576382
O6    O     O_R   0.621290 0.485360 0.344280 -0.576382
O7    O     O_R   0.361800 0.485290 0.344300 -0.580914
O8    O     O_R   0.638200 0.514710 0.655700 -0.580914
O9    O     O_3   0.751872 0.215676 0.402136 -0.737539
H9    H     H_    0.781603 0.135130 0.456623 0.334157
O10   O     O_3   0.248128 0.784323 0.597862 -0.737540
H10   H     H_    0.218397 0.864869 0.543373 0.334157
O11   O     O_3   0.080523 0.072878 0.334796 -0.751680
H11   H     H_    0.035070 0.982618 0.299244 0.331158
O12   O     O_3   0.919477 0.927122 0.665204 -0.751678
H12   H     H_    0.964931 0.017382 0.700759 0.331156

loop_
_geom_bond_atom_site_label_1
_geom_bond_atom_site_label_2
_ccdc_geom_bond_type
O11   H11   S    
C15   C21   A    
O9    H9    S    
H7    N1    S    
Cu1   O4    S    
C4    C22   A    
C2    O4    A    
Cu1   O1    S    
Cu2   N1    S    
C1    O3    A    
C4    O12   S    
Cu1   Cu2   S    
Cu1   N2    S    
C10   H2    S    
C13   O9    S    
C13   C15   A    
Cu2   O3    S    
C21   H3    S    
C9    H1    S    
C3    C20   A    
C22   H4    S    
O10   H10   S    
Cu2   O7    S    
C9    C11   A    
Cu2   O2    S    
Cu1   O8    S    
C10   C12   A    
C8    C11   S    
Cu1   O5    S    
C3    O11   S    
C17   C19   A    
C8    O8    A    
C17   C18   A    
C14   O10   S    
C18   C20   A    
C7    O7    A    
C5    C6    D    
C14   C16   A    
C7    C12   S    
C3    C21   A    
C11   C13   A    
C5    H5    S    
C12   C14   A    
C1    C5    S    
N1    N2    D    
C1    O1    A    
C16   C18   A    
O12   H12   S    
C2    O2    A    
C15   C17   A    
C7    O5    A    
C16   C22   A    
C8    O6    A    
Cu2   O6    S    
C4    C19   A    
C6    H6    S    
C2    C6    S    
C9    C19   A    
C10   C20   A    
H8    N2    S    
