data_mof_unit_36319.cif
_audit_creation_date              2012-10-26T17:13:04-0400
_audit_creation_method            fapswitch 2.2
_symmetry_space_group_name_H-M    P1
_symmetry_Int_Tables_number       1
_space_group_crystal_system       triclinic
_cell_length_a                    16.694626
_cell_length_b                    16.812926
_cell_length_c                    16.804244
_cell_angle_alpha                 67.958361
_cell_angle_beta                  67.898324
_cell_angle_gamma                 67.843544
_cell_volume                      3894.84287245

loop_
_atom_site_label
_atom_site_type_symbol
_atom_type_description
_atom_site_fract_x
_atom_site_fract_y
_atom_site_fract_z
_atom_type_partial_charge
C1    C     C_R   0.321284 0.968584 0.447487 -0.029514
C2    C     C_R   0.327534 0.456726 0.936481 -0.029714
C3    C     C_R   0.543489 0.416263 0.982401 -0.005659
C4    C     C_R   0.073239 0.439750 0.568813 -0.009156
C5    C     C_R   0.066054 0.519778 0.391233 -0.007038
C6    C     C_R   0.069470 0.672578 0.541488 -0.041435
C7    C     C_R   0.037982 0.296936 0.427801 -0.040722
C8    C     C_R   0.444012 0.016681 0.445122 -0.009898
C9    C     C_R   0.535716 0.046474 0.537719 -0.011743
C10   C     C_R   0.056992 0.432737 0.432971 -0.010628
C11   C     C_R   0.070513 0.530488 0.530681 -0.011342
C12   C     C_R   0.462227 0.461399 0.958793 -0.009983
C13   C     C_R   0.553957 0.554151 0.988213 -0.010500
C14   C     C_R   0.029310 0.828058 0.564241 0.596579
C15   C     C_R   0.671786 0.065758 0.542830 -0.041046
C16   C     C_R   0.989264 0.167485 0.430066 0.597818
C17   C     C_R   0.828038 0.564591 0.028224 0.586937
C18   C     C_R   0.172193 0.436390 0.969009 0.609674
C19   C     C_R   0.564457 0.028686 0.828256 0.600847
C20   C     C_R   0.430264 0.986269 0.168428 0.596617
C21   C     C_R   0.435377 0.171711 0.971730 0.599972
C22   C     C_R   0.569709 0.831561 0.013939 0.598143
C23   C     C_R   0.989133 0.430088 0.167551 0.599067
C24   C     C_R   0.029360 0.564187 0.828093 0.596038
C25   C     C_R   0.171960 0.972153 0.435323 0.607324
C26   C     C_R   0.037695 0.427687 0.297204 -0.041354
C27   C     C_R   0.827757 0.031088 0.563569 0.588625
C28   C     C_R   0.398343 0.000781 0.399214 -0.090818
C29   C     C_R   0.584135 0.054904 0.586031 -0.090300
C30   C     C_R   0.042091 0.386435 0.386658 -0.084137
C31   C     C_R   0.068928 0.581862 0.582020 -0.090052
C32   C     C_R   0.414502 0.413265 0.949096 -0.090239
C33   C     C_R   0.600321 0.600279 0.002749 -0.093511
C34   C     C_R   0.270206 0.963331 0.399047 0.024470
C35   C     C_R   0.727329 0.052347 0.596648 0.008767
C36   C     C_R   0.005165 0.387688 0.257602 -0.001637
C37   C     C_R   0.069770 0.541312 0.672667 -0.042180
C38   C     C_R   0.049968 0.597095 0.728344 0.012828
C39   C     C_R   0.402567 0.270673 0.953502 0.007957
C40   C     C_R   0.610692 0.738125 0.009900 0.006591
C41   C     C_R   0.597082 0.047857 0.729168 0.009937
C42   C     C_R   0.389188 0.990944 0.261787 0.000840
C43   C     C_R   0.729582 0.600898 0.038016 0.017321
C44   C     C_R   0.272492 0.403236 0.948235 0.020577
C45   C     C_R   0.049842 0.728271 0.597205 0.010337
C46   C     C_R   0.005331 0.257454 0.387741 -0.001851
C47   C     C_R   0.450932 0.056168 0.711746 0.420421
C48   C     C_R   0.455286 0.322334 0.950380 -0.033715
C49   C     C_R   0.495835 0.065946 0.258802 0.383784
C50   C     C_R   0.092181 0.702184 0.446505 0.393059
C51   C     C_R   0.070228 0.251087 0.505298 0.381884
C52   C     C_R   0.701534 0.457725 0.059225 0.396058
C53   C     C_R   0.301392 0.551755 0.909763 0.410976
C54   C     C_R   0.296792 0.945772 0.542039 0.418377
C55   C     C_R   0.698114 0.092207 0.447747 0.396163
C56   C     C_R   0.547416 0.287261 0.949945 0.420866
C57   C     C_R   0.503676 0.740472 0.935793 0.381845
C58   C     C_R   0.069513 0.505317 0.251459 0.382755
C59   C     C_R   0.570938 0.694419 0.982666 -0.041799
C60   C     C_R   0.092946 0.446288 0.702200 0.394776
C61   C     C_R   0.309707 0.964953 0.309203 0.324856
C62   C     C_R   0.687569 0.048101 0.687855 0.327604
C63   C     C_R   0.985680 0.305691 0.305753 0.328632
C64   C     C_R   0.039887 0.689241 0.689334 0.333197
C65   C     C_R   0.312517 0.312288 0.951612 0.335799
C66   C     C_R   0.690452 0.690960 0.035500 0.323214
C67   C     C_R   0.647164 0.088461 0.399174 0.039165
C68   C     C_R   0.334648 0.972471 0.585785 0.056102
C69   C     C_R   0.089290 0.396422 0.653112 0.039101
C70   C     C_R   0.543583 0.053554 0.677011 -0.032987
C71   C     C_R   0.076242 0.554721 0.299040 0.044206
C72   C     C_R   0.452782 0.694614 0.928645 0.045233
C73   C     C_R   0.584732 0.327185 0.981018 0.058380
C74   C     C_R   0.546291 0.073966 0.304655 0.046284
C75   C     C_R   0.412316 0.026785 0.671488 0.056926
C76   C     C_R   0.351883 0.600178 0.914368 0.046278
C77   C     C_R   0.662424 0.413359 0.034671 0.041304
C78   C     C_R   0.077423 0.298595 0.554560 0.044757
C79   C     C_R   0.088138 0.653233 0.396778 0.038904
C80   C     C_R   0.672040 0.114124 0.305319 -0.104000
C81   C     C_R   0.428407 0.019358 0.305119 -0.042062
C82   C     C_R   0.296569 0.969638 0.676594 -0.114696
C83   C     C_R   0.103692 0.303355 0.685739 -0.100073
C84   C     C_R   0.096154 0.637324 0.255461 -0.111268
C85   C     C_R   0.378432 0.740642 0.893176 -0.114707
C86   C     C_R   0.663888 0.280616 0.007947 -0.108460
C87   C     C_R   0.621112 0.108598 0.258618 -0.112809
C88   C     C_R   0.332399 0.001326 0.717810 -0.114865
C89   C     C_R   0.327470 0.693992 0.887776 -0.103957
C90   C     C_R   0.699660 0.322122 0.039334 -0.120116
C91   C     C_R   0.098236 0.254940 0.636831 -0.108860
C92   C     C_R   0.677653 0.552240 0.034702 -0.044088
C93   C     C_R   0.101661 0.686202 0.303832 -0.108253
C94   C     C_R   0.520609 0.048667 0.398256 -0.006160
C95   C     C_R   0.453715 0.024478 0.582632 -0.006663
C96   C     C_R   0.066675 0.390871 0.519830 -0.006799
C97   C     C_R   0.072629 0.568763 0.440075 -0.008630
C98   C     C_R   0.429314 0.554055 0.944916 -0.006485
C99   C     C_R   0.586340 0.461321 0.002275 -0.007518
C100  C     C_R   0.568996 0.059331 0.445195 -0.009319
C101  C     C_R   0.410882 0.004336 0.537736 -0.006771
C102  C     C_R   0.477717 0.601015 0.955433 -0.005964
Cu1   Cu    Cu3+1 0.995180 0.995180 0.424630 1.197923
Cu2   Cu    Cu3+1 0.004820 0.004820 0.575370 1.227382
Cu3   Cu    Cu3+1 0.995180 0.424630 0.995180 1.199719
Cu4   Cu    Cu3+1 0.004820 0.575370 0.004820 1.224391
Cu5   Cu    Cu3+1 0.424630 0.995180 0.995180 1.215007
Cu6   Cu    Cu3+1 0.575370 0.004820 0.004820 1.216050
F1    F     F_    0.269075 0.942503 0.267313 -0.570262
F2    F     F_    0.107988 0.161528 0.526103 -0.639079
F3    F     F_    0.756812 0.408113 0.113102 -0.595674
F4    F     F_    0.234080 0.597485 0.869347 -0.605730
F5    F     F_    0.242989 0.890680 0.592465 -0.607101
F6    F     F_    0.766410 0.131150 0.402030 -0.592723
F7    F     F_    0.605792 0.226907 0.904139 -0.600604
F8    F     F_    0.494225 0.827307 0.887708 -0.643029
F9    F     F_    0.107624 0.525980 0.161966 -0.633162
F10   F     F_    0.129891 0.400899 0.771695 -0.595521
F11   F     F_    0.738696 0.041033 0.738142 -0.572718
F12   F     F_    0.946671 0.272201 0.272184 -0.554781
F13   F     F_    0.016432 0.742761 0.742842 -0.571358
F14   F     F_    0.262109 0.262638 0.955976 -0.559567
F15   F     F_    0.731739 0.733316 0.056541 -0.588270
F16   F     F_    0.393983 0.100979 0.773350 -0.595853
F17   F     F_    0.506065 0.112779 0.171552 -0.641743
F18   F     F_    0.129206 0.771518 0.400953 -0.598418
H1    H     H_    0.300063 0.001971 0.786935 0.167430
H2    H     H_    0.358083 0.812905 0.871606 0.167064
H3    H     H_    0.105779 0.665238 0.184100 0.176444
H4    H     H_    0.117949 0.267830 0.749740 0.194611
H5    H     H_    0.642025 0.129098 0.186350 0.165352
H6    H     H_    0.115280 0.750436 0.268381 0.187419
H7    H     H_    0.108585 0.183488 0.664492 0.174324
H8    H     H_    0.759102 0.284037 0.062672 0.176572
H9    H     H_    0.269206 0.731621 0.862426 0.192678
H10   H     H_    0.236782 0.946988 0.714611 0.175968
H11   H     H_    0.730813 0.138542 0.267699 0.193792
H12   H     H_    0.695970 0.211268 0.008095 0.168518
O1    O     O_R   0.124540 0.978640 0.385460 -0.435086
O2    O     O_R   0.124540 0.385460 0.978640 -0.427458
O3    O     O_R   0.021360 0.875460 0.614540 -0.419900
O4    O     O_R   0.978640 0.124540 0.385460 -0.419451
O5    O     O_R   0.013780 0.867370 0.487190 -0.486096
O6    O     O_R   0.986220 0.132630 0.512810 -0.476925
O7    O     O_R   0.867370 0.487190 0.013780 -0.482191
O8    O     O_R   0.132630 0.512810 0.986220 -0.435386
O9    O     O_R   0.487190 0.013780 0.867370 -0.435555
O10   O     O_R   0.512810 0.986220 0.132630 -0.479213
O11   O     O_R   0.512810 0.132630 0.986220 -0.433885
O12   O     O_R   0.875460 0.021360 0.614540 -0.440696
O13   O     O_R   0.487190 0.867370 0.013780 -0.478111
O14   O     O_R   0.986220 0.512810 0.132630 -0.475487
O15   O     O_R   0.013780 0.487190 0.867370 -0.490671
O16   O     O_R   0.132630 0.986220 0.512810 -0.435981
O17   O     O_R   0.867370 0.013780 0.487190 -0.483143
O18   O     O_R   0.978640 0.385460 0.124540 -0.422932
O19   O     O_R   0.021360 0.614540 0.875460 -0.416267
O20   O     O_R   0.385460 0.124540 0.978640 -0.431422
O21   O     O_R   0.614540 0.875460 0.021360 -0.450587
O22   O     O_R   0.614540 0.021360 0.875460 -0.430646
O23   O     O_R   0.385460 0.978640 0.124540 -0.451298
O24   O     O_R   0.875460 0.614540 0.021360 -0.449357

loop_
_geom_bond_atom_site_label_1
_geom_bond_atom_site_label_2
_ccdc_geom_bond_type
Cu3   O15   S    
C23   O14   A    
C89   H9    S    
C6    C45   A    
C39   C65   A    
C21   O20   A    
C74   C94   A    
C17   O7    A    
C61   F1    S    
C50   C79   A    
C72   C85   A    
C75   C95   A    
Cu6   O21   S    
C24   O15   A    
C51   F2    S    
C19   O22   A    
C16   O6    A    
C79   C93   A    
C80   C87   A    
C18   C44   S    
C90   H8    S    
C58   C71   A    
C57   C59   A    
C54   C68   A    
C22   O21   A    
C76   C98   A    
C64   F13   S    
C54   F5    S    
C84   H3    S    
C2    C32   A    
Cu2   O12   S    
C3    C12   A    
C4    C96   A    
Cu5   O23   S    
C78   C96   A    
C91   H7    S    
C1    C28   A    
C24   C38   S    
Cu5   Cu6   S    
C20   O10   A    
C60   F10   S    
C50   F18   S    
C10   C96   A    
C74   C87   A    
C57   F8    S    
C36   C63   A    
C8    C101  A    
C9    C95   A    
C12   C98   A    
C9    C29   A    
C25   C34   S    
Cu5   O13   S    
C6    C31   A    
C25   O16   A    
C14   O3    A    
C11   C31   A    
C33   C59   A    
C7    C30   A    
C40   C66   A    
C23   O18   A    
C12   C32   A    
C32   C48   A    
C44   C65   A    
C42   C81   A    
C41   C62   A    
C15   C35   A    
C4    C69   A    
C1    C34   A    
C15   C29   A    
C14   C45   S    
C38   C64   A    
C27   O17   A    
C77   C90   A    
Cu4   O14   S    
C7    C46   A    
C8    C94   A    
C68   C101  A    
C83   H4    S    
C86   C90   A    
C33   C92   A    
C16   C46   S    
C85   C89   A    
C24   O19   A    
C52   F3    S    
C27   C35   S    
C98   C102  A    
C58   F9    S    
C19   O9    A    
C31   C37   A    
C15   C55   A    
C13   C99   A    
C16   O4    A    
C1    C54   A    
C17   C43   S    
C47   C70   A    
C13   C33   A    
C37   C38   A    
C69   C83   A    
Cu1   O1    S    
Cu5   O9    S    
C10   C30   A    
C55   C67   A    
C21   C39   S    
C94   C100  A    
C22   C40   S    
C27   O12   A    
C71   C84   A    
Cu2   O6    S    
C49   C74   A    
C65   F14   S    
C6    C50   A    
C4    C11   A    
C18   O2    A    
C26   C58   A    
C42   C61   A    
C62   F11   S    
C87   H5    S    
C67   C100  A    
C53   F4    S    
Cu1   O17   S    
C5    C97   A    
C26   C30   A    
C9    C100  A    
C21   O11   A    
C8    C28   A    
C52   C92   A    
C53   C76   A    
C52   C77   A    
C93   H6    S    
Cu1   O4    S    
Cu5   O20   S    
C49   F17   S    
C2    C44   A    
C29   C70   A    
C26   C36   A    
C48   C56   A    
C3    C99   A    
C22   O13   A    
C56   C73   A    
C25   O1    A    
C28   C81   A    
C66   F15   S    
C79   C97   A    
C67   C80   A    
C18   O8    A    
C2    C53   A    
Cu1   O5    S    
C20   C42   S    
Cu6   O22   S    
C55   F6    S    
C78   C91   A    
C88   H1    S    
Cu4   O19   S    
C83   C91   A    
Cu3   Cu4   S    
C76   C89   A    
C45   C64   A    
C95   C101  A    
C43   C92   A    
Cu4   O8    S    
C46   C63   A    
C11   C97   A    
C68   C82   A    
C14   O5    A    
C51   C78   A    
C7    C51   A    
C5    C10   A    
C5    C71   A    
Cu3   O2    S    
C63   F12   S    
C47   F16   S    
C72   C102  A    
C60   C69   A    
C43   C66   A    
C82   C88   A    
C20   O23   A    
C56   F7    S    
C77   C99   A    
C35   C62   A    
C49   C81   A    
C84   C93   A    
Cu4   O24   S    
C57   C72   A    
C82   H10   S    
C3    C73   A    
C73   C86   A    
C37   C60   A    
C17   O24   A    
C86   H12   S    
C47   C75   A    
Cu6   O11   S    
C19   C41   S    
C75   C88   A    
Cu3   O18   S    
C23   C36   S    
C34   C61   A    
Cu1   Cu2   S    
C40   C59   A    
Cu2   O3    S    
C41   C70   A    
C85   H2    S    
Cu2   O16   S    
C13   C102  A    
Cu3   O7    S    
C80   H11   S    
C39   C48   A    
Cu6   O10   S    
