data_mof_unit_18268.cif
_audit_creation_date              2012-10-26T19:57:57-0400
_audit_creation_method            fapswitch 2.2
_symmetry_space_group_name_H-M    P1
_symmetry_Int_Tables_number       1
_space_group_crystal_system       triclinic
_cell_length_a                    7.453196
_cell_length_b                    8.784335
_cell_length_c                    12.955199
_cell_angle_alpha                 87.844119
_cell_angle_beta                  78.617724
_cell_angle_gamma                 102.643151
_cell_volume                      808.449455906

loop_
_atom_site_label
_atom_site_type_symbol
_atom_type_description
_atom_site_fract_x
_atom_site_fract_y
_atom_site_fract_z
_atom_type_partial_charge
C1    C     C_R   0.453849 0.200582 0.501863 0.536788
C2    C     C_R   0.728856 0.601179 0.115097 0.055611
C3    C     C_R   0.594798 0.551838 0.857790 -0.115866
C4    C     C_R   0.405200 0.448151 0.142211 -0.115870
C5    C     C_R   0.583814 0.541228 0.965908 0.025226
C6    C     C_R   0.416186 0.458760 0.034092 0.025230
C7    C     C_2   0.431493 0.035981 0.492516 -0.003725
C8    C     C_2   0.568548 0.964030 0.507437 -0.003702
C9    C     C_2   0.896536 0.681136 0.152877 0.592106
C10   C     C_2   0.103456 0.318849 0.847128 0.592091
C11   C     C_2   0.258651 0.957276 0.457626 0.607380
C12   C     C_R   0.546157 0.799419 0.498126 0.536916
C13   C     C_2   0.741450 0.042740 0.542271 0.607417
C14   C     C_R   0.464306 0.491679 0.701772 0.547077
C15   C     C_R   0.535693 0.508318 0.298229 0.547105
C16   C     C_R   0.559256 0.518966 0.183677 -0.016695
C17   C     C_R   0.440740 0.481027 0.816324 -0.016716
C18   C     C_R   0.261296 0.388140 0.993471 -0.089454
C19   C     C_R   0.738704 0.611846 0.006529 -0.089465
C20   C     C_R   0.271141 0.398810 0.884904 0.055581
Cu1   Cu    Cu3+1 0.686350 0.517570 0.488220 1.082717
Cu2   Cu    Cu3+1 0.313650 0.482430 0.511780 1.082676
H1    H     H_    0.275976 0.384065 0.194336 0.176871
H2    H     H_    0.867641 0.099593 0.664015 0.355224
H3    H     H_    0.724023 0.615924 0.805665 0.176876
H4    H     H_    0.132402 0.324865 0.046303 0.161962
H5    H     H_    0.867600 0.675121 0.953699 0.161936
H6    H     H_    0.933404 0.380069 0.585350 0.248272
H7    H     H_    0.066596 0.619930 0.414650 0.248276
H8    H     H_    0.125264 0.661532 0.208690 0.332134
H9    H     H_    0.874764 0.338443 0.791278 0.332135
H10   H     H_    0.132721 0.900165 0.335823 0.355135
N1    N     N_2   0.033570 0.455950 0.529530 -0.219255
N2    N     N_2   0.966430 0.544050 0.470470 -0.219256
O1    O     O_R   0.621060 0.286250 0.492350 -0.501805
O2    O     O_R   0.012803 0.593517 0.186763 -0.690384
O3    O     O_2   0.063762 0.176043 0.849018 -0.490131
O4    O     O_R   0.987227 0.406467 0.813198 -0.690367
O5    O     O_2   0.115914 0.898566 0.523511 -0.454519
O6    O     O_R   0.259615 0.953681 0.349806 -0.683725
O7    O     O_2   0.884049 0.101675 0.476347 -0.454478
O8    O     O_R   0.740725 0.046037 0.650077 -0.683639
O9    O     O_R   0.378940 0.713750 0.507650 -0.501824
O10   O     O_R   0.306310 0.256580 0.512240 -0.469105
O11   O     O_R   0.693690 0.743420 0.487760 -0.469049
O12   O     O_R   0.631800 0.512400 0.642670 -0.516770
O13   O     O_R   0.368200 0.487600 0.357330 -0.516747
O14   O     O_R   0.317060 0.482730 0.662570 -0.470042
O15   O     O_R   0.682940 0.517270 0.337430 -0.470045
O16   O     O_2   0.936184 0.823938 0.151037 -0.490111

loop_
_geom_bond_atom_site_label_1
_geom_bond_atom_site_label_2
_ccdc_geom_bond_type
C4    C16   A    
C9    O2    S    
Cu2   O14   S    
C8    C13   S    
C5    C19   A    
C15   O13   A    
C8    C12   S    
H2    O8    S    
C1    O10   A    
Cu1   O11   S    
Cu2   O9    S    
C18   H4    S    
H9    O4    S    
H8    O2    S    
C10   O4    S    
C13   O7    D    
N1    N2    D    
C7    C8    D    
C14   O12   A    
Cu1   Cu2   S    
C15   O15   A    
C7    C11   S    
C14   C17   S    
C11   O6    S    
C10   O3    D    
Cu1   O1    S    
Cu1   O15   S    
C13   O8    S    
H6    N1    S    
C3    C17   A    
C12   O9    A    
C18   C20   A    
H10   O6    S    
C5    C6    A    
C11   O5    D    
C6    C18   A    
Cu2   O13   S    
C15   C16   S    
C3    H3    S    
C17   C20   A    
C2    C16   A    
C1    O1    A    
C4    C6    A    
Cu1   O12   S    
Cu2   N1    S    
C4    H1    S    
C12   O11   A    
C14   O14   A    
Cu1   N2    S    
C2    C19   A    
C1    C7    S    
C2    C9    S    
H7    N2    S    
Cu2   O10   S    
C9    O16   D    
C10   C20   S    
C19   H5    S    
C3    C5    A    
