data_mof_unit_16386.cif
_audit_creation_date              2013-03-05T15:54:26-0500
_audit_creation_method            fapswitch 2.2
_symmetry_space_group_name_H-M    P1
_symmetry_Int_Tables_number       1
_space_group_crystal_system       triclinic
_cell_length_a                    15.710535
_cell_length_b                    10.714481
_cell_length_c                    9.960148
_cell_angle_alpha                 91.326564
_cell_angle_beta                  91.541896
_cell_angle_gamma                 92.792712
_cell_volume                      1673.49395018

loop_
_atom_site_label
_atom_site_type_symbol
_atom_site_description
_atom_site_fract_x
_atom_site_fract_y
_atom_site_fract_z
_atom_type_partial_charge
O1    O     O_R   0.500000 0.316780 0.614690 -0.573115
O2    O     O_R   0.499990 0.316750 0.385360 -0.652347
C1    C     C_R   0.507092 0.261643 0.498610 0.898424
O3    O     O_R   0.376780 0.500000 0.614650 -0.610022
O4    O     O_R   0.376770 0.499980 0.385310 -0.643291
C2    C     C_R   0.338169 0.500562 0.498379 0.938267
Zn1   Zn    Zn3+2 0.500010 0.500020 0.653130 1.030301
Zn2   Zn    Zn3+2 0.499990 0.499980 0.346870 0.953855
O5    O     O_R   0.500010 0.683250 0.614640 -0.612288
O6    O     O_R   0.500000 0.683220 0.385310 -0.615408
O7    O     O_R   0.623230 0.500020 0.614690 -0.565245
O8    O     O_R   0.623220 0.500000 0.385350 -0.625695
C3    C     C_R   0.498193 0.740414 0.502874 0.889104
C4    C     C_R   0.661884 0.500367 0.501645 0.892157
C5    C     C_3   0.968979 0.385846 0.524776 -0.178462
C6    C     C_3   0.022599 0.424583 0.402706 -0.145419
H1    H     H_    0.042876 0.360976 0.321298 0.166717
H2    H     H_    0.941498 0.290466 0.542822 0.177003
H3    H     H_    0.942383 0.573082 0.286930 0.193839
C7    C     C_1   0.249235 0.500974 0.495299 -0.120754
C8    C     C_1   0.750868 0.500765 0.505206 -0.104399
C9    C     C_3   0.031537 0.463430 0.621257 -0.229310
C10   C     C_3   0.083199 0.502415 0.498851 0.081520
C11   C     C_3   0.978787 0.578548 0.599613 0.310257
C12   C     C_3   0.917186 0.502503 0.505715 0.037598
C13   C     C_3   0.031755 0.618928 0.479918 0.138169
C14   C     C_3   0.969388 0.541412 0.383787 -0.229858
C15   C     C_1   0.173944 0.501436 0.495597 0.014901
C16   C     C_1   0.826245 0.501423 0.506545 0.050111
H4    H     H_    0.058529 0.433016 0.718662 0.176735
H5    H     H_    0.458091 0.105403 0.297279 0.172177
C17   C     C_R   0.603274 0.138066 0.708637 -0.116107
H6    H     H_    0.630851 0.230705 0.691539 0.140943
C18   C     C_R   0.618702 0.085727 0.832926 -0.093432
H7    H     H_    0.656170 0.137915 0.909966 0.149170
C19   C     C_R   0.581662 0.969070 0.860011 -0.086614
H8    H     H_    0.588506 0.931377 0.959448 0.143802
C20   C     C_R   0.536113 0.900159 0.758792 -0.048758
H9    H     H_    0.504495 0.814828 0.789960 0.173812
C21   C     C_R   0.528365 0.946157 0.626591 0.103189
C22   C     C_R   0.551605 0.072227 0.609153 0.112917
C23   C     C_R   0.518421 0.130330 0.495368 -0.095329
C24   C     C_R   0.482571 0.061087 0.386127 -0.184565
H10   H     H_    0.449867 0.881365 0.304177 0.177160
C25   C     C_R   0.475364 0.933693 0.391928 -0.189995
C26   C     C_R   0.497584 0.874831 0.510650 -0.123176
H11   H     H_    0.619339 0.593896 0.134384 0.188486
C27   C     C_R   0.366654 0.378125 0.134341 -0.113554
H12   H     H_    0.374243 0.345967 0.234555 0.203796
C28   C     C_R   0.289828 0.347502 0.067352 -0.234392
H13   H     H_    0.236707 0.306682 0.121004 0.178691
C29   C     C_R   0.285023 0.354316 0.928916 -0.207967
H14   H     H_    0.228591 0.312553 0.877574 0.188172
C30   C     C_R   0.360111 0.375871 0.858439 0.376531
C31   C     C_R   0.431719 0.441345 0.924900 -0.025189
C32   C     C_R   0.433076 0.441765 0.069092 0.125382
N1    N     N_R   0.499210 0.498800 0.142780 -0.134381
C33   C     C_R   0.565885 0.551296 0.076476 -0.162956
C34   C     C_R   0.567207 0.550075 0.933976 0.296124
N2    N     N_R   0.499180 0.498720 0.857170 -0.176986
N3    N     N_R   0.372381 0.281578 0.758540 0.236198
O9    O     O_R   0.417412 0.188311 0.793815 -0.396921
O10   O     O_R   0.315363 0.262012 0.662091 -0.419855
N4    N     N_R   0.643121 0.597948 0.872895 0.220305
O11   O     O_R   0.639591 0.687387 0.787590 -0.370767
O12   O     O_R   0.717213 0.570702 0.922714 -0.365373
I1    I     I_    0.082800 0.803372 0.444118 -0.243726
N5    N     N_R   0.955562 0.662895 0.708094 0.221235
O13   O     O_R   0.014943 0.719818 0.783441 -0.347654
O14   O     O_R   0.875987 0.681188 0.731036 -0.313741

loop_
_geom_bond_atom_site_label_1
_geom_bond_atom_site_label_2
_geom_bond_distance
_ccdc_geom_bond_type
C5    H2    1.110307 S    
C28   C29   1.382698 A    
C17   C22   1.416673 A    
C1    C23   1.426478 S    
C30   N3    1.425022 S    
Zn2   N1    2.032216 S    
O4    Zn2   1.983430 S    
C2    C7    1.396927 S    
C22   C23   1.405800 A    
C30   C31   1.434383 A    
C7    C15   1.183198 T    
C27   C32   1.401402 A    
Zn2   O8    1.963430 S    
C31   N2    1.396592 A    
N4    O11   1.297547 A    
C29   C30   1.401151 A    
C6    C14   1.551023 S    
C19   C20   1.396007 A    
C28   H13   1.082860 S    
N1    C33   1.358963 A    
C11   C12   1.521290 S    
C34   N2    1.381807 A    
O1    Zn1   1.991577 S    
C10   C15   1.427440 S    
C17   H6    1.082505 S    
H11   C33   1.081952 S    
Zn1   O7    1.983431 S    
C24   C25   1.366829 A    
N4    O12   1.301977 A    
C13   C14   1.549195 S    
C20   H9    1.075267 S    
H5    C24   1.084166 S    
O3    Zn1   1.963429 S    
O4    C2    1.293406 A    
C13   I1    2.137584 S    
C4    C8    1.397289 S    
C27   C28   1.384755 A    
C19   H8    1.082864 S    
C20   C21   1.420844 A    
O8    C4    1.293202 A    
O2    C1    1.289928 A    
C6    C10   1.534761 S    
C18   C19   1.388121 A    
C5    C9    1.553370 S    
C12   C16   1.428460 S    
N3    O9    1.301663 A    
O7    C4    1.293565 A    
C9    C11   1.535228 S    
C31   C32   1.435665 A    
C5    C12   1.536963 S    
O3    C2    1.293070 A    
C12   C14   1.537837 S    
C23   C24   1.392994 A    
C21   C26   1.429857 A    
C5    C6    1.550663 S    
C34   N4    1.431614 S    
Zn1   N2    2.033028 S    
H3    C14   1.110389 S    
C32   N1    1.366735 A    
N3    O10   1.302028 A    
C18   H7    1.082460 S    
C27   H12   1.068994 S    
C10   C13   1.532383 S    
C3    C26   1.441014 S    
Zn1   O5    2.008986 S    
N5    O14   1.300286 A    
C11   N5    1.457894 S    
C9    C10   1.537339 S    
C21   C22   1.397950 A    
O5    C3    1.283254 A    
C9    H4    1.110498 S    
C33   C34   1.419801 A    
C25   C26   1.397022 A    
C8    C16   1.183595 T    
Zn2   O6    1.991577 S    
O2    Zn2   2.008987 S    
H10   C25   1.084102 S    
C11   C13   1.530738 S    
C6    H1    1.110346 S    
C29   H14   1.083562 S    
N5    O13   1.300444 A    
O1    C1    1.296095 A    
O6    C3    1.310620 A    
C17   C18   1.391026 A    
