data_mof_unit_38072.cif
_audit_creation_date              2012-12-11T17:08:29-0500
_audit_creation_method            fapswitch 2.2
_symmetry_space_group_name_H-M    P1
_symmetry_Int_Tables_number       1
_space_group_crystal_system       triclinic
_cell_length_a                    6.956368
_cell_length_b                    14.508133
_cell_length_c                    16.100133
_cell_angle_alpha                 90.050242
_cell_angle_beta                  90.130955
_cell_angle_gamma                 89.941543
_cell_volume                      1624.88269708

loop_
_atom_site_label
_atom_site_type_symbol
_atom_type_description
_atom_site_fract_x
_atom_site_fract_y
_atom_site_fract_z
_atom_type_partial_charge
O1    O     O_R   0.505700 0.583890 0.413310 -0.537621
O2    O     O_R   0.175960 0.594920 0.586080 -0.545048
O3    O     O_R   0.005660 0.416110 0.586690 -0.537962
C1    C     C_R   0.344765 0.616769 0.614974 0.697909
O4    O     O_R   0.175980 0.594920 0.413930 -0.541603
O5    O     O_R   0.005680 0.416110 0.413310 -0.536971
C2    C     C_R   0.344575 0.616956 0.385155 0.688909
O6    O     O_R   0.505680 0.583890 0.586690 -0.535654
O7    O     O_3   0.339200 0.441330 0.500000 -0.369840
V1    V     V_3+5 0.064350 0.510880 0.500000 1.382175
O8    O     O_R   0.675960 0.405080 0.413920 -0.542358
C3    C     C_R   0.844880 0.383015 0.385222 0.699526
O9    O     O_R   0.675940 0.405080 0.586070 -0.544274
C4    C     C_R   0.845209 0.382938 0.614623 0.726814
V2    V     V_3+5 0.564340 0.489120 0.500000 1.385457
O10   O     O_3   0.839360 0.558670 0.500000 -0.371271
C5    C     C_R   0.028521 0.295071 0.723747 0.091125
C6    C     C_R   0.857650 0.311135 0.679724 -0.159454
C7    C     C_R   0.700866 0.253001 0.697137 -0.289554
H1    H     H_    0.568068 0.260111 0.662440 0.149345
C8    C     C_R   0.710753 0.186149 0.761060 0.395115
C9    C     C_R   0.878137 0.179110 0.811718 -0.204696
C10   C     C_R   0.038249 0.230946 0.787601 0.036655
C11   C     C_3   0.172858 0.288782 0.837759 -0.373805
C12   C     C_3   0.164325 0.359301 0.767429 -0.016128
H2    H     H_    0.316505 0.256252 0.844457 0.200133
H3    H     H_    0.107688 0.312005 0.897276 0.160706
H4    H     H_    0.303156 0.366690 0.733966 0.144523
C13   C     C_R   0.732927 0.251951 0.186352 0.052241
C14   C     C_R   0.882574 0.187518 0.181348 -0.103488
C15   C     C_R   0.031067 0.194645 0.240759 -0.176800
H5    H     H_    0.151666 0.147612 0.238778 0.120844
C16   C     C_R   0.018535 0.258210 0.306932 -0.182362
H6    H     H_    0.130598 0.258713 0.353640 0.128438
C17   C     C_R   0.857746 0.316797 0.315324 -0.135734
C18   C     C_R   0.721387 0.315283 0.251189 0.100957
C19   C     C_3   0.507241 0.308944 0.253954 -0.028407
C20   C     C_3   0.520331 0.239475 0.182781 -0.385726
H7    H     H_    0.454496 0.278703 0.313032 0.139714
H8    H     H_    0.458702 0.263780 0.122869 0.176892
H9    H     H_    0.477136 0.168622 0.200970 0.146920
C21   C     C_R   0.507764 0.682439 0.741529 0.107534
C22   C     C_R   0.352610 0.681912 0.685883 -0.113382
C23   C     C_R   0.200092 0.743201 0.702023 -0.182709
H10   H     H_    0.077142 0.745281 0.660991 0.133345
C24   C     C_R   0.210973 0.807139 0.767748 -0.181108
H11   H     H_    0.095380 0.856216 0.775550 0.125824
C25   C     C_R   0.375413 0.812278 0.818887 -0.113496
C26   C     C_R   0.519271 0.746245 0.806164 0.099273
C27   C     C_3   0.729533 0.759462 0.793825 -0.411555
C28   C     C_3   0.717185 0.689504 0.723779 -0.399310
H12   H     H_    0.815175 0.734839 0.847803 0.176571
H13   H     H_    0.763729 0.830242 0.772086 0.158266
H14   H     H_    0.794712 0.624221 0.737443 0.170175
H15   H     H_    0.745244 0.719436 0.661446 0.168155
C29   C     C_R   0.509372 0.747112 0.310308 0.100205
C30   C     C_R   0.352577 0.687303 0.318446 -0.110118
C31   C     C_R   0.200348 0.697668 0.261385 -0.176787
H16   H     H_    0.077108 0.652647 0.264822 0.132440
C32   C     C_R   0.212178 0.761496 0.195561 -0.180293
H17   H     H_    0.096451 0.764640 0.150724 0.129601
C33   C     C_R   0.377316 0.816305 0.184434 -0.107865
C34   C     C_R   0.521520 0.809951 0.244980 0.097056
C35   C     C_3   0.731203 0.793010 0.234414 -0.416066
C36   C     C_3   0.718053 0.724956 0.305821 -0.394994
H18   H     H_    0.818582 0.854959 0.249428 0.171129
H19   H     H_    0.763880 0.759735 0.173856 0.170483
H20   H     H_    0.797205 0.747711 0.362270 0.172018
H21   H     H_    0.743857 0.652293 0.286825 0.168188
O11   O     O_R   0.229000 0.916070 0.913330 -0.543751
O12   O     O_R   0.558770 0.905070 0.086080 -0.541703
O13   O     O_R   0.729000 0.083900 0.086690 -0.538986
C37   C     C_R   0.389887 0.882683 0.114591 0.685250
O14   O     O_R   0.558720 0.905070 0.913930 -0.539273
O15   O     O_R   0.728960 0.083900 0.913310 -0.509780
C38   C     C_R   0.389537 0.882776 0.885358 0.704488
O16   O     O_R   0.229050 0.916070 0.086710 -0.542129
O17   O     O_3   0.395460 0.058650 0.000020 -0.359065
V3    V     V_3+5 0.670340 0.989120 0.000000 1.421942
O18   O     O_R   0.058670 0.094960 0.913900 -0.538076
C39   C     C_R   0.889341 0.115884 0.884230 0.724145
O19   O     O_R   0.058720 0.094960 0.086050 -0.544277
C40   C     C_R   0.890069 0.117075 0.114729 0.692256
V4    V     V_3+5 0.170330 0.010930 0.999970 1.409565
O20   O     O_3   0.895340 0.941350 0.999980 -0.377458
O21   O     O_3   0.548948 0.134391 0.778040 -0.548539
C41   C     C_3   0.533540 0.061709 0.719844 0.111030
H22   H     H_    0.609012 0.000000 0.744705 0.113773
H23   H     H_    0.594906 0.078185 0.657557 0.093919
C42   C     C_3   0.322258 0.038579 0.707252 -0.732735
H24   H     H_    0.247217 0.097696 0.677700 0.210314
H25   H     H_    0.308318 0.977275 0.666354 0.174983
H26   H     H_    0.253238 0.023748 0.767823 0.227255
C43   C     C_3   0.075067 0.451605 0.793201 -0.772909
H27   H     H_    0.931925 0.441595 0.822391 0.213690
H28   H     H_    0.171428 0.486780 0.838207 0.209913
H29   H     H_    0.058579 0.496681 0.738020 0.208986
C44   C     C_3   0.409430 0.399753 0.230159 -0.743055
H30   H     H_    0.254208 0.387740 0.218496 0.218529
H31   H     H_    0.424150 0.449885 0.281841 0.209612
H32   H     H_    0.474501 0.429883 0.173334 0.203864

loop_
_geom_bond_atom_site_label_1
_geom_bond_atom_site_label_2
_ccdc_geom_bond_type
C41   H22   S    
C4    C6    S    
C17   C18   A    
C11   H3    S    
O18   V4    S    
O12   V3    S    
C42   H24   S    
C12   H4    S    
C13   C18   A    
C33   C34   A    
O14   C38   A    
C18   C19   S    
C7    C8    A    
C19   C20   S    
C11   H2    S    
O13   V3    S    
O5    C3    A    
C14   C15   A    
C31   C32   A    
V2    O10   S    
C44   H30   S    
C29   C30   A    
C32   C33   A    
C6    C7    A    
C14   C40   S    
C25   C38   S    
C24   H11   S    
O8    V2    S    
C7    H1    S    
C13   C20   S    
C27   H12   S    
C10   C11   S    
C15   C16   A    
C33   C37   S    
O1    V2    S    
O11   V4    S    
O7    V1    S    
C1    O6    A    
C21   C28   S    
C12   C43   S    
O1    C2    A    
O9    C4    A    
C19   C44   S    
C23   C24   A    
C16   H6    S    
C24   C25   A    
C27   H13   S    
C35   H19   S    
C11   C12   S    
C20   H9    S    
O4    C2    A    
O21   C41   S    
O15   C39   A    
O16   V4    S    
C27   C28   S    
C31   H16   S    
C32   H17   S    
C35   H18   S    
O2    C1    A    
C22   C23   A    
C9    C39   S    
C13   C14   A    
C42   H25   S    
C15   H5    S    
C36   H20   S    
C5    C6    A    
C29   C34   A    
C5    C10   A    
V4    O20   S    
C3    C17   S    
C43   H28   S    
O3    C4    A    
C25   C26   A    
O19   C40   A    
O6    V2    S    
O19   V4    S    
O14   V3    S    
C41   H23   S    
O11   C38   A    
C21   C22   A    
O2    V1    S    
V3    O20   S    
C23   H10   S    
C42   H26   S    
O12   C37   A    
C8    O21   S    
O17   V3    S    
O18   C39   A    
O5    V1    S    
O8    C3    A    
C1    C22   S    
C44   H32   S    
C44   H31   S    
C43   H29   S    
C28   H14   S    
C5    C12   S    
C35   C36   S    
O9    V2    S    
O7    V2    S    
O4    V1    S    
C19   H7    S    
O3    V1    S    
V1    O10   S    
C20   H8    S    
C30   C31   A    
C36   H21   S    
C16   C17   A    
C28   H15   S    
C43   H27   S    
O13   C40   A    
C21   C26   A    
C34   C35   S    
O17   V4    S    
C26   C27   S    
C41   C42   S    
C37   O16   A    
C9    C10   A    
C8    C9    A    
O15   V3    S    
C2    C30   S    
C29   C36   S    
