data_mof_unit_13934.cif
_audit_creation_date              2013-03-05T15:48:19-0500
_audit_creation_method            fapswitch 2.2
_symmetry_space_group_name_H-M    P1
_symmetry_Int_Tables_number       1
_space_group_crystal_system       triclinic
_cell_length_a                    21.139982
_cell_length_b                    7.23212
_cell_length_c                    18.48233
_cell_angle_alpha                 90.002886
_cell_angle_beta                  92.747597
_cell_angle_gamma                 90.004234
_cell_volume                      2822.45744175

loop_
_atom_site_label
_atom_site_type_symbol
_atom_site_description
_atom_site_fract_x
_atom_site_fract_y
_atom_site_fract_z
_atom_type_partial_charge
O1    O     O_R   0.448880 0.506250 0.415280 -0.583627
O2    O     O_R   0.551120 0.006250 0.584720 -0.583507
O3    O     O_R   0.434830 0.174000 0.557310 -0.551770
O4    O     O_R   0.565170 0.674000 0.442690 -0.551754
C1    C     C_R   0.418377 0.344252 0.581416 0.998602
C2    C     C_R   0.581627 0.844254 0.418589 0.998502
O5    O     O_R   0.441680 0.176440 0.414130 -0.573904
O6    O     O_R   0.558320 0.676440 0.585870 -0.573991
O7    O     O_R   0.558020 0.007570 0.440520 -0.559083
O8    O     O_R   0.441980 0.507570 0.559480 -0.559052
C3    C     C_R   0.426658 0.345238 0.389734 0.955144
C4    C     C_R   0.573337 0.845258 0.610268 0.954968
O9    O     O_3   0.538160 0.339670 0.508820 -0.265451
O10   O     O_3   0.461840 0.839670 0.491180 -0.265464
V1    V     V_3+5 0.492920 0.064260 0.498360 1.246933
V2    V     V_3+5 0.507080 0.564260 0.501640 1.246918
C5    C     C_R   0.884025 0.902820 0.692549 -0.004125
C6    C     C_R   0.115988 0.404075 0.307482 -0.003837
H1    H     H_    0.969420 0.899755 0.758733 0.137102
H2    H     H_    0.030583 0.400691 0.241316 0.137130
H3    H     H_    0.910481 0.888148 0.644177 0.172435
H4    H     H_    0.089529 0.389798 0.355868 0.172468
C7    C     C_R   0.887568 0.936341 0.822189 -0.238072
C8    C     C_R   0.112440 0.436473 0.177803 -0.238083
C9    C     C_R   0.584175 0.822755 0.741847 -0.174650
C10   C     C_R   0.415757 0.321888 0.258185 -0.174656
C11   C     C_R   0.618069 0.811542 0.807730 -0.087155
C12   C     C_R   0.381836 0.310367 0.192330 -0.087102
C13   C     C_R   0.683268 0.836919 0.811623 -0.023932
C14   C     C_R   0.316659 0.336133 0.188435 -0.023982
C15   C     C_R   0.716815 0.882244 0.749710 0.088334
C16   C     C_R   0.283164 0.382190 0.250308 0.088276
C17   C     C_R   0.682761 0.877518 0.680438 -0.098396
C18   C     C_R   0.317230 0.377792 0.319574 -0.098386
C19   C     C_R   0.784162 0.914550 0.754396 -0.075011
C20   C     C_R   0.215842 0.414856 0.245604 -0.075039
C21   C     C_R   0.817436 0.908474 0.689440 -0.087586
C22   C     C_R   0.182580 0.409630 0.310581 -0.087449
C23   C     C_R   0.784295 0.903542 0.621885 0.253457
C24   C     C_R   0.215728 0.405303 0.378146 0.252857
C25   C     C_R   0.718064 0.891359 0.617337 0.199950
C26   C     C_R   0.281956 0.392423 0.382677 0.200049
C27   C     C_R   0.820530 0.948918 0.820940 0.305975
C28   C     C_R   0.179482 0.448790 0.179024 0.305910
C29   C     C_R   0.918218 0.909385 0.758161 -0.227053
C30   C     C_R   0.081789 0.410153 0.241867 -0.227217
C31   C     C_R   0.614942 0.852276 0.677562 -0.123939
C32   C     C_R   0.385034 0.352135 0.322451 -0.124005
H5    H     H_    0.533364 0.801545 0.740692 0.105388
H6    H     H_    0.466551 0.300335 0.259344 0.105400
H7    H     H_    0.706839 0.810790 0.863551 0.155611
H8    H     H_    0.293054 0.309721 0.136545 0.155664
H9    H     H_    0.593646 0.779302 0.856332 0.128769
H10   H     H_    0.406220 0.277564 0.143754 0.128805
C33   C     C_1   0.864196 0.938957 0.131671 -0.243241
C34   C     C_1   0.135804 0.438966 0.868328 -0.243172
C35   C     C_1   0.821019 0.924799 0.175008 0.089318
C36   C     C_1   0.178981 0.424807 0.824992 0.089340
C37   C     C_1   0.770050 0.905494 0.226582 0.031697
C38   C     C_1   0.229950 0.405498 0.773418 0.031685
C39   C     C_1   0.727144 0.888696 0.270132 0.037763
C40   C     C_1   0.272856 0.388697 0.729869 0.037830
C41   C     C_1   0.676273 0.869427 0.321823 0.108322
C42   C     C_1   0.323727 0.369423 0.678179 0.108486
C43   C     C_1   0.633373 0.855368 0.365509 -0.178239
C44   C     C_1   0.366629 0.355362 0.634494 -0.178239
O11   O     O_R   0.058070 0.289240 0.940580 -0.572048
O12   O     O_R   0.941930 0.789240 0.059420 -0.572115
O13   O     O_R   0.058330 0.616740 0.085880 -0.576592
O14   O     O_R   0.941670 0.116740 0.914120 -0.576454
C45   C     C_R   0.072316 0.448265 0.110642 1.014107
C46   C     C_R   0.927686 0.948245 0.889355 1.014000
O15   O     O_R   0.065180 0.619040 0.942700 -0.565413
O16   O     O_R   0.934820 0.119040 0.057300 -0.565314
O17   O     O_R   0.948870 0.787780 0.915270 -0.587724
O18   O     O_R   0.051130 0.287780 0.084730 -0.587647
C47   C     C_R   0.083240 0.450352 0.920250 0.988884
C48   C     C_R   0.916760 0.950348 0.079750 0.988831
O19   O     O_3   0.961870 0.453310 0.991210 -0.276713
O20   O     O_3   0.038130 0.953310 0.008790 -0.276720
V3    V     V_3+5 0.007070 0.728770 0.001630 1.218817
V4    V     V_3+5 0.992930 0.228770 0.998370 1.218963
N1    N     N_R   0.817936 0.914382 0.556284 0.256880
O21   O     O_R   0.818770 0.773843 0.512418 -0.304910
O22   O     O_R   0.847992 0.065027 0.540561 -0.342587
N2    N     N_R   0.182106 0.417704 0.443733 0.256855
O23   O     O_R   0.181925 0.279067 0.488574 -0.304231
O24   O     O_R   0.151680 0.568293 0.458673 -0.343459
N3    N     N_R   0.791328 0.020268 0.883777 0.211961
O25   O     O_R   0.804919 0.951210 0.947651 -0.451484
O26   O     O_R   0.752853 0.160440 0.877537 -0.388175
N4    N     N_R   0.208709 0.519513 0.116096 0.211918
O27   O     O_R   0.195065 0.450017 0.052304 -0.451487
O28   O     O_R   0.247271 0.659529 0.122166 -0.388214
N5    N     N_R   0.688266 0.881456 0.546861 0.211646
O29   O     O_R   0.685085 0.030921 0.507715 -0.377068
O30   O     O_R   0.684971 0.720907 0.515206 -0.379139
N6    N     N_R   0.311771 0.382402 0.453140 0.211923
O31   O     O_R   0.314927 0.531719 0.492383 -0.376681
O32   O     O_R   0.315165 0.221722 0.484678 -0.379527

loop_
_geom_bond_atom_site_label_1
_geom_bond_atom_site_label_2
_geom_bond_distance
_ccdc_geom_bond_type
C22   C24   1.402706 A    
C41   C43   1.246978 T    
C7    C29   1.389863 A    
C11   C13   1.388883 A    
N5    O29   1.300723 A    
O11   C47   1.342044 A    
O2    C4    1.333436 A    
C2    O7    1.351966 A    
C23   C25   1.401375 A    
C10   H6    1.084250 S    
O5    C3    1.334468 A    
C27   N3    1.436965 S    
O12   V3    1.835599 S    
C16   C20   1.441194 A    
C19   C21   1.420912 A    
C5    C29   1.382481 A    
C4    C31   1.489338 S    
C45   O18   1.325277 A    
O20   V3    1.754191 S    
N2    O24   1.301216 A    
C35   C37   1.479038 S    
C36   C38   1.479045 S    
C7    C27   1.419181 A    
C38   C40   1.247122 T    
C24   N2    1.437099 S    
O13   C45   1.329883 A    
C40   C42   1.478904 S    
C2    C43   1.506138 S    
C18   C26   1.418044 A    
C15   C17   1.438838 A    
N3    O26   1.301410 A    
C19   C27   1.440394 A    
C9    C31   1.398001 A    
C28   N4    1.436992 S    
C10   C32   1.398015 A    
C24   C26   1.401652 A    
O6    V2    2.023156 S    
C3    C32   1.489383 S    
O16   V4    1.858316 S    
C46   O17   1.325255 A    
C6    C30   1.382487 A    
O15   V3    1.858346 S    
O12   C48   1.342054 A    
C37   C39   1.247120 T    
O4    C2    1.360292 A    
O18   V4    2.013727 S    
C33   C48   1.504883 S    
C12   H10   1.082764 S    
N2    O23   1.300977 A    
O17   V3    2.013803 S    
C5    H3    1.082252 S    
C34   C47   1.504887 S    
C42   C44   1.246980 T    
O4    V2    1.858286 S    
N1    O21   1.300760 A    
O6    C4    1.334511 A    
H1    C29   1.084207 S    
O1    V2    2.012210 S    
C5    C21   1.406707 A    
O2    V1    2.012284 S    
N1    O22   1.301057 A    
N6    O32   1.300524 A    
C33   C35   1.247087 T    
C17   C31   1.443706 A    
C15   C19   1.441248 A    
C20   C28   1.440382 A    
C18   C32   1.443799 A    
C20   C22   1.420912 A    
O3    V1    1.858315 S    
C13   H7    1.076716 S    
C14   H8    1.076712 S    
N5    O30   1.300516 A    
C6    H4    1.082233 S    
C7    C46   1.471993 S    
C39   C41   1.478901 S    
C1    C44   1.506145 S    
O3    C1    1.360296 A    
C26   N6    1.421217 S    
O19   V4    1.754295 S    
C11   H9    1.082751 S    
C9    C11   1.385288 A    
C10   C12   1.385254 A    
C8    C30   1.389828 A    
C12   C14   1.388856 A    
C6    C22   1.406752 A    
C17   C25   1.417954 A    
C1    O8    1.351949 A    
C13   C15   1.413370 A    
O8    V2    1.829168 S    
C14   C16   1.413394 A    
N4    O28   1.301397 A    
C25   N5    1.421238 S    
C8    C28   1.419158 A    
O5    V1    2.023280 S    
N4    O27   1.301240 A    
C34   C36   1.247088 T    
O7    V1    1.829191 S    
O14   V4    2.023208 S    
C9    H5    1.084241 S    
O13   V3    2.023330 S    
C23   N1    1.436876 S    
O11   V4    1.835575 S    
C21   C23   1.402552 A    
N6    O31   1.300740 A    
O16   C48   1.349626 A    
O9    V2    1.754807 S    
O15   C47   1.349621 A    
O10   V1    1.754704 S    
O14   C46   1.329939 A    
O1    C3    1.333484 A    
N3    O25   1.301247 A    
H2    C30   1.084208 S    
C8    C45   1.471948 S    
C16   C18   1.438815 A    
