data_mof_unit_38321.cif
_audit_creation_date              2012-12-11T16:33:24-0500
_audit_creation_method            fapswitch 2.2
_symmetry_space_group_name_H-M    P1
_symmetry_Int_Tables_number       1
_space_group_crystal_system       triclinic
_cell_length_a                    6.947732
_cell_length_b                    18.279325
_cell_length_c                    20.187281
_cell_angle_alpha                 68.541077
_cell_angle_beta                  90.198446
_cell_angle_gamma                 90.500173
_cell_volume                      2385.96953628

loop_
_atom_site_label
_atom_site_type_symbol
_atom_type_description
_atom_site_fract_x
_atom_site_fract_y
_atom_site_fract_z
_atom_type_partial_charge
O1    O     O_R   0.488960 0.443750 0.941980 -0.545796
O2    O     O_R   0.823890 0.406510 0.087590 -0.525145
O3    O     O_R   0.999680 0.556250 0.058020 -0.525190
C1    C     C_R   0.653776 0.382618 0.114306 0.638604
O4    O     O_R   0.818360 0.434410 0.944340 -0.518585
O5    O     O_R   0.994110 0.584350 0.913750 -0.524337
C2    C     C_R   0.650276 0.422761 0.921954 0.749278
O6    O     O_R   0.494530 0.415650 0.086250 -0.542419
O7    O     O_3   0.662590 0.549160 0.990130 -0.376800
V1    V     V_3+5 0.935320 0.490880 0.001830 1.554315
O8    O     O_R   0.324180 0.593490 0.912410 -0.556451
C3    C     C_R   0.155312 0.613833 0.883113 0.753152
O9    O     O_R   0.329720 0.565590 0.055660 -0.547382
C4    C     C_R   0.161683 0.579742 0.076032 0.705888
V2    V     V_3+5 0.435990 0.509120 0.998170 1.467755
O10   O     O_3   0.158850 0.450840 0.009870 -0.352076
C5    C     C_3   0.087628 0.700611 0.317502 -0.202611
C6    C     C_3   0.266159 0.694191 0.274545 0.042767
H1    H     H_    0.052209 0.660374 0.372384 0.156627
H2    H     H_    0.445568 0.811790 0.251417 0.156485
C7    C     C_1   0.154873 0.625199 0.121656 -0.106545
C8    C     C_1   0.111014 0.874118 0.378533 -0.015409
C9    C     C_3   0.960129 0.714020 0.250471 -0.198104
C10   C     C_3   0.140371 0.707464 0.208435 0.154491
C11   C     C_3   0.997734 0.803378 0.226864 0.050083
C12   C     C_3   0.123645 0.790167 0.292978 0.136179
C13   C     C_3   0.176260 0.796913 0.183916 -0.252576
C14   C     C_3   0.303815 0.783541 0.250913 -0.215518
C15   C     C_1   0.148553 0.662428 0.160581 0.053815
C16   C     C_1   0.116655 0.836137 0.340172 0.129422
H3    H     H_    0.211734 0.836508 0.128781 0.110435
H4    H     H_    0.818302 0.685869 0.249868 0.160532
C17   C     C_R   0.166611 0.772788 0.877710 -0.218928
C18   C     C_R   0.158063 0.848591 0.878394 -0.215252
C19   C     C_R   0.131207 0.913097 0.814838 0.561986
C20   C     C_R   0.128399 0.901117 0.750528 -0.203669
C21   C     C_R   0.134150 0.824726 0.748402 -0.009745
C22   C     C_R   0.149610 0.758973 0.813344 0.064162
C23   C     C_R   0.118501 0.813549 0.682905 -0.092113
C24   C     C_R   0.105362 0.736080 0.682674 -0.018935
C25   C     C_R   0.110595 0.669220 0.747749 -0.079179
C26   C     C_R   0.141910 0.681199 0.813481 -0.119250
C27   C     C_R   0.077523 0.725000 0.617796 -0.214726
C28   C     C_R   0.049855 0.650541 0.615048 -0.085554
C29   C     C_R   0.061236 0.583866 0.678044 0.363460
C30   C     C_R   0.082044 0.592726 0.744641 0.341773
H5    H     H_    0.182617 0.725191 0.928547 0.112139
H6    H     H_    0.170522 0.856738 0.928710 0.119202
H7    H     H_    0.113763 0.952583 0.702380 0.125927
H8    H     H_    0.069836 0.775007 0.568270 0.160690
H9    H     H_    0.019029 0.344155 0.401452 0.157953
C31   C     C_R   0.470721 0.105742 0.255115 -0.127358
C32   C     C_R   0.329072 0.106949 0.204503 0.379905
C33   C     C_R   0.295483 0.177334 0.147113 -0.098018
C34   C     C_R   0.438601 0.236217 0.131473 -0.054671
C35   C     C_R   0.543368 0.244589 0.189387 -0.030780
C36   C     C_R   0.546440 0.178968 0.255041 -0.059276
C37   C     C_R   0.638988 0.316038 0.183968 -0.135200
C38   C     C_R   0.716907 0.325116 0.245906 0.003158
C39   C     C_R   0.720041 0.259620 0.312310 0.006429
C40   C     C_R   0.627371 0.186921 0.317286 -0.140613
C41   C     C_R   0.789195 0.399518 0.244246 -0.048265
C42   C     C_R   0.918501 0.401564 0.296428 -0.129958
C43   C     C_R   0.935339 0.337181 0.358683 -0.147436
C44   C     C_R   0.818043 0.270907 0.370766 -0.013770
H10   H     H_    0.987369 0.456092 0.293525 0.169481
O11   O     O_R   0.770540 0.084530 0.414050 -0.541584
O12   O     O_R   0.445710 0.065660 0.555720 -0.542903
O13   O     O_R   0.270420 0.915650 0.586190 -0.540861
C45   C     C_R   0.613742 0.076865 0.578843 0.723869
O14   O     O_R   0.441140 0.093540 0.412470 -0.532518
O15   O     O_R   0.265820 0.943740 0.441930 -0.521389
C46   C     C_R   0.611727 0.118831 0.386529 0.637480
O16   O     O_R   0.775150 0.056440 0.558310 -0.519690
O17   O     O_3   0.602370 0.950960 0.510050 -0.370427
V3    V     V_3+5 0.329450 0.009140 0.498150 1.513815
O18   O     O_R   0.935790 0.934280 0.444060 -0.543956
C47   C     C_R   0.104001 0.920125 0.423792 0.726076
O19   O     O_R   0.940370 0.906390 0.587310 -0.543594
C48   C     C_R   0.109089 0.883227 0.614772 0.667296
V4    V     V_3+5 0.828810 0.990710 0.501460 1.504300
O20   O     O_3   0.105780 0.049100 0.489960 -0.354317
C49   C     C_3   0.709017 0.320729 0.713268 -0.200089
C50   C     C_3   0.522139 0.285833 0.693289 -0.218149
H11   H     H_    0.429988 0.315209 0.646132 0.127985
H12   H     H_    0.772436 0.379227 0.682425 0.173248
C51   C     C_1   0.620852 0.121999 0.624922 -0.113187
C52   C     C_1   0.644312 0.378479 0.875515 -0.101792
C53   C     C_3   0.811746 0.240542 0.730068 -0.167010
C54   C     C_3   0.625508 0.206153 0.710430 0.097296
C55   C     C_3   0.739761 0.214056 0.807928 0.454994
C56   C     C_3   0.640476 0.293411 0.791317 0.049201
C57   C     C_3   0.556702 0.178450 0.788466 -0.096009
C58   C     C_3   0.456050 0.258289 0.771955 -0.109067
C59   C     C_1   0.623191 0.159774 0.663507 0.062844
C60   C     C_1   0.643396 0.340903 0.836983 0.035990
H13   H     H_    0.957725 0.231289 0.712576 0.125107
C61   C     C_2   0.418852 0.633518 0.303665 0.338406
H14   H     H_    0.500178 0.631630 0.350209 0.052431
O21   O     O_2   0.452693 0.586236 0.275546 -0.521783
O22   O     O_3   0.116179 0.989440 0.812736 -0.538576
C62   C     C_3   0.975978 0.994178 0.861362 -0.205476
H15   H     H_    0.040576 0.980539 0.914909 0.125498
H16   H     H_    0.848009 0.955851 0.864349 0.144103
H17   H     H_    0.923621 0.055301 0.842694 0.214404
C63   C     C_2   0.993981 0.642974 0.546672 0.353368
H18   H     H_    0.949178 0.586579 0.545242 0.090287
O23   O     O_2   0.994300 0.699921 0.491019 -0.560787
O24   O     O_3   0.036810 0.529415 0.806090 -0.561235
C64   C     C_3   0.178709 0.470818 0.821730 -0.121157
H19   H     H_    0.326691 0.495063 0.806495 0.071290
H20   H     H_    0.141218 0.427336 0.797301 0.173415
H21   H     H_    0.177494 0.437644 0.879849 0.192815
C65   C     C_2   0.561434 0.029578 0.298393 0.480497
H22   H     H_    0.709308 0.028761 0.315919 0.045913
O25   O     O_2   0.476204 0.967039 0.313090 -0.510949
O26   O     O_3   0.224840 0.039684 0.211273 -0.535032
C66   C     C_3   0.298703 0.007433 0.162858 -0.185745
H23   H     H_    0.289409 0.048952 0.106699 0.094004
H24   H     H_    0.211085 0.955212 0.167006 0.172229
H25   H     H_    0.450054 0.988077 0.175814 0.178293
C67   C     C_2   0.118976 0.186551 0.102963 0.468517
H26   H     H_    0.027166 0.136278 0.108732 0.047070
O27   O     O_2   0.068277 0.251271 0.062356 -0.507499
C68   C     C_2   0.516792 0.267324 0.057718 0.412548
H27   H     H_    0.663824 0.288621 0.048294 0.037267
O28   O     O_2   0.424245 0.264369 0.007244 -0.507766
C69   C     C_2   0.703283 0.475856 0.199070 0.438932
H28   H     H_    0.560524 0.477617 0.176920 0.053429
O29   O     O_2   0.785628 0.538119 0.189603 -0.530922
C70   C     C_2   0.780159 0.224309 0.446219 0.402965
H29   H     H_    0.635539 0.203484 0.462784 -0.001384
O30   O     O_2   0.906906 0.213044 0.490899 -0.533827
C71   C     C_2   0.262688 0.271170 0.797610 0.409643
H30   H     H_    0.155805 0.305076 0.760129 0.037926
O31   O     O_2   0.228389 0.246688 0.861266 -0.484928
C72   C     C_2   0.471058 0.099608 0.830160 0.404244
H31   H     H_    0.386220 0.091653 0.877322 0.082532
O32   O     O_2   0.499294 0.043803 0.812122 -0.522082
O33   O     O_3   0.865753 0.179679 0.865839 -0.538186
C73   C     C_3   0.762815 0.150312 0.930457 -0.205361
H32   H     H_    0.713461 0.089264 0.940662 0.101949
H33   H     H_    0.638438 0.187332 0.932538 0.166016
H34   H     H_    0.861757 0.148228 0.974347 0.185067
C74   C     C_2   0.844628 0.863957 0.197953 0.315088
H35   H     H_    0.763597 0.866128 0.151267 0.033217
O34   O     O_2   0.810192 0.910875 0.226417 -0.524367
O35   O     O_3   0.028492 0.509850 0.676064 -0.557773
C75   C     C_3   0.197978 0.484343 0.652601 -0.331397
H36   H     H_    0.236504 0.521906 0.597154 0.140619
H37   H     H_    0.172696 0.424090 0.653344 0.160224
H38   H     H_    0.322469 0.482061 0.688064 0.140612

loop_
_geom_bond_atom_site_label_1
_geom_bond_atom_site_label_2
_ccdc_geom_bond_type
C34   C35   A    
C52   C60   T    
C57   C58   S    
C29   O35   S    
C25   C26   A    
C19   C20   A    
C10   C13   S    
O15   V3    S    
C69   H28   S    
C66   H24   S    
C65   H22   S    
C54   C59   S    
C70   O30   D    
O18   C47   A    
C31   C32   A    
C49   C56   S    
C72   O32   D    
O22   C62   S    
C62   H17   S    
C49   C50   S    
C6    C10   S    
C5    C12   S    
C4    C7    S    
C20   C21   A    
O11   V4    S    
C22   C26   A    
C73   H33   S    
O5    C3    A    
O14   V3    S    
C32   O26   S    
C63   H18   S    
V2    O10   S    
C56   C60   S    
C35   C36   A    
O13   V3    S    
C18   C19   A    
C66   H23   S    
O15   C47   A    
C74   O34   D    
C10   C15   S    
O8    V2    S    
C24   C27   A    
C34   C68   S    
C35   C37   A    
C51   C59   T    
C45   O16   A    
C3    C26   S    
C25   C30   A    
C28   C63   S    
O11   C46   A    
C53   C55   S    
O7    V1    S    
C1    O6    A    
C33   C67   S    
C42   H10   S    
C38   C39   A    
O9    C4    A    
C73   H32   S    
C50   C54   S    
C45   C51   S    
C44   C70   S    
C74   H35   S    
C50   C58   S    
C67   H26   S    
C49   C53   S    
O26   C66   S    
C13   H3    S    
C6    C14   S    
C50   H11   S    
C8    C47   S    
C75   H38   S    
V3    O20   S    
C55   C56   S    
O19   V4    S    
O17   V4    S    
C71   O31   D    
H2    C14   S    
C40   C46   S    
C11   C12   S    
C32   C33   A    
C7    C15   T    
V4    O20   S    
C64   H19   S    
C53   H13   S    
C39   C40   A    
C66   H25   S    
O2    C1    A    
O17   V3    S    
C21   C22   A    
C55   C57   S    
O4    C2    A    
C2    C52   S    
O18   V4    S    
C9    C10   S    
C41   C42   A    
C56   C58   S    
C5    C6    S    
C5    C9    S    
O33   C73   S    
C62   H16   S    
C64   H21   S    
O3    C4    A    
O1    V2    S    
C24   C25   A    
C39   C44   A    
C12   C16   S    
O6    V2    S    
C61   O21   D    
O9    V2    S    
C27   C28   A    
C68   H27   S    
C17   H5    S    
O19   C48   A    
C73   H34   S    
C11   C13   S    
O16   V4    S    
C67   O27   D    
C70   H29   S    
O2    V1    S    
C23   C24   A    
C28   C29   A    
C54   C57   S    
O14   C46   A    
C33   C34   A    
C38   C41   A    
C8    C16   T    
O1    C2    A    
H9    C43   S    
C42   C43   A    
C19   O22   S    
C69   O29   D    
O5    V1    S    
C65   O25   D    
O8    C3    A    
C27   H8    S    
C36   C40   A    
C71   H30   S    
C31   C65   S    
O12   V3    S    
C72   H31   S    
C12   C14   S    
C17   C22   A    
C58   C71   S    
C9    H4    S    
C75   H37   S    
C37   C38   A    
O4    V1    S    
C21   C23   A    
O3    V1    S    
V1    O10   S    
C75   H36   S    
C23   C48   S    
C41   C69   S    
C63   O23   D    
C43   C44   A    
C5    H1    S    
C17   C18   A    
O35   C75   S    
C9    C11   S    
O7    V2    S    
C62   H15   S    
C64   H20   S    
C57   C72   S    
C31   C36   A    
C55   O33   S    
C29   C30   A    
C49   H12   S    
C18   H6    S    
O12   C45   A    
C61   H14   S    
C30   O24   S    
C1    C37   S    
C13   C14   S    
C68   O28   D    
O13   C48   A    
C11   C74   S    
C6    C61   S    
C53   C54   S    
O24   C64   S    
C20   H7    S    
