data_mof_unit_51876.cif
_audit_creation_date              2012-12-11T14:33:51-0500
_audit_creation_method            fapswitch 2.2
_symmetry_space_group_name_H-M    P1
_symmetry_Int_Tables_number       1
_space_group_crystal_system       triclinic
_cell_length_a                    13.845017
_cell_length_b                    13.977729
_cell_length_c                    27.327359
_cell_angle_alpha                 89.988542
_cell_angle_beta                  90.097702
_cell_angle_gamma                 119.642107
_cell_volume                      4596.34488687

loop_
_atom_site_label
_atom_site_type_symbol
_atom_type_description
_atom_site_fract_x
_atom_site_fract_y
_atom_site_fract_z
_atom_type_partial_charge
C1    C     C_R   0.234015 0.787060 0.568818 0.539721
C2    C     C_R   0.212719 0.446836 0.568858 0.542752
C3    C     C_R   0.552776 0.765286 0.569032 0.539244
C4    C     C_3   0.655170 0.731195 0.790597 0.197115
C5    C     C_3   0.252058 0.942028 0.785727 0.196663
C6    C     C_3   0.057533 0.319491 0.786769 0.197219
C7    C     C_3   0.635986 0.720071 0.734210 -0.169625
C8    C     C_3   0.267132 0.927132 0.730402 -0.169468
C9    C     C_3   0.075725 0.353284 0.731741 -0.168451
C10   C     C_1   0.707066 0.862191 0.860171 -0.038693
C11   C     C_1   0.114727 0.877215 0.853166 -0.030901
C12   C     C_1   0.116212 0.235646 0.852758 -0.033031
C13   C     C_1   0.628698 0.814478 0.659037 -0.074758
C14   C     C_1   0.177903 0.817047 0.656800 -0.074920
C15   C     C_1   0.179965 0.362032 0.656945 -0.075288
C16   C     C_1   0.601067 0.796200 0.616750 -0.015305
C17   C     C_1   0.199733 0.805236 0.615475 -0.015544
C18   C     C_1   0.193860 0.395287 0.615588 -0.015442
C19   C     C_R   0.064839 0.150338 0.095970 0.579353
C20   C     C_R   0.777562 0.884092 0.088407 0.546057
C21   C     C_R   0.116506 0.893669 0.088154 0.559332
C22   C     C_R   0.069877 0.161333 0.943116 0.540525
C23   C     C_R   0.779577 0.887069 0.950796 0.540617
C24   C     C_R   0.091009 0.928943 0.943253 0.537151
C25   C     C_R   0.618213 0.895502 0.361487 -0.133050
C26   C     C_R   0.097202 0.732243 0.362772 -0.134699
C27   C     C_R   0.264352 0.357693 0.363784 -0.135465
C28   C     C_R   0.644640 0.911163 0.311883 0.014148
C29   C     C_R   0.080629 0.743758 0.313119 0.014316
C30   C     C_R   0.241403 0.306850 0.317687 0.013940
C31   C     C_R   0.681214 0.929161 0.210427 0.017155
C32   C     C_R   0.060686 0.759883 0.211499 0.017023
C33   C     C_R   0.200819 0.226026 0.220979 0.016970
C34   C     C_R   0.232474 0.788289 0.431802 0.547633
C35   C     C_R   0.211675 0.444499 0.431368 0.549729
C36   C     C_R   0.555540 0.767179 0.431889 0.548515
C37   C     C_R   0.653390 0.000697 0.234532 -0.138031
C38   C     C_R   0.977590 0.670600 0.237492 -0.128001
C39   C     C_R   0.303219 0.256919 0.243592 -0.124094
C40   C     C_R   0.634925 0.991612 0.285001 -0.130907
C41   C     C_R   0.988125 0.661889 0.287965 -0.128942
C42   C     C_R   0.323501 0.297347 0.291564 -0.128828
C43   C     C_R   0.704198 0.939572 0.160181 -0.150595
C44   C     C_R   0.050785 0.771083 0.161141 -0.135704
C45   C     C_R   0.183012 0.195243 0.171516 -0.128957
C46   C     C_R   0.729178 0.864941 0.137170 -0.003140
C47   C     C_R   0.135396 0.861454 0.136275 -0.005209
C48   C     C_R   0.082842 0.172610 0.148618 -0.008793
C49   C     C_R   0.658886 0.744963 0.364120 -0.131507
C50   C     C_R   0.265914 0.910787 0.361969 -0.128543
C51   C     C_R   0.076134 0.328076 0.367961 -0.130431
C52   C     C_R   0.683176 0.757874 0.314604 0.013433
C53   C     C_R   0.254182 0.920491 0.312273 0.013820
C54   C     C_R   0.052664 0.279112 0.321896 0.011742
C55   C     C_R   0.673578 0.839581 0.288054 0.063930
C56   C     C_R   0.162311 0.835857 0.287426 0.063322
C57   C     C_R   0.136192 0.270498 0.296105 0.062605
C58   C     C_R   0.708623 0.684765 0.290617 -0.126850
C59   C     C_R   0.337411 0.009833 0.286592 -0.127175
C60   C     C_R   0.949158 0.245241 0.299971 -0.129246
C61   C     C_R   0.720729 0.689947 0.240162 -0.127164
C62   C     C_R   0.331594 0.013688 0.236011 -0.129480
C63   C     C_R   0.930215 0.208017 0.251789 -0.122650
C64   C     C_R   0.710682 0.770275 0.213613 0.010909
C65   C     C_R   0.240576 0.930273 0.211018 0.014347
C66   C     C_R   0.013396 0.201751 0.225339 0.016512
C67   C     C_3   0.566882 0.856040 0.737355 -0.234684
C68   C     C_3   0.129227 0.724893 0.738079 -0.236240
C69   C     C_3   0.274021 0.394072 0.737499 -0.236385
C70   C     C_R   0.688972 0.846784 0.237384 0.065259
C71   C     C_R   0.154293 0.841981 0.236647 0.063853
C72   C     C_R   0.116205 0.230934 0.247727 0.062015
C73   C     C_R   0.725314 0.776889 0.163637 -0.123142
C74   C     C_R   0.232675 0.936380 0.160863 -0.132840
C75   C     C_R   0.997220 0.171904 0.176151 -0.129469
C76   C     C_R   0.618555 0.807876 0.386708 -0.003324
C77   C     C_R   0.193408 0.812970 0.386385 -0.003726
C78   C     C_R   0.183227 0.372561 0.388108 -0.004925
C79   C     C_3   0.769877 0.921848 0.723024 -0.224544
C80   C     C_3   0.064733 0.858449 0.714290 -0.224649
C81   C     C_3   0.122513 0.204806 0.713404 -0.224101
C82   C     C_3   0.789648 0.934697 0.779076 -0.204720
C83   C     C_3   0.046470 0.872248 0.769104 -0.209707
C84   C     C_3   0.106698 0.171535 0.767965 -0.213599
C85   C     C_1   0.734335 0.873011 0.902544 -0.014871
C86   C     C_1   0.103563 0.898991 0.894623 -0.004872
C87   C     C_1   0.097526 0.202889 0.894287 -0.010844
C88   C     C_3   0.650456 0.828398 0.711967 0.039363
C89   C     C_3   0.159534 0.831140 0.708517 0.039710
C90   C     C_3   0.163648 0.329154 0.708534 0.041126
C91   C     C_3   0.587320 0.868645 0.793443 -0.271456
C92   C     C_3   0.111541 0.740779 0.793027 -0.268713
C93   C     C_3   0.256212 0.360349 0.792269 -0.266783
C94   C     C_3   0.684866 0.849254 0.807221 0.091137
C95   C     C_3   0.130889 0.858608 0.801619 0.091261
C96   C     C_3   0.133596 0.271192 0.801322 0.092305
Cr1   Cr    Cr6+3 0.164410 0.584450 0.499910 1.017061
Cr2   Cr    Cr6+3 0.415550 0.579960 0.499910 1.017503
Cr3   Cr    Cr6+3 0.420040 0.835590 0.499910 1.014633
Cr4   Cr    Cr6+3 0.155170 0.075460 0.019960 1.014809
Cr5   Cr    Cr6+3 0.924540 0.079710 0.019960 1.005602
Cr6   Cr    Cr6+3 0.920290 0.844830 0.019960 1.008688
H1    H     H_    0.606442 0.952591 0.804996 0.117840
H2    H     H_    0.025640 0.678697 0.804089 0.120922
H3    H     H_    0.312725 0.328481 0.802860 0.124579
H4    H     H_    0.480150 0.789720 0.730013 0.112125
H5    H     H_    0.196758 0.703969 0.734638 0.110772
H6    H     H_    0.305450 0.484126 0.734345 0.110050
H7    H     H_    0.510448 0.808681 0.812945 0.099084
H8    H     H_    0.169804 0.726527 0.815907 0.101853
H9    H     H_    0.278386 0.433991 0.815349 0.100628
H10   H     H_    0.706174 0.006757 0.139541 0.103884
H11   H     H_    0.975759 0.713217 0.141940 0.113416
H12   H     H_    0.248295 0.193146 0.150507 0.121554
H13   H     H_    0.588344 0.945376 0.379140 0.127434
H14   H     H_    0.039846 0.657488 0.381874 0.122953
H15   H     H_    0.346863 0.390893 0.379340 0.124472
H16   H     H_    0.645900 0.063502 0.214387 0.097933
H17   H     H_    0.905499 0.606821 0.218690 0.098053
H18   H     H_    0.368893 0.253333 0.223636 0.100261
H19   H     H_    0.611823 0.046538 0.302890 0.099588
H20   H     H_    0.924606 0.590829 0.307216 0.100532
H21   H     H_    0.404459 0.324172 0.307700 0.101737
H22   H     H_    0.742795 0.717552 0.146011 0.129066
H23   H     H_    0.298668 0.005750 0.141577 0.122775
H24   H     H_    0.919006 0.151728 0.158677 0.117776
H25   H     H_    0.738055 0.631321 0.221884 0.098275
H26   H     H_    0.397642 0.082300 0.216485 0.094104
H27   H     H_    0.852135 0.188189 0.234592 0.110391
H28   H     H_    0.715641 0.621516 0.310640 0.101082
H29   H     H_    0.408660 0.074771 0.305438 0.096927
H30   H     H_    0.884494 0.251864 0.319367 0.102925
H31   H     H_    0.575535 0.933750 0.722113 0.123681
H32   H     H_    0.052133 0.654420 0.722972 0.123011
H33   H     H_    0.338550 0.377657 0.721802 0.124464
H34   H     H_    0.661206 0.678766 0.383846 0.127679
H35   H     H_    0.338800 0.974977 0.380275 0.130865
H36   H     H_    0.012410 0.337465 0.386767 0.129806
H37   H     H_    0.831573 0.903288 0.705787 0.113674
H38   H     H_    0.085547 0.935693 0.694305 0.115414
H39   H     H_    0.042261 0.156356 0.693605 0.117782
H40   H     H_    0.782899 0.000782 0.707256 0.125530
H41   H     H_    0.986478 0.791460 0.698200 0.119601
H42   H     H_    0.183535 0.184691 0.696616 0.121635
H43   H     H_    0.810843 0.019407 0.790206 0.157758
H44   H     H_    0.960310 0.809790 0.779500 0.158134
H45   H     H_    0.163100 0.139456 0.777481 0.173320
H46   H     H_    0.861869 0.924188 0.788654 0.138350
H47   H     H_    0.054031 0.953747 0.775233 0.123881
H48   H     H_    0.020071 0.104799 0.774103 0.133376
H49   H     H_    0.550783 0.651129 0.726440 0.068896
H50   H     H_    0.337512 0.910680 0.725778 0.069093
H51   H     H_    0.103339 0.442588 0.728566 0.067454
H52   H     H_    0.695303 0.698871 0.716444 0.141855
H53   H     H_    0.289325 0.004349 0.710066 0.143392
H54   H     H_    0.996062 0.308037 0.711188 0.144392
H55   H     H_    0.575708 0.672442 0.809256 0.088556
H56   H     H_    0.308317 0.921500 0.807221 0.092082
H57   H     H_    0.083795 0.394951 0.809555 0.091079
O1    O     O_R   0.137150 0.468200 0.553200 -0.512195
O2    O     O_R   0.531800 0.668950 0.553200 -0.512089
O3    O     O_R   0.331050 0.862850 0.553200 -0.510499
O4    O     O_R   0.179100 0.982980 0.967000 -0.505707
O5    O     O_R   0.017020 0.196120 0.967000 -0.484520
O6    O     O_R   0.803880 0.820900 0.967000 -0.506441
O7    O     O_R   0.173970 0.688730 0.549930 -0.500888
O8    O     O_R   0.311270 0.485240 0.549930 -0.500078
O9    O     O_R   0.514760 0.826030 0.549930 -0.498689
O10   O     O_R   0.140110 0.470540 0.446010 -0.521721
O11   O     O_R   0.529460 0.669570 0.446010 -0.521567
O12   O     O_R   0.330430 0.859890 0.446010 -0.524049
O13   O     O_R   0.176710 0.690910 0.450560 -0.502137
O14   O     O_R   0.309090 0.485800 0.450560 -0.501184
O15   O     O_R   0.514200 0.823290 0.450560 -0.504049
O16   O     O_3   0.333333 0.666667 0.499990 -0.262884
O17   O     O_R   0.176750 0.985260 0.074180 -0.530339
O18   O     O_R   0.014740 0.191490 0.074180 -0.495702
O19   O     O_R   0.808510 0.823250 0.074180 -0.518239
O20   O     O_R   0.146100 0.172630 0.068980 -0.479957
O21   O     O_R   0.827370 0.973470 0.068980 -0.518229
O22   O     O_R   0.026530 0.853900 0.068980 -0.489205
O23   O     O_3   0.000000 0.000000 0.020040 -0.283791
O24   O     O_R   0.148270 0.170520 0.969620 -0.493053
O25   O     O_R   0.829480 0.977750 0.969620 -0.520340
O26   O     O_R   0.022250 0.851730 0.969620 -0.484744
O27   O     O_3   0.743088 0.711222 0.803429 -0.583149
C97   C     C_3   0.702176 0.597961 0.811591 -0.153914
H58   H     H_    0.654126 0.547509 0.779602 0.096710
H59   H     H_    0.650320 0.570361 0.845214 0.123206
H60   H     H_    0.773810 0.584295 0.817242 0.134807
O28   O     O_3   0.275059 0.051140 0.795080 -0.591859
C98   C     C_3   0.389365 0.120800 0.804322 -0.158192
H61   H     H_    0.441487 0.117831 0.774056 0.100093
H62   H     H_    0.413587 0.099243 0.839700 0.123791
H63   H     H_    0.405768 0.206710 0.807191 0.131060
O29   O     O_3   0.944677 0.239400 0.795025 -0.585941
C99   C     C_3   0.881359 0.290570 0.805928 -0.156534
H64   H     H_    0.889580 0.350114 0.776967 0.099060
H65   H     H_    0.905537 0.332200 0.842147 0.124781
H66   H     H_    0.792503 0.226266 0.807927 0.132981

loop_
_geom_bond_atom_site_label_1
_geom_bond_atom_site_label_2
_ccdc_geom_bond_type
C15   C18   T    
C79   H37   S    
C43   C46   A    
C10   C85   T    
C36   O15   A    
Cr1   O16   S    
C81   C84   S    
C2    C18   S    
C33   C45   A    
C14   C17   T    
C27   C78   A    
C92   H8    S    
C60   H30   S    
C6    C9    S    
C6    O29   S    
C6    H57   S    
C53   C59   A    
C50   H35   S    
C20   O21   A    
C54   C60   A    
C25   C28   A    
C21   O22   A    
C40   H19   S    
C7    H52   S    
C59   H29   S    
C67   C88   S    
C33   C39   A    
Cr1   O13   S    
C31   C43   A    
C60   C63   A    
C82   C94   S    
C67   H31   S    
C37   C40   A    
C69   C93   S    
C25   H13   S    
C34   C77   S    
C53   C56   A    
C79   H40   S    
Cr3   O12   S    
C28   C40   A    
C11   C86   T    
Cr1   O7    S    
C83   H44   S    
C30   C57   A    
Cr2   O11   S    
Cr1   O10   S    
C84   C96   S    
C4    O27   S    
C80   C89   S    
C99   H65   S    
C8    H53   S    
C97   H60   S    
C36   C76   S    
C33   C72   A    
C93   H3    S    
C23   O6    A    
C45   H12   S    
C28   C55   A    
C31   C70   A    
C66   C72   A    
C37   H16   S    
C7    C88   S    
C9    H54   S    
C42   H21   S    
Cr6   O23   S    
C64   C73   A    
C68   H5    S    
C32   C38   A    
C39   C42   A    
Cr4   O23   S    
C19   O18   A    
Cr2   O8    S    
C12   C87   T    
C44   C47   A    
C29   C41   A    
C56   C71   A    
C58   C61   A    
C81   H39   S    
C63   C66   A    
C9    H51   S    
C69   H33   S    
C27   C30   A    
C48   C75   A    
C80   C83   S    
C79   C88   S    
C5    C95   S    
C69   H6    S    
C3    O9    A    
C10   C94   S    
C32   C71   A    
C81   H42   S    
C26   C77   A    
O28   C98   S    
C50   C53   A    
C98   H63   S    
C83   H47   S    
C5    O28   S    
C38   C41   A    
Cr2   O14   S    
C92   H2    S    
C19   C48   S    
C20   O19   A    
C4    C7    S    
C65   C71   A    
C92   C95   S    
C65   C74   A    
C31   C37   A    
C24   O26   A    
C35   O14   A    
C41   H20   S    
C99   H66   S    
Cr5   O23   S    
C64   C70   A    
Cr1   O1    S    
C14   C89   S    
Cr4   O17   S    
C22   O24   A    
C80   H41   S    
Cr4   O24   S    
Cr3   O3    S    
C22   O5    A    
C4    H55   S    
C73   H22   S    
C83   C95   S    
C47   C74   A    
C67   C91   S    
C68   C89   S    
C32   C44   A    
C49   C76   A    
C61   H25   S    
C22   C87   S    
Cr5   O25   S    
C52   C58   A    
C93   H9    S    
C7    H49   S    
C81   C90   S    
C49   H34   S    
C1    O3    A    
C93   C96   S    
C6    C96   S    
C35   O10   A    
C4    C94   S    
C24   O4    A    
C43   H10   S    
C38   H17   S    
C69   C90   S    
C50   C77   A    
C19   O20   A    
Cr2   O2    S    
C34   O13   A    
Cr3   O9    S    
C45   C48   A    
C11   C95   S    
C34   O12   A    
C59   C62   A    
C62   C65   A    
C8    H50   S    
Cr6   O22   S    
C1    C17   S    
Cr5   O5    S    
C30   C42   A    
C49   C52   A    
C91   H1    S    
O29   C99   S    
C9    C90   S    
C44   H11   S    
C79   C82   S    
C82   H46   S    
C52   C55   A    
C67   H4    S    
C29   C56   A    
C84   H45   S    
Cr6   O26   S    
C35   C78   S    
C36   O11   A    
C51   C54   A    
C98   H61   S    
C25   C76   A    
C75   H24   S    
C68   H32   S    
C51   C78   A    
C97   H58   S    
Cr5   O21   S    
C80   H38   S    
C91   C94   S    
C62   H26   S    
Cr2   O16   S    
C91   H7    S    
Cr3   O15   S    
C1    O7    A    
C58   H28   S    
Cr6   O19   S    
C66   C75   A    
C13   C88   S    
Cr6   O6    S    
C68   C92   S    
Cr4   O4    S    
C63   H27   S    
C57   C72   A    
C99   H64   S    
C21   O17   A    
C26   H14   S    
C97   H59   S    
C55   C70   A    
Cr5   O18   S    
C3    O2    A    
C74   H23   S    
C51   H36   S    
C23   O25   A    
Cr3   O16   S    
C82   H43   S    
C26   C29   A    
C2    O1    A    
C5    H56   S    
C23   C85   S    
C13   C16   T    
C61   C64   A    
C5    C8    S    
C12   C96   S    
C8    C89   S    
C27   H15   S    
C21   C47   S    
O27   C97   S    
Cr4   O20   S    
C24   C86   S    
C2    O8    A    
C46   C73   A    
C20   C46   S    
C3    C16   S    
C39   H18   S    
C98   H62   S    
C15   C90   S    
C54   C57   A    
C84   H48   S    
