data_mof_unit_57316.cif
_audit_creation_date              2012-12-10T17:43:22-0500
_audit_creation_method            fapswitch 2.2
_symmetry_space_group_name_H-M    P1
_symmetry_Int_Tables_number       1
_space_group_crystal_system       triclinic
_cell_length_a                    15.226301
_cell_length_b                    13.869155
_cell_length_c                    10.868883
_cell_angle_alpha                 91.418594
_cell_angle_beta                  87.786122
_cell_angle_gamma                 92.736528
_cell_volume                      2290.31412069

loop_
_atom_site_label
_atom_site_type_symbol
_atom_type_description
_atom_site_fract_x
_atom_site_fract_y
_atom_site_fract_z
_atom_type_partial_charge
C1    C     C_R   0.328670 0.497576 0.504197 0.926493
C2    C     C_R   0.671424 0.502293 0.498750 0.877337
C3    C     C_R   0.953299 0.492137 0.502343 -0.003646
C4    C     C_R   0.045717 0.485264 0.506379 -0.010906
C5    C     C_R   0.911488 0.486658 0.388024 -0.019188
C6    C     C_R   0.088855 0.502847 0.617649 -0.027863
C7    C     C_R   0.946574 0.508107 0.724890 -0.219091
C8    C     C_R   0.053086 0.450882 0.287750 -0.238177
C9    C     C_R   0.037558 0.502464 0.728515 0.505079
C10   C     C_R   0.964538 0.471129 0.278786 0.462939
C11   C     C_R   0.425442 0.792048 0.532117 0.594288
C12   C     C_R   0.571372 0.209382 0.450072 0.584849
C13   C     C_R   0.575700 0.797834 0.468021 0.491399
C14   C     C_R   0.426184 0.202117 0.536878 0.562952
C15   C     C_R   0.575758 0.900477 0.453415 -0.149578
C16   C     C_R   0.420160 0.099199 0.516014 -0.160957
C17   C     C_R   0.420248 0.893382 0.511606 -0.163040
C18   C     C_R   0.576055 0.106815 0.457817 -0.169977
C19   C     C_R   0.497877 0.948447 0.482248 0.018535
C20   C     C_R   0.497911 0.051363 0.484460 0.015205
C21   C     C_R   0.653266 0.956750 0.418201 -0.090704
C22   C     C_R   0.339288 0.043209 0.526400 -0.084407
C23   C     C_R   0.339298 0.940565 0.522183 -0.083066
C24   C     C_R   0.655402 0.058578 0.432297 -0.096610
C25   C     C_R   0.496428 0.498579 0.259805 0.959136
C26   C     C_R   0.496858 0.500924 0.740573 0.961867
C27   C     C_3   0.418723 0.542641 0.046489 -0.154201
C28   C     C_3   0.562381 0.456379 0.955123 -0.140433
C29   C     C_3   0.492656 0.592278 0.965268 -0.172635
C30   C     C_3   0.488199 0.405752 0.033794 -0.192308
C31   C     C_3   0.419136 0.453549 0.957327 0.461178
C32   C     C_3   0.561200 0.545849 0.042672 0.423959
C33   C     C_3   0.493571 0.502864 0.877472 -0.210238
C34   C     C_3   0.488894 0.495471 0.123699 -0.254787
C35   C     C_R   0.818886 0.496830 0.387530 -0.079423
C36   C     C_R   0.181523 0.518571 0.614270 -0.098690
C37   C     C_R   0.769117 0.507409 0.499291 -0.199708
C38   C     C_R   0.231143 0.489818 0.507637 -0.194907
C39   C     C_R   0.813519 0.525847 0.609936 -0.055257
C40   C     C_R   0.186111 0.448520 0.406118 -0.043838
C41   C     C_R   0.904235 0.510065 0.612584 0.015031
C42   C     C_R   0.094964 0.460042 0.399768 0.004797
Cu1   Cu    Cu3+1 0.500000 0.597420 0.500000 1.068400
Cu2   Cu    Cu3+1 0.500000 0.402580 0.500000 1.106283
H1    H     H_    0.909084 0.508167 0.811349 0.185129
H2    H     H_    0.090291 0.434407 0.203708 0.162099
N1    N     N_R   0.500000 0.743810 0.500000 -0.260313
N2    N     N_R   0.500000 0.256190 0.500000 -0.249886
O1    O     O_R   0.370260 0.582280 0.500030 -0.513785
O2    O     O_R   0.629740 0.417720 0.499970 -0.504113
O3    O     O_R   0.629740 0.582280 0.499970 -0.551957
O4    O     O_R   0.370260 0.417720 0.500030 -0.520478
O5    O     O_R   0.499980 0.582260 0.316850 -0.579892
O6    O     O_R   0.500020 0.417740 0.683150 -0.554747
O7    O     O_R   0.500020 0.582260 0.683150 -0.561940
O8    O     O_R   0.499980 0.417740 0.316850 -0.549598
O9    O     O_3   0.347118 0.408911 0.896523 -0.562393
C43   C     C_3   0.285462 0.366599 0.980694 -0.242613
H3    H     H_    0.258018 0.420663 0.046231 0.189225
H4    H     H_    0.312780 0.305348 0.027497 0.172176
H5    H     H_    0.229702 0.335306 0.928664 0.174744
O10   O     O_3   0.638946 0.591724 0.085447 -0.577222
C44   C     C_3   0.623730 0.683132 0.140511 -0.145188
H6    H     H_    0.553573 0.698081 0.161117 0.155682
H7    H     H_    0.653245 0.740201 0.079956 0.214781
H8    H     H_    0.656931 0.688662 0.229347 0.246463
C45   C     C_2   0.338995 0.592289 0.096938 0.939528
O11   O     O_2   0.281300 0.611370 0.027839 -0.581254
O12   O     O_R   0.331817 0.618434 0.221686 -0.720124
H9    H     H_    0.274986 0.650944 0.244272 0.352745
C46   C     C_2   0.643488 0.406460 0.910017 0.941821
O13   O     O_2   0.714766 0.429808 0.952483 -0.543731
O14   O     O_R   0.637004 0.333531 0.819413 -0.707854
H10   H     H_    0.696006 0.306193 0.795563 0.345775
C47   C     C_2   0.496894 0.697378 0.932939 0.834844
O15   O     O_2   0.444178 0.751749 0.981204 -0.600506
O16   O     O_R   0.563910 0.733827 0.853613 -0.783915
H11   H     H_    0.561984 0.806099 0.843088 0.323038
C48   C     C_2   0.483248 0.298435 0.055192 0.810105
O17   O     O_2   0.497495 0.242685 0.968728 -0.570754
O18   O     O_R   0.458855 0.262020 0.170764 -0.776803
H12   H     H_    0.454839 0.188845 0.170982 0.336047
C49   C     C_2   0.776832 0.515702 0.271747 0.963172
O19   O     O_2   0.723777 0.457056 0.227951 -0.568402
O20   O     O_R   0.801825 0.600819 0.211148 -0.742613
H13   H     H_    0.789779 0.597172 0.120319 0.391264
C50   C     C_2   0.223450 0.572807 0.717237 0.990767
O21   O     O_2   0.294090 0.549975 0.753831 -0.584736
O22   O     O_R   0.180604 0.650787 0.772381 -0.713039
H14   H     H_    0.212196 0.680758 0.845051 0.363287
C51   C     C_2   0.769739 0.576382 0.716393 0.813286
O23   O     O_2   0.810981 0.638112 0.775986 -0.577576
O24   O     O_R   0.681152 0.558331 0.745106 -0.786992
H15   H     H_    0.661177 0.598325 0.819033 0.365694
C52   C     C_2   0.232439 0.390737 0.309724 0.837888
O25   O     O_2   0.197343 0.316265 0.268400 -0.582013
O26   O     O_R   0.316472 0.419718 0.268180 -0.780487
H16   H     H_    0.343772 0.369000 0.213599 0.351594
O27   O     O_3   0.075558 0.492603 0.840668 -0.578249
C53   C     C_3   0.060575 0.396129 0.877523 -0.304783
H17   H     H_    0.092996 0.345273 0.811315 0.174209
H18   H     H_    0.989154 0.375984 0.888942 0.192365
H19   H     H_    0.089022 0.388435 0.968844 0.191320
O28   O     O_3   0.930408 0.471639 0.162607 -0.580761
C54   C     C_3   0.969638 0.551050 0.097866 -0.204703
H20   H     H_    0.039003 0.538983 0.069456 0.195309
H21   H     H_    0.966953 0.619780 0.152894 0.186036
H22   H     H_    0.932918 0.560481 0.013413 0.216478
O29   O     O_3   0.359748 0.744678 0.601306 -0.559003
C55   C     C_3   0.361574 0.779507 0.724750 -0.214323
H23   H     H_    0.359855 0.717017 0.785608 0.229568
H24   H     H_    0.302186 0.820630 0.747181 0.204542
H25   H     H_    0.420697 0.826093 0.748016 0.133020
O30   O     O_3   0.640162 0.262944 0.394624 -0.553129
C56   C     C_3   0.643420 0.246965 0.265586 -0.157665
H26   H     H_    0.614400 0.307841 0.220806 0.224313
H27   H     H_    0.611395 0.177384 0.233571 0.124702
H28   H     H_    0.713330 0.247495 0.232982 0.211542
O31   O     O_3   0.654934 0.754145 0.463407 -0.580717
C57   C     C_3   0.693425 0.768164 0.579286 -0.187493
H29   H     H_    0.760417 0.740101 0.572600 0.204865
H30   H     H_    0.654447 0.728160 0.651322 0.222026
H31   H     H_    0.700678 0.845558 0.608139 0.151699
O32   O     O_3   0.357016 0.248771 0.592893 -0.563211
C58   C     C_3   0.355649 0.230795 0.719980 -0.176449
H32   H     H_    0.412500 0.268674 0.763916 0.234437
H33   H     H_    0.355040 0.152575 0.740593 0.143098
H34   H     H_    0.293982 0.258141 0.761218 0.207551
C59   C     C_2   0.731982 0.910923 0.362165 0.972508
O33   O     O_2   0.726633 0.867496 0.263356 -0.580391
O34   O     O_R   0.811772 0.917623 0.422079 -0.743787
H35   H     H_    0.860082 0.883032 0.374785 0.353012
C60   C     C_2   0.254347 0.091462 0.526688 0.922530
O35   O     O_2   0.202498 0.084463 0.615077 -0.551334
O36   O     O_R   0.235237 0.147412 0.426910 -0.697564
H36   H     H_    0.175919 0.177336 0.438227 0.359826
C61   C     C_2   0.254852 0.882571 0.511393 0.910548
O37   O     O_2   0.246068 0.824637 0.425546 -0.562190
O38   O     O_R   0.186678 0.892166 0.600020 -0.712639
H37   H     H_    0.133610 0.847624 0.582782 0.355319
C62   C     C_2   0.742244 0.112815 0.430589 0.942207
O39   O     O_2   0.762635 0.163872 0.519319 -0.544633
O40   O     O_R   0.800157 0.105879 0.328032 -0.751805
H38   H     H_    0.856603 0.146602 0.338235 0.349479

loop_
_geom_bond_atom_site_label_1
_geom_bond_atom_site_label_2
_ccdc_geom_bond_type
Cu2   N2    S    
C50   O21   D    
C44   H7    S    
O24   H15   S    
C27   C29   S    
O14   H10   S    
C11   N1    A    
C19   C20   A    
C25   O8    A    
C12   N2    A    
C26   O7    A    
C6    C9    A    
O18   H12   S    
O36   H36   S    
C39   C41   A    
O16   H11   S    
C15   C19   A    
C61   O38   S    
C17   C23   A    
C18   C24   A    
C7    H1    S    
C35   C37   A    
C8    C42   A    
C29   C32   S    
C62   O40   S    
C30   C31   S    
C11   O29   S    
C43   H4    S    
C56   H26   S    
C29   C33   S    
C55   H23   S    
C2    O2    A    
Cu1   O5    S    
C3    C41   A    
C52   O25   D    
C56   H27   S    
C1    O1    A    
C58   H34   S    
C31   C33   S    
C57   H31   S    
C25   C34   S    
Cu2   O4    S    
C43   H5    S    
C40   C42   A    
C44   H8    S    
C27   C34   S    
C26   O6    A    
C39   C51   S    
O28   C54   S    
C13   O31   S    
C57   H30   S    
O26   H16   S    
C12   O30   S    
C36   C50   S    
C54   H22   S    
C14   O32   S    
C30   C34   S    
C22   C60   S    
C27   C31   S    
C45   O11   D    
C28   C32   S    
C4    C6    A    
C51   O23   D    
C48   O18   S    
C35   C49   S    
Cu1   O1    S    
C14   N2    A    
C43   H3    S    
O20   H13   S    
C53   H19   S    
C48   O17   D    
C45   O12   S    
C32   C34   S    
C47   O15   D    
O10   C44   S    
C51   O24   S    
C54   H21   S    
Cu2   O8    S    
C26   C33   S    
C49   O19   D    
C24   C62   S    
C16   C20   A    
C56   H28   S    
C53   H18   S    
C58   H33   S    
C47   O16   S    
C55   H25   S    
C21   C59   S    
C1    C38   S    
C30   C48   S    
Cu1   O7    S    
C49   O20   S    
C28   C33   S    
C13   C15   A    
Cu1   Cu2   S    
C58   H32   S    
C14   C16   A    
C28   C46   S    
C40   C52   S    
C12   C18   A    
C3    C4    A    
C57   H29   S    
O38   H37   S    
C13   N1    A    
C59   O33   D    
C61   O37   D    
Cu2   O2    S    
C7    C9    A    
C11   C17   A    
C16   C22   A    
C23   C61   S    
C8    C10   A    
C25   O5    A    
C3    C5    A    
O31   C57   S    
C52   O26   S    
O30   C56   S    
C29   C47   S    
C54   H20   S    
O27   C53   S    
C31   O9    S    
C10   O28   S    
O40   H38   S    
C32   O10   S    
C5    C10   A    
C37   C39   A    
O29   C55   S    
C36   C38   A    
C38   C40   A    
C2    C37   S    
Cu1   O3    S    
O9    C43   S    
C60   O35   D    
C4    C42   A    
C5    C35   A    
C28   C30   S    
C53   H17   S    
C17   C19   A    
C6    C36   A    
C18   C20   A    
C7    C41   A    
O12   H9    S    
C1    O4    A    
C55   H24   S    
C27   C45   S    
C2    O3    A    
C44   H6    S    
Cu2   O6    S    
C15   C21   A    
C46   O13   D    
C9    O27   S    
C21   C24   A    
C46   O14   S    
C60   O36   S    
C50   O22   S    
C22   C23   A    
C8    H2    S    
O22   H14   S    
C62   O39   D    
Cu1   N1    S    
O34   H35   S    
O32   C58   S    
C59   O34   S    
