data_mof_unit_34172.cif
_audit_creation_date              2012-12-10T16:53:10-0500
_audit_creation_method            fapswitch 2.2
_symmetry_space_group_name_H-M    P1
_symmetry_Int_Tables_number       1
_space_group_crystal_system       triclinic
_cell_length_a                    10.882036
_cell_length_b                    10.972689
_cell_length_c                    9.727328
_cell_angle_alpha                 89.963273
_cell_angle_beta                  88.94728
_cell_angle_gamma                 90.799432
_cell_volume                      1161.18396298

loop_
_atom_site_label
_atom_site_type_symbol
_atom_type_description
_atom_site_fract_x
_atom_site_fract_y
_atom_site_fract_z
_atom_type_partial_charge
C1    C     C_R   0.491990 0.266145 0.499986 0.727462
C2    C     C_R   0.058459 0.526200 0.629031 -0.017244
C3    C     C_R   0.127208 0.491317 0.509496 -0.105865
C4    C     C_R   0.066231 0.465467 0.387510 -0.265423
C5    C     C_R   0.938795 0.472139 0.381123 0.409496
C6    C     C_R   0.872342 0.518635 0.495033 -0.112697
C7    C     C_2   0.493794 0.936016 0.391487 0.367807
C8    C     C_2   0.522426 0.866388 0.500691 0.263291
C9    C     C_2   0.513767 0.068516 0.396716 -0.257051
C10   C     C_2   0.466220 0.135771 0.498968 0.319384
C11   C     C_2   0.474838 0.404513 0.924861 0.621880
C12   C     C_R   0.262025 0.495286 0.502590 0.812311
C13   C     C_2   0.508578 0.403318 0.075609 0.100408
C14   C     C_R   0.503814 0.734692 0.499869 0.830132
C15   C     C_R   0.737647 0.507603 0.498431 0.892845
C16   C     C_R   0.105927 0.529668 0.763959 -0.245693
C17   C     C_R   0.043436 0.589998 0.870909 0.418200
C18   C     C_R   0.935136 0.649705 0.842362 -0.177788
C19   C     C_R   0.881400 0.638091 0.712674 0.367277
C20   C     C_R   0.935705 0.561063 0.612256 -0.012912
Cu1   Cu    Cu3+1 0.500020 0.500020 0.638630 1.058658
Cu2   Cu    Cu3+1 0.499980 0.499980 0.361370 1.039093
H1    H     H_    0.117747 0.436256 0.297262 0.168724
H2    H     H_    0.536049 0.317919 0.121064 0.057995
H3    H     H_    0.186991 0.480943 0.791399 0.190176
H4    H     H_    0.891926 0.704231 0.921967 0.178245
H5    H     H_    0.566681 0.110745 0.313143 0.129504
N1    N     N_2   0.498640 0.498660 0.846910 -0.011139
N2    N     N_2   0.498610 0.498630 0.153040 -0.000615
O1    O     O_R   0.500020 0.321960 0.617040 -0.528125
O2    O     O_R   0.499980 0.321920 0.382900 -0.628700
O3    O     O_R   0.319670 0.500020 0.617100 -0.589111
O4    O     O_R   0.319630 0.499980 0.382950 -0.598189
O5    O     O_R   0.500020 0.678080 0.617100 -0.559992
O6    O     O_R   0.499980 0.678040 0.382960 -0.563684
O7    O     O_R   0.680370 0.500020 0.617050 -0.570810
O8    O     O_R   0.680330 0.499980 0.382900 -0.522102
O9    O     O_3   0.387535 0.082969 0.596203 -0.678132
H6    H     H_    0.354456 0.147872 0.656609 0.358089
O10   O     O_3   0.416930 0.304236 0.868891 -0.755387
H7    H     H_    0.404525 0.242431 0.942417 0.294508
O11   O     O_3   0.579342 0.578821 0.900011 -0.599281
H8    H     H_    0.599480 0.636656 0.825485 0.395465
O12   O     O_3   0.426676 0.585354 0.100617 -0.594062
H9    H     H_    0.398952 0.635411 0.178921 0.403684
O13   O     O_3   0.088113 0.595895 0.002651 -0.699920
H10   H     H_    0.165821 0.549949 0.006303 0.334740
O14   O     O_3   0.782973 0.708961 0.678123 -0.710256
H11   H     H_    0.764145 0.764599 0.755697 0.357310
O15   O     O_3   0.878193 0.433929 0.264670 -0.691269
H12   H     H_    0.938657 0.404155 0.195388 0.337331
O16   O     O_3   0.446575 0.883614 0.274054 -0.715023
H13   H     H_    0.430969 0.949321 0.206748 0.341702
Cl1   Cl    Cl    0.597173 0.927584 0.646498 -0.565247

loop_
_geom_bond_atom_site_label_1
_geom_bond_atom_site_label_2
_ccdc_geom_bond_type
C14   O5    A    
C17   O13   S    
O10   H7    S    
C16   H3    S    
Cu2   N2    S    
C6    C20   A    
Cu1   O1    S    
C19   C20   A    
C18   H4    S    
C8    Cl1   S    
C10   O9    S    
C2    C3    A    
C12   O4    A    
C7    C8    D    
Cu1   O7    S    
Cu1   Cu2   S    
O12   H9    S    
Cu2   O6    S    
C11   C13   S    
C5    C6    A    
C11   N1    D    
C9    C10   D    
N1    O11   S    
O14   H11   S    
Cu1   N1    S    
C7    O16   S    
C17   C18   A    
N2    O12   S    
O9    H6    S    
Cu1   O3    S    
C5    O15   S    
C12   O3    A    
Cu2   O2    S    
C2    C20   A    
C11   O10   S    
C16   C17   A    
C15   O7    A    
C1    O2    A    
C2    C16   A    
O16   H13   S    
C9    H5    S    
C18   C19   A    
O11   H8    S    
C13   N2    D    
C14   O6    A    
C7    C9    S    
Cu2   O4    S    
O13   H10   S    
C1    O1    A    
C8    C14   S    
C3    C12   S    
O15   H12   S    
C6    C15   S    
C19   O14   S    
Cu2   O8    S    
Cu1   O5    S    
C4    H1    S    
C15   O8    A    
C1    C10   S    
C3    C4    A    
C13   H2    S    
C4    C5    A    
