data_mof_unit_33906.cif
_audit_creation_date              2012-12-10T17:05:15-0500
_audit_creation_method            fapswitch 2.2
_symmetry_space_group_name_H-M    P1
_symmetry_Int_Tables_number       1
_space_group_crystal_system       triclinic
_cell_length_a                    10.033706
_cell_length_b                    10.750322
_cell_length_c                    15.504455
_cell_angle_alpha                 90.043658
_cell_angle_beta                  67.456972
_cell_angle_gamma                 90.009507
_cell_volume                      1544.61172436

loop_
_atom_site_label
_atom_site_type_symbol
_atom_type_description
_atom_site_fract_x
_atom_site_fract_y
_atom_site_fract_z
_atom_type_partial_charge
C1    C     C_R   0.501268 0.737302 0.498134 0.942690
C2    C     C_R   0.741239 0.504568 0.026514 0.036576
C3    C     C_R   0.599200 0.462932 0.081920 -0.031141
C4    C     C_R   0.409368 0.494326 0.675986 0.870672
C5    C     C_R   0.838996 0.533015 0.070289 0.508826
C6    C     C_R   0.791357 0.526127 0.168091 -0.318707
C7    C     C_R   0.555278 0.462613 0.178819 -0.229946
C8    C     C_2   0.613244 0.066960 0.498646 -0.146745
C9    C     C_2   0.493394 0.131264 0.511310 -0.330426
C10   C     C_2   0.609835 0.933098 0.504167 -0.153797
C11   C     C_2   0.506371 0.868848 0.489785 -0.326881
C12   C     C_R   0.425613 0.450781 0.908930 0.038054
C13   C     C_2   0.109548 0.435713 0.441425 -0.116782
C14   C     C_2   0.961528 0.441388 0.438148 -0.136275
C15   C     C_R   0.498766 0.262716 0.502178 0.918811
C16   C     C_R   0.590626 0.499315 0.323855 0.897868
C17   C     C_R   0.354175 0.467996 0.776319 -0.177737
C18   C     C_R   0.648561 0.495001 0.221914 -0.106431
C19   C     C_R   0.196066 0.364383 0.917131 -0.056830
C20   C     C_R   0.228539 0.396801 0.824147 0.461867
C21   C     C_R   0.444757 0.500455 0.821870 -0.262921
C22   C     C_R   0.294731 0.388020 0.959636 -0.004090
C23   C     C_R   0.533612 0.462966 0.946323 0.053143
C24   C     C_R   0.499971 0.431454 0.040376 0.053732
C25   C     C_R   0.368564 0.368534 0.090043 -0.312109
C26   C     C_R   0.266613 0.346276 0.050424 0.432121
C27   C     C_R   0.676046 0.500256 0.891113 -0.353719
C28   C     C_R   0.780280 0.518983 0.929526 0.489779
H1    H     H_    0.387957 0.088648 0.530960 0.154481
H2    H     H_    0.097377 0.313277 0.953825 0.212767
H3    H     H_    0.533229 0.562887 0.786540 0.172721
H4    H     H_    0.134886 0.263046 0.162564 0.329845
H5    H     H_    0.031112 0.585888 0.059078 0.326936
H6    H     H_    0.716063 0.112600 0.484772 0.176100
H7    H     H_    0.927742 0.561445 0.807624 0.336242
H8    H     H_    0.197916 0.327771 0.718190 0.336199
H9    H     H_    0.345574 0.329886 0.158415 0.133060
H10   H     H_    0.710894 0.510554 0.816484 0.146530
H11   H     H_    0.695195 0.887364 0.519090 0.174674
H12   H     H_    0.425168 0.911560 0.469278 0.152113
H13   H     H_    0.188919 0.376314 0.390889 0.152803
H14   H     H_    0.076176 0.559795 0.543810 0.162895
H15   H     H_    0.945411 0.392419 0.381704 0.158311
H16   H     H_    0.865071 0.539682 0.555212 0.164734
H17   H     H_    0.444593 0.443994 0.222953 0.166737
H18   H     H_    0.863946 0.550255 0.202262 0.162078
N1    N     N_2   0.148330 0.498670 0.499030 -0.184779
N2    N     N_2   0.852680 0.498640 0.499000 -0.189412
O1    O     O_R   0.386950 0.680940 0.500010 -0.609828
O2    O     O_3   0.978107 0.571195 0.017587 -0.702624
O3    O     O_3   0.918775 0.555219 0.873428 -0.666866
O4    O     O_3   0.138097 0.353228 0.782819 -0.742901
O5    O     O_R   0.613110 0.680900 0.499990 -0.611207
O6    O     O_R   0.322330 0.500030 0.632270 -0.595942
O7    O     O_R   0.548480 0.499990 0.632240 -0.613667
O8    O     O_R   0.386890 0.319100 0.500010 -0.620681
O9    O     O_R   0.613050 0.319060 0.499990 -0.605852
O10   O     O_R   0.451520 0.500010 0.367760 -0.618015
O11   O     O_R   0.677670 0.499970 0.367730 -0.609334
O12   O     O_3   0.139152 0.284102 0.099305 -0.782967
Zn1   Zn    Zn3+2 0.349000 0.500030 0.500020 0.951758
Zn2   Zn    Zn3+2 0.651000 0.499970 0.499980 0.943488

loop_
_geom_bond_atom_site_label_1
_geom_bond_atom_site_label_2
_ccdc_geom_bond_type
N1    Zn1   S    
C14   N2    D    
C23   C24   A    
O6    Zn1   S    
C23   C27   A    
C15   O9    A    
O5    Zn2   S    
N2    Zn2   S    
C19   C20   A    
H8    O4    S    
C9    H1    S    
C7    C18   A    
C4    O6    A    
C15   O8    A    
C17   C20   A    
O10   Zn1   S    
C13   H13   S    
C2    C3    A    
C9    C15   S    
O9    Zn2   S    
C20   O4    S    
C16   O10   A    
C13   C14   S    
C21   H3    S    
C12   C23   A    
C3    C24   A    
C5    C6    A    
C26   O12   S    
C4    C17   S    
C7    H17   S    
C8    C10   S    
C3    C7    A    
H14   N1    S    
C4    O7    A    
H7    O3    S    
C11   H12   S    
C6    C18   A    
C28   O3    S    
C5    O2    S    
C2    C5    A    
O1    Zn1   S    
C10   C11   D    
H4    O12   S    
C27   H10   S    
H5    O2    S    
O7    Zn2   S    
C12   C22   A    
C19   C22   A    
C24   C25   A    
C8    C9    D    
C16   C18   S    
C22   C26   A    
C27   C28   A    
C13   N1    D    
C1    O5    A    
O8    Zn1   S    
C10   H11   S    
O11   Zn2   S    
C2    C28   A    
C6    H18   S    
C25   H9    S    
C25   C26   A    
C8    H6    S    
C19   H2    S    
C1    O1    A    
C12   C21   A    
C17   C21   A    
H16   N2    S    
C14   H15   S    
C16   O11   A    
C1    C11   S    
