data_mof_unit_24108.cif
_audit_creation_date              2013-03-05T15:58:07-0500
_audit_creation_method            fapswitch 2.2
_symmetry_space_group_name_H-M    P1
_symmetry_Int_Tables_number       1
_space_group_crystal_system       triclinic
_cell_length_a                    12.750224
_cell_length_b                    13.220884
_cell_length_c                    14.970634
_cell_angle_alpha                 92.330891
_cell_angle_beta                  103.069954
_cell_angle_gamma                 81.522235
_cell_volume                      2431.28301166

loop_
_atom_site_label
_atom_site_type_symbol
_atom_site_description
_atom_site_fract_x
_atom_site_fract_y
_atom_site_fract_z
_atom_type_partial_charge
O1    O     O_R   0.366740 0.627160 0.477250 -0.570604
O2    O     O_R   0.544830 0.662520 0.507680 -0.581565
C1    C     C_R   0.438703 0.690656 0.491587 0.864962
O3    O     O_R   0.410940 0.482340 0.616930 -0.608865
O4    O     O_R   0.589030 0.517700 0.647360 -0.574481
C2    C     C_R   0.501278 0.500484 0.672780 0.890350
Zn1   Zn    Zn3+2 0.381090 0.476390 0.479680 1.059910
Zn2   Zn    Zn3+2 0.618910 0.523610 0.520320 1.076602
O5    O     O_R   0.455170 0.337480 0.492320 -0.536157
O6    O     O_R   0.633260 0.372840 0.522750 -0.526233
O7    O     O_R   0.410970 0.482300 0.352640 -0.615202
O8    O     O_R   0.589060 0.517660 0.383070 -0.541806
C3    C     C_R   0.561524 0.309020 0.515161 0.929649
C4    C     C_R   0.498561 0.501263 0.327245 0.915797
C5    C     C_R   0.453075 0.427698 0.174298 -0.280347
C6    C     C_R   0.498363 0.503032 0.231156 -0.118979
C7    C     C_R   0.548927 0.576547 0.198322 0.383992
C8    C     C_R   0.557791 0.571005 0.106580 0.034492
C9    C     C_R   0.506187 0.497596 0.047672 -0.036044
C10   C     C_R   0.453524 0.424954 0.081467 -0.023754
C11   C     C_R   0.618399 0.635376 0.072747 -0.199928
C12   C     C_R   0.622300 0.631832 0.980809 -0.199915
C13   C     C_R   0.565394 0.564584 0.921263 0.136346
C14   C     C_R   0.507159 0.497082 0.954588 0.090924
C15   C     C_R   0.448622 0.430083 0.894308 -0.004358
C16   C     C_R   0.395411 0.359672 0.927373 -0.196223
C17   C     C_R   0.401239 0.353048 0.020818 0.467319
C18   C     C_R   0.565507 0.563702 0.828591 -0.241901
C19   C     C_R   0.504409 0.499313 0.769159 -0.062099
C20   C     C_R   0.445031 0.433879 0.801439 -0.177248
H1    H     H_    0.418894 0.371370 0.204268 0.229374
H2    H     H_    0.664621 0.687843 0.116723 0.165605
H3    H     H_    0.668768 0.682591 0.956062 0.154203
H4    H     H_    0.610223 0.614989 0.802262 0.180631
H5    H     H_    0.397145 0.384923 0.754445 0.214032
H6    H     H_    0.352164 0.306938 0.880777 0.192170
C21   C     C_R   0.700144 0.053358 0.468054 -0.272878
H7    H     H_    0.668700 0.880725 0.376762 0.153775
H8    H     H_    0.768285 0.020157 0.439234 0.196000
C22   C     C_R   0.599475 0.198659 0.528154 -0.264308
C23   C     C_R   0.328602 0.824319 0.563628 0.457915
C24   C     C_R   0.332857 0.915421 0.614110 -0.245006
C25   C     C_R   0.406404 0.979991 0.605368 -0.146197
C26   C     C_R   0.466765 0.963733 0.536269 0.118791
C27   C     C_R   0.464280 0.870888 0.486293 0.007833
C28   C     C_R   0.536218 0.032412 0.519757 -0.013254
C29   C     C_R   0.616560 0.996741 0.469421 0.061804
C30   C     C_R   0.611872 0.905635 0.419941 -0.151819
C31   C     C_R   0.531264 0.847518 0.423011 -0.140763
C32   C     C_R   0.525264 0.136610 0.545821 0.240210
C33   C     C_R   0.696404 0.152421 0.503759 0.270317
C34   C     C_R   0.401709 0.798663 0.505560 -0.143993
H9    H     H_    0.417793 0.039408 0.656506 0.200602
H10   H     H_    0.284816 0.932930 0.665341 0.161204
H11   H     H_    0.525997 0.780284 0.379570 0.182257
C35   C     C_R   0.080266 0.380602 0.344016 0.335340
H12   H     H_    0.880937 0.343994 0.322642 0.178220
N1    N     N_R   0.222190 0.444670 0.452360 -0.191454
C36   C     C_R   0.801185 0.625732 0.614252 0.616104
C37   C     C_R   0.906113 0.652948 0.637663 -0.346874
C38   C     C_R   0.985269 0.607738 0.592504 -0.191312
C39   C     C_R   0.961363 0.534405 0.522776 -0.009822
C40   C     C_R   0.853794 0.508296 0.500318 0.100632
C41   C     C_R   0.040294 0.486184 0.474453 -0.027570
C42   C     C_R   0.006915 0.424354 0.396672 -0.080242
C43   C     C_R   0.903173 0.399625 0.376056 -0.272670
C44   C     C_R   0.829796 0.434377 0.429544 0.542565
C45   C     C_R   0.151935 0.494635 0.500686 -0.077116
C46   C     C_R   0.189030 0.389355 0.375048 0.441484
N2    N     N_R   0.776970 0.554790 0.547140 -0.122184
H13   H     H_    0.185310 0.539593 0.558984 0.177241
H14   H     H_    0.063792 0.633423 0.612024 0.172310
H15   H     H_    0.926531 0.709678 0.690539 0.160180
N3    N     N_R   0.432602 0.183536 0.579528 0.203719
O9    O     O_R   0.446881 0.234946 0.656167 -0.449422
O10   O     O_R   0.334577 0.182895 0.529988 -0.331253
O11   O     O_3   0.263255 0.754676 0.578000 -0.766031
H16   H     H_    0.218488 0.784451 0.621410 0.326334
N4    N     N_R   0.263337 0.347246 0.320250 0.236674
O12   O     O_R   0.329670 0.264189 0.346770 -0.345141
O13   O     O_R   0.240954 0.371381 0.233943 -0.364070
O14   O     O_3   0.049007 0.327132 0.263464 -0.682015
H17   H     H_    0.980359 0.365004 0.227870 0.335838
O15   O     O_3   0.588120 0.652244 0.257434 -0.789601
H18   H     H_    0.574251 0.717088 0.223102 0.320666
O16   O     O_3   0.720964 0.669875 0.657549 -0.744711
H19   H     H_    0.751029 0.719757 0.704084 0.306838
O17   O     O_3   0.739155 0.387949 0.416565 -0.693738
H20   H     H_    0.729775 0.344598 0.360364 0.317308
O18   O     O_3   0.352401 0.277444 0.049043 -0.706452
H21   H     H_    0.398070 0.249999 0.107879 0.345701
N5    N     N_R   0.790533 0.203577 0.515141 0.243576
O19   O     O_R   0.819986 0.256443 0.589501 -0.343832
O20   O     O_R   0.859519 0.179222 0.462945 -0.388356

loop_
_geom_bond_atom_site_label_1
_geom_bond_atom_site_label_2
_geom_bond_distance
_ccdc_geom_bond_type
C8    C11   1.408540 A    
C23   C24   1.396956 A    
C9    C10   1.418628 A    
H12   C43   1.082531 S    
O11   H16   0.991866 S    
Zn1   O7    2.029021 S    
C44   O17   1.359425 S    
C19   C20   1.395593 A    
N3    O10   1.302144 A    
C20   H5    1.082527 S    
C41   C45   1.408336 A    
C18   C19   1.394133 A    
C32   N3    1.436467 S    
C23   O11   1.382631 S    
O4    C2    1.312703 A    
C21   C33   1.392653 A    
O7    C4    1.317945 A    
C35   C42   1.402679 A    
C37   H15   1.083048 S    
C17   O18   1.379222 S    
C8    C9    1.417319 A    
O5    C3    1.321989 A    
C3    C22   1.474176 S    
C39   C41   1.430109 A    
C25   H9    1.076436 S    
C6    C7    1.403165 A    
C13   C14   1.412727 A    
C21   C29   1.393825 A    
Zn1   N1    2.075971 S    
H7    C30   1.084207 S    
C43   C44   1.381939 A    
C18   H4    1.085154 S    
C36   C37   1.400633 A    
C11   C12   1.387115 A    
O3    Zn1   2.003722 S    
C26   C28   1.422710 A    
C5    C10   1.390030 A    
C11   H2    1.081580 S    
C40   C44   1.424292 A    
N3    O9    1.300033 A    
O15   H18   0.990157 S    
O3    C2    1.308782 A    
N4    O13   1.301006 A    
O16   H19   0.991751 S    
C27   C34   1.408027 A    
C15   C16   1.395518 A    
C31   H11   1.080918 S    
C37   C38   1.389528 A    
O1    C1    1.309984 A    
C25   C26   1.414855 A    
C39   C40   1.426491 A    
C33   N5    1.436778 S    
C29   C30   1.389875 A    
C40   N2    1.388028 A    
C27   C31   1.409519 A    
Zn2   O8    2.003722 S    
N5    O20   1.301859 A    
C7    C8    1.401436 A    
C16   C17   1.389694 A    
C13   C18   1.387251 A    
C14   C15   1.407594 A    
C35   O14   1.381723 S    
C38   H14   1.078394 S    
N1    C45   1.357176 A    
C30   C31   1.380537 A    
O8    C4    1.303746 A    
O14   H17   0.991112 S    
C4    C6    1.439077 S    
C46   N4    1.428076 S    
C24   C25   1.387759 A    
C26   C27   1.411924 A    
C16   H6    1.084687 S    
C15   C20   1.383393 A    
Zn1   O5    1.933054 S    
C12   H3    1.084145 S    
C28   C29   1.420353 A    
C23   C34   1.410286 A    
O1    Zn1   1.975715 S    
O2    Zn2   1.933055 S    
O6    C3    1.316876 A    
O4    Zn2   2.029021 S    
C1    C34   1.458439 S    
N1    C46   1.361676 A    
C5    H1    1.075705 S    
C10   C17   1.419662 A    
C22   C33   1.413383 A    
C28   C32   1.411977 A    
Zn2   N2    2.063515 S    
C7    O15   1.381962 S    
C41   C42   1.416416 A    
C9    C14   1.396124 A    
C36   O16   1.378412 S    
C21   H8    1.084145 S    
C24   H10   1.083162 S    
O18   H21   0.989079 S    
C45   H13   1.077261 S    
C22   C32   1.413485 A    
N5    O19   1.301464 A    
O2    C1    1.318646 A    
C42   C43   1.373472 A    
C38   C39   1.408346 A    
C36   N2    1.361201 A    
N4    O12   1.299414 A    
C2    C19   1.435011 S    
O17   H20   0.993056 S    
Zn2   O6    1.975716 S    
C35   C46   1.379823 A    
C12   C13   1.394555 A    
C5    C6    1.388626 A    
