data_mof_unit_63669.cif
_audit_creation_date              2013-03-05T15:39:57-0500
_audit_creation_method            fapswitch 2.2
_symmetry_space_group_name_H-M    P1
_symmetry_Int_Tables_number       1
_space_group_crystal_system       triclinic
_cell_length_a                    10.825397
_cell_length_b                    8.743053
_cell_length_c                    7.545253
_cell_angle_alpha                 103.055024
_cell_angle_beta                  96.174963
_cell_angle_gamma                 93.595043
_cell_volume                      688.845277783

loop_
_atom_site_label
_atom_site_type_symbol
_atom_site_description
_atom_site_fract_x
_atom_site_fract_y
_atom_site_fract_z
_atom_type_partial_charge
O1    O     O_R   0.508930 0.286130 0.619780 -0.638593
O2    O     O_R   0.485720 0.256780 0.308360 -0.538737
C1    C     C_R   0.495074 0.200396 0.454192 0.755862
O3    O     O_R   0.333540 0.514670 0.655670 -0.617839
O4    O     O_R   0.310330 0.485320 0.344250 -0.584110
C2    C     C_R   0.265678 0.500385 0.498454 0.844587
Cu1   Cu    Cu3+1 0.513740 0.517380 0.684380 1.059799
Cu2   Cu    Cu3+1 0.486260 0.482620 0.315620 1.091638
O5    O     O_R   0.514280 0.743220 0.691640 -0.559300
O6    O     O_R   0.491070 0.713870 0.380220 -0.521478
O7    O     O_R   0.689670 0.514680 0.655750 -0.555386
O8    O     O_R   0.666460 0.485330 0.344330 -0.515082
C3    C     C_R   0.507178 0.799615 0.546124 0.904587
C4    C     C_R   0.732929 0.485593 0.499686 0.883085
C5    C     C_2   0.920125 0.383243 0.367725 0.374812
C6    C     C_2   0.862389 0.452842 0.508761 -0.432593
H1    H     H_    0.914084 0.483629 0.645498 0.176758
C7    C     C_2   0.056090 0.376713 0.402899 0.042417
C8    C     C_2   0.132651 0.508048 0.489712 0.000125
C9    C     C_2   0.475945 0.033324 0.434510 0.197081
C10   C     C_2   0.527703 0.966927 0.568085 -0.192086
N1    N     N_2   0.465540 0.456420 0.038510 -0.081142
N2    N     N_2   0.534460 0.543580 0.961490 0.067775
N3    N     N_R   0.854034 0.304434 0.191472 0.163833
O9    O     O_R   0.908948 0.296371 0.044871 -0.337969
O10   O     O_R   0.752284 0.213643 0.181250 -0.344652
C11   C     C_3   0.106696 0.217862 0.342522 -0.717074
H2    H     H_    0.030129 0.122374 0.290346 0.264773
H3    H     H_    0.165592 0.219578 0.231337 0.243982
H4    H     H_    0.163014 0.188608 0.460441 0.202705
C12   C     C_3   0.089907 0.672338 0.542274 -0.785529
H5    H     H_    0.169749 0.763583 0.563883 0.253468
H6    H     H_    0.021419 0.693824 0.431917 0.260061
H7    H     H_    0.049516 0.690405 0.673497 0.235613
N4    N     N_R   0.387883 0.946046 0.282730 0.127382
O11   O     O_R   0.400865 0.956260 0.116215 -0.313575
O12   O     O_R   0.285637 0.875562 0.313493 -0.394062
C13   C     C_3   0.621677 0.054563 0.729667 -0.643882
H8    H     H_    0.673987 0.972374 0.795340 0.258397
H9    H     H_    0.692582 0.129274 0.683495 0.238082
H10   H     H_    0.573131 0.127384 0.836528 0.279169
C14   C     C_3   0.346622 0.380602 0.945238 -0.359631
H11   H     H_    0.310357 0.300150 0.025673 0.177523
H12   H     H_    0.278255 0.469443 0.940436 0.201319
H13   H     H_    0.354079 0.304343 0.810064 0.179122
N5    N     N_R   0.643512 0.619883 0.065223 0.278295
O13   O     O_R   0.748395 0.560247 0.035062 -0.306450
O14   O     O_R   0.646770 0.769705 0.139596 -0.323079

loop_
_geom_bond_atom_site_label_1
_geom_bond_atom_site_label_2
_geom_bond_distance
_ccdc_geom_bond_type
C5    C7    1.474256 S    
Cu2   N1    2.037349 S    
C12   H6    1.110705 S    
O4    Cu2   1.940678 S    
N4    O11   1.301289 A    
Cu2   O8    1.937482 S    
C8    C12   1.516606 S    
O2    C1    1.300522 A    
C12   H7    1.107973 S    
C3    C10   1.434737 S    
C1    C9    1.433912 S    
N2    N5    1.384876 S    
O1    Cu1   1.965760 S    
C9    C10   1.360268 D    
C11   H4    1.111034 S    
C13   H9    1.111153 S    
C2    C8    1.440935 S    
N1    C14   1.441961 S    
C14   H12   1.109693 S    
O3    Cu1   1.937481 S    
Cu1   N2    2.037349 S    
O4    C2    1.290158 A    
Cu2   O6    1.965760 S    
C5    N3    1.440397 S    
N4    O12   1.301198 A    
N3    O10   1.301435 A    
Cu1   O7    1.940678 S    
C4    C6    1.445446 S    
C13   H8    1.110895 S    
O7    C4    1.291844 A    
N5    O14   1.299942 A    
C11   H3    1.109088 S    
C14   H11   1.107569 S    
C10   C13   1.523743 S    
C5    C6    1.338502 D    
Cu1   Cu2   2.711294 S    
N3    O9    1.301309 A    
C13   H10   1.110339 S    
O3    C2    1.302507 A    
C7    C8    1.363290 D    
C11   H2    1.110645 S    
Cu1   O5    1.962505 S    
O5    C3    1.298344 A    
N5    O13   1.299614 A    
N1    N2    1.302734 D    
C9    N4    1.442816 S    
O6    C3    1.293090 A    
O2    Cu2   1.962506 S    
C7    C11   1.516510 S    
C12   H5    1.111084 S    
O8    C4    1.307261 A    
C6    H1    1.086970 S    
O1    C1    1.291456 A    
C14   H13   1.099339 S    
