data_mof_unit_47502.cif
_audit_creation_date              2012-12-10T17:22:11-0500
_audit_creation_method            fapswitch 2.2
_symmetry_space_group_name_H-M    P1
_symmetry_Int_Tables_number       1
_space_group_crystal_system       triclinic
_cell_length_a                    15.882795
_cell_length_b                    10.848809
_cell_length_c                    9.626895
_cell_angle_alpha                 87.791601
_cell_angle_beta                  87.501059
_cell_angle_gamma                 94.357784
_cell_volume                      1650.97739833

loop_
_atom_site_label
_atom_site_type_symbol
_atom_type_description
_atom_site_fract_x
_atom_site_fract_y
_atom_site_fract_z
_atom_type_partial_charge
C1    C     C_R   0.507760 0.262992 0.502853 0.801825
C2    C     C_3   0.939929 0.383854 0.580452 0.323732
C3    C     C_3   0.917633 0.501413 0.492411 0.217229
C4    C     C_3   0.958544 0.621419 0.558367 -0.094096
C5    C     C_3   0.052763 0.606079 0.585784 -0.417710
C6    C     C_1   0.825333 0.503097 0.488644 -0.030520
C7    C     C_1   0.174923 0.493408 0.510685 -0.056468
C8    C     C_1   0.250541 0.495352 0.508890 -0.208484
C9    C     C_R   0.490992 0.093552 0.769243 -0.387052
C10   C     C_R   0.452532 0.018230 0.881248 0.452284
C11   C     C_R   0.404170 0.910354 0.852622 0.472069
C12   C     C_R   0.340339 0.498422 0.502788 0.831959
C13   C     C_R   0.408218 0.865514 0.718763 -0.316757
C14   C     C_R   0.460096 0.929746 0.612899 0.019147
C15   C     C_R   0.487502 0.054086 0.630688 -0.000024
C16   C     C_R   0.518491 0.128361 0.511285 -0.102650
C17   C     C_R   0.550133 0.069046 0.393308 0.136476
C18   C     C_R   0.532705 0.941498 0.384818 -0.215531
C19   C     C_R   0.489551 0.871278 0.494117 -0.107492
C20   C     C_R   0.616427 0.660604 0.130055 -0.381345
C21   C     C_R   0.673243 0.745645 0.052411 0.430731
C22   C     C_R   0.671970 0.746386 0.908126 0.415079
C23   C     C_R   0.494571 0.736919 0.497912 0.777919
C24   C     C_R   0.618159 0.661226 0.842925 -0.317721
C25   C     C_R   0.560611 0.574908 0.918258 0.110713
C26   C     C_R   0.559706 0.575738 0.067334 0.133159
C27   C     C_R   0.439491 0.435804 0.083669 -0.134681
C28   C     C_R   0.434211 0.443210 0.936964 0.194997
C29   C     C_R   0.659777 0.501546 0.497127 0.798956
C30   C     C_3   0.037663 0.375144 0.575257 -0.449725
C31   C     C_3   0.058337 0.505184 0.351891 -0.403179
C32   C     C_3   0.960435 0.489895 0.342732 -0.034440
C33   C     C_1   0.749671 0.502787 0.490823 -0.197719
C34   C     C_3   0.083070 0.494731 0.506239 0.202390
Cu1   Cu    Cu3+1 0.499990 0.499990 0.640660 0.919724
Cu2   Cu    Cu3+1 0.500010 0.500010 0.359340 0.913767
H1    H     H_    0.059082 0.360476 0.682817 0.136712
H2    H     H_    0.918924 0.394241 0.690335 0.103876
H3    H     H_    0.961271 0.696263 0.477560 0.164328
H4    H     H_    0.529907 0.175450 0.792249 0.197272
H5    H     H_    0.373779 0.778164 0.699902 0.176578
H6    H     H_    0.557110 0.895495 0.295546 0.171021
H7    H     H_    0.389557 0.386136 0.148213 0.148913
H8    H     H_    0.054858 0.294131 0.515505 0.199368
H9    H     H_    0.614248 0.666940 0.239054 0.231307
H10   H     H_    0.621117 0.672472 0.732801 0.230538
H11   H     H_    0.085727 0.595120 0.305379 0.190056
H12   H     H_    0.086930 0.432259 0.291182 0.152942
H13   H     H_    0.945901 0.392288 0.314184 0.181050
H14   H     H_    0.061975 0.591237 0.698849 0.187457
H15   H     H_    0.091606 0.692555 0.551207 0.162364
N1    N     N_R   0.500800 0.501210 0.147910 -0.184932
N2    N     N_R   0.500820 0.501290 0.852040 -0.186025
O1    O     O_R   0.499990 0.319640 0.618810 -0.586012
O2    O     O_R   0.500000 0.319660 0.381240 -0.586300
O3    O     O_R   0.379430 0.499990 0.618840 -0.572827
O4    O     O_R   0.379440 0.500020 0.381260 -0.576809
O5    O     O_R   0.500000 0.680340 0.618760 -0.600799
O6    O     O_R   0.500010 0.680360 0.381190 -0.599002
O7    O     O_R   0.620560 0.499980 0.618740 -0.582271
O8    O     O_R   0.620570 0.500010 0.381160 -0.587000
O9    O     O_3   0.899353 0.275456 0.526943 -0.586514
C35   C     C_3   0.882141 0.182307 0.632921 -0.343405
H16   H     H_    0.832280 0.208736 0.708336 0.165531
H17   H     H_    0.940141 0.162118 0.687621 0.165903
H18   H     H_    0.858048 0.096093 0.584791 0.191484
C36   C     C_3   0.614258 0.134015 0.287488 -0.400022
C37   C     C_3   0.697425 0.169561 0.355078 -0.769024
H19   H     H_    0.687635 0.235098 0.438949 0.243157
H20   H     H_    0.723956 0.085718 0.399859 0.243148
H21   H     H_    0.743776 0.214814 0.275769 0.249783
H22   H     H_    0.628242 0.072316 0.201172 0.237567
H23   H     H_    0.590948 0.217203 0.237152 0.227645
O10   O     O_3   0.471732 0.034609 0.018676 -0.586456
C38   C     C_3   0.453972 0.152661 0.059445 -0.311465
H24   H     H_    0.451118 0.152471 0.174506 0.203081
H25   H     H_    0.390943 0.176608 0.027982 0.172082
H26   H     H_    0.505163 0.222129 0.020189 0.165589
O11   O     O_3   0.351656 0.850330 0.956230 -0.576535
C39   C     C_3   0.393574 0.753294 0.015914 -0.247624
H27   H     H_    0.452681 0.788379 0.064115 0.192624
H28   H     H_    0.407302 0.685110 0.937117 0.145824
H29   H     H_    0.351528 0.705038 0.099183 0.187499
O12   O     O_3   0.725656 0.837936 0.109572 -0.541092
C40   C     C_3   0.742876 0.813378 0.250050 -0.359352
H30   H     H_    0.760656 0.717131 0.268393 0.170359
H31   H     H_    0.688743 0.832174 0.320316 0.153141
H32   H     H_    0.796541 0.877949 0.277265 0.195148
O13   O     O_3   0.726521 0.829696 0.829335 -0.563981
C41   C     C_3   0.680501 0.927058 0.779397 -0.296463
H33   H     H_    0.648047 0.972689 0.866122 0.192394
H34   H     H_    0.634188 0.894233 0.703067 0.156969
H35   H     H_    0.725209 0.997972 0.724476 0.172951
C42   C     C_3   0.343545 0.421892 0.891261 -0.347868
C43   C     C_3   0.322770 0.302961 0.815057 -0.773377
H36   H     H_    0.277159 0.319686 0.733693 0.234463
H37   H     H_    0.379499 0.267666 0.766860 0.280650
H38   H     H_    0.291586 0.229890 0.887723 0.211007
H39   H     H_    0.298047 0.417577 0.982976 0.150878
H40   H     H_    0.324594 0.505769 0.836098 0.217183
C44   C     C_3   0.926654 0.562716 0.216729 -0.417508
C45   C     C_3   0.943181 0.703722 0.209193 -0.810487
H41   H     H_    0.905543 0.746132 0.290749 0.228866
H42   H     H_    0.010856 0.734286 0.216134 0.243160
H43   H     H_    0.922747 0.740094 0.107745 0.259946
H44   H     H_    0.956048 0.528098 0.120261 0.202769
H45   H     H_    0.857561 0.539429 0.211342 0.211386
C46   C     C_3   0.909380 0.678664 0.680428 -0.374371
C47   C     C_3   0.886273 0.595043 0.809888 -0.808184
H46   H     H_    0.834761 0.524273 0.788849 0.243046
H47   H     H_    0.942151 0.550818 0.847687 0.226443
H48   H     H_    0.861889 0.651666 0.894135 0.264834
H49   H     H_    0.947956 0.761565 0.712985 0.212881
H50   H     H_    0.850107 0.712954 0.641675 0.225972

loop_
_geom_bond_atom_site_label_1
_geom_bond_atom_site_label_2
_ccdc_geom_bond_type
C44   H45   S    
C23   O5    A    
C35   H17   S    
C44   C45   S    
Cu1   N2    S    
C10   O10   S    
Cu1   Cu2   S    
C38   H24   S    
C3    C6    S    
C13   H5    S    
C43   H38   S    
C7    C8    T    
C40   H30   S    
C23   O6    A    
C4    C46   S    
Cu1   O5    S    
C25   N2    A    
C18   C19   A    
C47   H47   S    
C15   C16   A    
C29   C33   S    
C46   C47   S    
C45   H43   S    
C28   C42   S    
C36   H22   S    
C46   H50   S    
C43   H36   S    
C16   C17   A    
C29   O7    A    
C36   H23   S    
C9    C10   A    
C20   H9    S    
Cu2   N1    S    
Cu2   O6    S    
C35   H18   S    
C31   H11   S    
C21   C22   A    
Cu1   O1    S    
C30   H8    S    
C45   H41   S    
C39   H29   S    
C21   O12   S    
C40   H31   S    
C29   O8    A    
C17   C36   S    
O10   C38   S    
C30   C34   S    
C36   C37   S    
C24   C25   A    
C39   H28   S    
Cu2   O4    S    
C47   H48   S    
C37   H19   S    
C25   C26   A    
C9    H4    S    
O11   C39   S    
C30   H1    S    
Cu1   O7    S    
C46   H49   S    
C19   C23   S    
C1    O1    A    
O9    C35   S    
C26   N1    A    
C2    H2    S    
C41   H34   S    
C31   C32   S    
C4    H3    S    
C42   H40   S    
C8    C12   S    
C5    C34   S    
C17   C18   A    
C31   C34   S    
C3    C32   S    
C1    C16   S    
O12   C40   S    
C45   H42   S    
C38   H25   S    
C12   O3    A    
C11   O11   S    
C12   O4    A    
C31   H12   S    
C7    C34   S    
C22   C24   A    
C5    H14   S    
C3    C4    S    
C27   N1    A    
C41   H35   S    
C40   H32   S    
C44   H44   S    
Cu1   O3    S    
C14   C15   A    
C14   C19   A    
C39   H27   S    
C28   N2    A    
C43   H37   S    
Cu2   O8    S    
C6    C33   T    
C2    C30   S    
C24   H10   S    
C18   H6    S    
C2    C3    S    
C1    O2    A    
Cu2   O2    S    
C47   H46   S    
C11   C13   A    
C41   H33   S    
C20   C26   A    
C42   H39   S    
C37   H21   S    
C22   O13   S    
C9    C15   A    
C42   C43   S    
C38   H26   S    
C32   H13   S    
C10   C11   A    
C35   H16   S    
C27   H7    S    
C4    C5    S    
C20   C21   A    
C37   H20   S    
C27   C28   A    
C32   C44   S    
C5    H15   S    
O13   C41   S    
C13   C14   A    
C2    O9    S    
