data_mof_unit_66650.cif
_audit_creation_date              2012-12-11T18:47:30-0500
_audit_creation_method            fapswitch 2.2
_symmetry_space_group_name_H-M    P1
_symmetry_Int_Tables_number       1
_space_group_crystal_system       triclinic
_cell_length_a                    8.505429
_cell_length_b                    15.228231
_cell_length_c                    15.139323
_cell_angle_alpha                 99.274533
_cell_angle_beta                  97.322997
_cell_angle_gamma                 99.680142
_cell_volume                      1883.46761675

loop_
_atom_site_label
_atom_site_type_symbol
_atom_type_description
_atom_site_fract_x
_atom_site_fract_y
_atom_site_fract_z
_atom_type_partial_charge
Ba1   Ba    Ba6+2 0.844900 0.542440 0.457470 1.755658
Ba2   Ba    Ba6+2 0.344940 0.457640 0.542540 1.770901
C1    C     C_3   0.549225 0.862772 0.196461 -0.305695
C2    C     C_R   0.112571 0.458655 0.200276 0.004559
C3    C     C_R   0.939654 0.457502 0.761391 -0.192467
C4    C     C_3   0.953926 0.785119 0.249739 0.297420
C5    C     C_R   0.838640 0.424706 0.819933 0.032221
C6    C     C_R   0.900527 0.433728 0.912110 -0.119293
C7    C     C_R   0.062085 0.477681 0.948582 0.047989
C8    C     C_R   0.156994 0.519450 0.888558 -0.025177
C9    C     C_R   0.131515 0.482898 0.043078 0.107054
C10   C     C_R   0.298223 0.523399 0.073572 0.029506
C11   C     C_R   0.387114 0.559691 0.011929 -0.036197
C12   C     C_3   0.505377 0.766162 0.221896 0.225698
C13   C     C_R   0.316711 0.562250 0.924021 0.015284
C14   C     C_R   0.041299 0.450862 0.109002 -0.091167
C15   C     C_R   0.276340 0.496303 0.226822 -0.184481
C16   C     C_3   0.940694 0.830187 0.166756 -0.211199
C17   C     C_R   0.091304 0.514238 0.794183 0.088231
C18   C     C_R   0.344054 0.824215 0.450003 0.096545
C19   C     C_R   0.596783 0.794397 0.522307 -0.001502
C20   C     C_R   0.767030 0.232048 0.522078 -0.271635
C21   C     C_R   0.867221 0.174097 0.547511 0.008011
C22   C     C_R   0.807454 0.081078 0.534723 -0.070038
C23   C     C_3   0.488368 0.302320 0.256931 0.241034
C24   C     C_R   0.640511 0.045353 0.509593 0.051133
C25   C     C_R   0.541195 0.104496 0.478317 -0.042669
C26   C     C_R   0.571275 0.951545 0.507852 0.009687
C27   C     C_R   0.407890 0.918333 0.466810 -0.007783
C28   C     C_3   0.328850 0.752018 0.707666 0.236656
C29   C     C_R   0.312762 0.979665 0.440890 0.004726
C30   C     C_R   0.379426 0.069191 0.442990 -0.022405
C31   C     C_R   0.655319 0.889886 0.547602 -0.066680
C32   C     C_R   0.446867 0.763590 0.466848 -0.277593
C33   C     C_R   0.606862 0.197615 0.482391 0.003772
C34   C     C_3   0.525930 0.268421 0.161992 -0.215211
C35   C     C_3   0.397768 0.843904 0.771345 -0.330038
C36   C     C_3   0.017740 0.248810 0.228791 0.187155
C37   C     C_3   0.919516 0.206521 0.135582 -0.348701
C38   C     C_3   0.772053 0.713669 0.767684 0.093733
C39   C     C_3   0.669622 0.732157 0.843995 -0.242407
C40   C     C_2   0.057844 0.174215 0.277753 0.952616
C41   C     C_2   0.944905 0.754770 0.808708 0.838541
C42   C     C_2   0.753413 0.614925 0.731269 0.800260
C43   C     C_2   0.684465 0.927086 0.262067 0.842395
C44   C     C_2   0.700384 0.691609 0.927048 0.875494
C45   C     C_3   0.995909 0.179366 0.750645 0.219373
C46   C     C_2   0.338871 0.722884 0.176766 0.799701
C47   C     C_2   0.412664 0.913313 0.184293 0.890806
C48   C     C_2   0.440301 0.172621 0.121076 1.003510
C49   C     C_2   0.487397 0.330399 0.098551 0.829905
C50   C     C_2   0.145538 0.206193 0.906330 0.984813
C51   C     C_2   0.779468 0.925296 0.628808 0.855113
C52   C     C_2   0.007801 0.784248 0.090252 0.990637
C53   C     C_2   0.232792 0.764284 0.623506 0.795108
C54   C     C_3   0.036439 0.137068 0.833102 -0.262806
C55   C     C_3   0.549796 0.206023 0.712972 0.377456
C56   C     C_3   0.497444 0.110225 0.729354 -0.271676
C57   C     C_R   0.370612 0.530845 0.166539 0.014064
H1    H     H_    0.432719 0.834415 0.841669 0.142006
H2    H     H_    0.895161 0.130328 0.706608 0.045054
H3    H     H_    0.095297 0.078433 0.813803 0.109663
H4    H     H_    0.377239 0.102623 0.751548 0.153476
H5    H     H_    0.868591 0.807164 0.293714 0.088660
H6    H     H_    0.586513 0.095675 0.782690 0.143475
H7    H     H_    0.511923 0.590579 0.033527 0.126450
H8    H     H_    0.820064 0.404683 0.953451 0.099642
H9    H     H_    0.402989 0.691524 0.444597 0.068899
H10   H     H_    0.816801 0.303437 0.528228 0.064758
H11   H     H_    0.894378 0.038621 0.545477 0.103258
H12   H     H_    0.811627 0.158240 0.142808 0.149433
H13   H     H_    0.301486 0.109559 0.414255 0.165744
H14   H     H_    0.814705 0.824985 0.140452 0.076084
H15   H     H_    0.428445 0.719061 0.688201 -0.045630
H16   H     H_    0.511207 0.772502 0.296285 0.028904
H17   H     H_    0.504061 0.879446 0.747354 0.125665
H18   H     H_    0.307614 0.888685 0.775698 0.176627
H19   H     H_    0.893750 0.185232 0.363474 0.285732
H20   H     H_    0.131030 0.288781 0.217677 0.006823
H21   H     H_    0.990584 0.168563 0.092453 0.164286
H22   H     H_    0.882318 0.259929 0.100402 0.121737
H23   H     H_    0.685340 0.806844 0.865896 0.098116
H24   H     H_    0.139974 0.749005 0.897058 0.368919
H25   H     H_    0.922790 0.638201 0.658741 0.277433
H26   H     H_    0.745991 0.000068 0.167314 0.284839
H27   H     H_    0.743628 0.582099 0.979717 0.327206
H28   H     H_    0.131052 0.642379 0.187729 0.313136
H29   H     H_    0.258057 0.981059 0.241966 0.349577
H30   H     H_    0.378606 0.331450 0.253959 -0.040151
H31   H     H_    0.230553 0.086407 0.068164 0.339724
H32   H     H_    0.566738 0.413261 0.015978 0.320145
H33   H     H_    0.961632 0.263074 0.944970 0.242625
H34   H     H_    0.542030 0.704722 0.817538 0.079073
H35   H     H_    0.923963 0.111312 0.858653 0.049015
H36   H     H_    0.672104 0.212665 0.693576 -0.148604
H37   H     H_    0.462540 0.217158 0.656786 0.077546
H38   H     H_    0.488666 0.060440 0.666041 0.073967
H39   H     H_    0.329845 0.502959 0.296970 0.037685
H40   H     H_    0.914989 0.421376 0.092063 0.113066
H41   H     H_    0.893976 0.443282 0.689633 0.098055
H42   H     H_    0.391709 0.596576 0.883525 0.107231
H43   H     H_    0.186621 0.959077 0.412425 0.135998
H44   H     H_    0.012937 0.946692 0.684573 0.338956
H45   H     H_    0.587551 0.358129 0.290516 0.078587
H46   H     H_    0.922374 0.710223 0.230213 0.109967
H47   H     H_    0.028098 0.664760 0.016432 0.360558
H48   H     H_    0.266815 0.648633 0.551242 0.249523
H49   H     H_    0.657102 0.270356 0.169832 0.049496
H50   H     H_    0.585409 0.851514 0.128475 0.116862
H51   H     H_    0.996424 0.903336 0.185036 0.116442
H52   H     H_    0.955504 0.244512 0.770777 -0.033694
O1    O     O_2   0.826460 0.445380 0.275370 -0.460046
O2    O     O_2   0.193619 0.180570 0.544676 -0.474060
O3    O     O_3   0.132859 0.193614 0.707798 -0.585227
O4    O     O_3   0.098920 0.448470 0.388920 -0.471040
O5    O     O_3   0.590770 0.611390 0.551120 -0.479531
O6    O     O_2   0.326540 0.275010 0.446300 -0.456193
O7    O     O_3   0.472548 0.231106 0.305281 -0.610068
O8    O     O_2   0.514121 0.433271 0.829910 -0.418100
O9    O     O_3   0.550656 0.267621 0.792597 -0.569186
O10   O     O_3   0.628660 0.613390 0.338240 -0.486206
O11   O     O_2   0.708726 0.555770 0.179349 -0.468061
O12   O     O_3   0.722035 0.760777 0.698837 -0.658475
O13   O     O_3   0.927819 0.301602 0.279763 -0.655301
O14   O     O_3   0.613972 0.710605 0.191286 -0.623608
O15   O     O_2   0.863170 0.725020 0.553760 -0.384112
O16   O     O_3   0.060910 0.661460 0.386100 -0.418378
O17   O     O_2   0.011246 0.826894 0.451590 -0.414729
O18   O     O_2   0.154602 0.129613 0.251321 -0.586869
O19   O     O_R   0.985759 0.153086 0.351688 -0.691197
O20   O     O_2   0.010654 0.825880 0.790533 -0.554830
O21   O     O_R   0.027273 0.713494 0.871015 -0.779706
O22   O     O_2   0.652423 0.560428 0.752184 -0.521984
O23   O     O_3   0.111445 0.812468 0.294864 -0.611690
O24   O     O_R   0.840784 0.585463 0.666420 -0.729884
O25   O     O_2   0.710309 0.919287 0.341214 -0.584046
O26   O     O_R   0.776941 0.999173 0.233970 -0.705501
O27   O     O_2   0.667788 0.729269 0.997897 -0.612138
O28   O     O_R   0.747245 0.607532 0.922076 -0.732899
O29   O     O_2   0.302173 0.719357 0.095571 -0.603904
O30   O     O_R   0.232866 0.679987 0.226399 -0.806344
O31   O     O_2   0.370845 0.931997 0.110383 -0.515151
O32   O     O_R   0.341156 0.943464 0.257909 -0.758076
O33   O     O_2   0.518144 0.112607 0.108218 -0.599261
O34   O     O_2   0.363260 0.554650 0.724690 -0.456865
O35   O     O_R   0.273002 0.152709 0.095911 -0.716681
O36   O     O_2   0.348877 0.341231 0.081225 -0.569186
O37   O     O_R   0.608714 0.374128 0.058173 -0.764682
O38   O     O_2   0.290421 0.206937 0.918005 -0.524574
O39   O     O_R   0.083265 0.271050 0.960142 -0.707428
O40   O     O_2   0.743932 0.968212 0.696268 -0.663363
O41   O     O_R   0.937636 0.913079 0.627404 -0.657764
O42   O     O_2   0.079634 0.829244 0.042841 -0.546793
O43   O     O_R   0.976701 0.689768 0.069160 -0.764714
O44   O     O_2   0.191093 0.835988 0.617116 -0.566943
O45   O     O_3   0.090800 0.551610 0.611090 -0.455661
O46   O     O_R   0.189437 0.692387 0.551106 -0.703570
O47   O     O_3   0.561050 0.386690 0.661770 -0.448992
O48   O     O_3   0.228108 0.699005 0.752918 -0.649688
O49   O     O_3   0.598950 0.388690 0.448890 -0.479401
O50   O     O_3   0.128800 0.338610 0.613910 -0.469320
P1    P     P_3+3 0.996570 0.418570 0.288410 1.000891
P2    P     P_3+3 0.693070 0.712070 0.580610 1.034466
P3    P     P_3+3 0.128722 0.779024 0.399717 1.092438
P4    P     P_3+3 0.193140 0.581510 0.711600 0.990181
P5    P     P_3+3 0.077046 0.221063 0.601845 0.993678
P6    P     P_3+3 0.576467 0.600710 0.219338 0.950414
P7    P     P_3+3 0.501863 0.273212 0.421915 0.976594
P8    P     P_3+3 0.619026 0.377659 0.775668 1.060774

loop_
_geom_bond_atom_site_label_1
_geom_bond_atom_site_label_2
_ccdc_geom_bond_type
C39   C44   S    
C45   O3    S    
H25   O24   S    
O16   P3    S    
C19   P2    S    
C34   H49   S    
O5    P2    S    
C23   O7    S    
C52   O42   D    
C1    C47   S    
C22   H11   S    
C5    C6    A    
C30   H13   S    
O34   P4    D    
Ba2   O34   S    
C54   H35   S    
C20   C33   A    
C24   C25   A    
C12   O14   S    
O45   P4    S    
C41   O21   S    
O14   P6    S    
C22   C24   A    
C36   C40   S    
C8    C13   A    
Ba1   O1    S    
C36   C37   S    
C28   H15   S    
O9    P8    S    
C19   C31   A    
C36   H20   S    
O6    P7    D    
C18   P3    S    
C23   H45   S    
O17   P3    D    
Ba1   Ba2   S    
Ba2   O4    S    
C4    H5    S    
C10   C57   A    
Ba2   O5    S    
C38   C41   S    
C39   H34   S    
C50   O38   D    
H47   O43   S    
C55   H37   S    
C51   O41   S    
C21   C22   A    
Ba1   O5    S    
C15   H39   S    
H29   O32   S    
O50   P5    S    
C18   C27   A    
C18   C32   A    
C48   O35   S    
C42   O24   S    
C42   O22   D    
C56   H38   S    
O10   P6    S    
Ba2   O50   S    
H32   O37   S    
H48   O46   S    
Ba2   O6    S    
C48   O33   D    
O3    P5    S    
O13   P1    S    
C11   H7    S    
C31   C51   S    
C28   O48   S    
C4    C16   S    
C46   O29   D    
C29   H43   S    
Ba1   O16   S    
Ba1   O4    S    
Ba1   O15   S    
C37   H22   S    
C32   H9    S    
O2    P5    D    
C3    C5    A    
C6    C7    A    
C12   C46   S    
C19   C32   A    
C25   C33   A    
C35   H18   S    
C1    C43   S    
H28   O30   S    
O48   P4    S    
C28   C35   S    
C2    C14   A    
Ba1   O45   S    
C53   O44   D    
C52   O43   S    
C21   P5    S    
O12   P2    S    
C9    C14   A    
C4    O23   S    
C56   H6    S    
C29   C30   A    
C3    H41   S    
C49   O36   D    
C8    C17   A    
Ba2   O47   S    
C47   O31   D    
C43   O26   S    
C33   P7    S    
C40   O19   S    
C13   H42   S    
C7    C9    A    
Ba2   P4    S    
C34   C49   S    
H44   O41   S    
C15   C57   A    
C55   O9    S    
C2    C15   A    
H27   O28   S    
Ba2   O49   S    
C38   C39   S    
C35   H17   S    
O8    P8    D    
C26   C31   A    
C16   H14   S    
C5    P8    S    
C11   C13   A    
H33   O39   S    
C2    P1    S    
C38   C42   S    
O15   P2    D    
H26   O26   S    
H31   O35   S    
C34   C48   S    
C7    C8    A    
C56   H4    S    
C38   O12   S    
C26   C27   A    
C43   O25   D    
Ba2   O45   S    
O11   P6    D    
C20   H10   S    
C25   C30   A    
C23   H30   S    
Ba1   O49   S    
C16   H51   S    
C14   H40   S    
C45   H2    S    
C9    C10   A    
O47   P8    S    
C3    C17   A    
C1    C12   S    
O1    P1    D    
C28   C53   S    
C24   C26   A    
C44   O27   D    
C37   H21   S    
O4    P1    S    
C41   O20   D    
H19   O19   S    
H24   O21   S    
C27   C29   A    
C12   H16   S    
C55   C56   S    
C49   O37   S    
C1    H50   S    
C45   H52   S    
C39   H23   S    
C47   O32   S    
C57   P6    S    
O7    P7    S    
C4    H46   S    
O23   P3    S    
C46   O30   S    
C40   O18   D    
C54   H3    S    
O49   P7    S    
Ba1   O10   S    
C35   H1    S    
Ba1   P1    S    
C16   C52   S    
C23   C34   S    
C53   O46   S    
C10   C11   A    
Ba1   P2    S    
C6    H8    S    
C50   O39   S    
C55   H36   S    
C51   O40   D    
C37   H12   S    
C20   C21   A    
C44   O28   S    
C17   P4    S    
C36   O13   S    
C50   C54   S    
C45   C54   S    
