data_mof_unit_59060.cif
_audit_creation_date              2012-12-11T15:14:57-0500
_audit_creation_method            fapswitch 2.2
_symmetry_space_group_name_H-M    P1
_symmetry_Int_Tables_number       1
_space_group_crystal_system       triclinic
_cell_length_a                    11.055464
_cell_length_b                    11.109572
_cell_length_c                    18.487073
_cell_angle_alpha                 89.681431
_cell_angle_beta                  89.798839
_cell_angle_gamma                 119.831486
_cell_volume                      1969.65410002

loop_
_atom_site_label
_atom_site_type_symbol
_atom_type_description
_atom_site_fract_x
_atom_site_fract_y
_atom_site_fract_z
_atom_type_partial_charge
C1    C     C_R   0.542234 0.429157 0.637521 0.538391
C2    C     C_R   0.453077 0.519869 0.355842 0.601526
C3    C     C_R   0.459089 0.882758 0.137873 0.545388
C4    C     C_R   0.111997 0.571267 0.362726 0.517256
C5    C     C_3   0.520727 0.082947 0.458207 0.359824
C6    C     C_3   0.626008 0.528843 0.041211 0.364729
C7    C     C_3   0.942703 0.389937 0.461627 0.385365
C8    C     C_3   0.495980 0.069054 0.039304 0.385815
C9    C     C_3   0.606706 0.491711 0.454444 0.366071
C10   C     C_3   0.890118 0.411850 0.037553 0.332676
C11   C     C_3   0.968384 0.372365 0.982182 0.380922
C12   C     C_R   0.934113 0.477183 0.855200 0.617748
C13   C     C_3   0.624985 0.591408 0.515720 0.431193
C14   C     C_3   0.389052 0.991810 0.980357 0.425492
C15   C     C_3   0.026833 0.407642 0.530168 0.436748
C16   C     C_3   0.601225 0.600002 0.976198 0.432777
C17   C     C_3   0.406492 0.020468 0.516923 0.381646
C18   C     C_3   0.628180 0.083893 0.511870 -0.147749
C19   C     C_3   0.554211 0.387760 0.001391 -0.183338
C20   C     C_3   0.865045 0.455336 0.499270 -0.159865
C21   C     C_3   0.616537 0.091367 0.988297 -0.148000
C22   C     C_3   0.510958 0.365064 0.502958 -0.148239
C23   C     C_R   0.544948 0.066663 0.643924 0.595809
C24   C     C_3   0.892701 0.521234 0.984247 -0.148511
C25   C     C_3   0.109060 0.482297 0.012551 -0.153081
C26   C     C_3   0.496145 0.598114 0.489866 -0.130173
C27   C     C_3   0.375137 0.853375 0.006257 -0.117852
C28   C     C_3   0.141482 0.551458 0.503217 -0.198375
C29   C     C_3   0.460096 0.569431 0.008561 -0.160984
C30   C     C_3   0.366463 0.873881 0.492737 -0.162634
C31   C     C_3   0.511790 0.017596 0.570133 -0.069288
C32   C     C_3   0.527442 0.459752 0.936992 -0.105764
C33   C     C_3   0.952565 0.476925 0.566853 -0.092298
C34   C     C_R   0.542620 0.425797 0.862613 0.538241
C35   C     C_3   0.507749 0.010974 0.929225 -0.089657
C36   C     C_3   0.528510 0.465983 0.563694 -0.104470
C37   C     C_3   0.972585 0.482472 0.929767 -0.060660
C38   C     C_3   0.028671 0.521968 0.067377 -0.066805
C39   C     C_3   0.479646 0.496787 0.429430 -0.087623
C40   C     C_3   0.483170 0.932995 0.064012 -0.101453
C41   C     C_3   0.054065 0.533679 0.435293 -0.101958
C42   C     C_3   0.486658 0.496620 0.072557 -0.072321
C43   C     C_3   0.482334 0.937537 0.435541 -0.079651
C44   C     C_3   0.473967 0.872872 0.546269 0.347515
C45   C     C_R   0.890848 0.460033 0.637583 0.522943
C46   C     C_3   0.387573 0.428687 0.969347 0.387120
C47   C     C_3   0.064345 0.618652 0.540278 0.377949
C48   C     C_3   0.495907 0.875338 0.955000 0.387993
C49   C     C_3   0.401001 0.471827 0.538126 0.390552
C50   C     C_3   0.110108 0.590314 0.958676 0.332323
C51   C     C_3   0.032748 0.630856 0.013820 0.397506
C52   C     C_3   0.382904 0.371983 0.477612 0.436980
C53   C     C_3   0.602549 0.953299 0.013652 0.416195
C54   C     C_3   0.978070 0.600006 0.472978 0.448051
C55   C     C_3   0.412749 0.357093 0.033274 0.446488
C56   C     C_R   0.543042 0.063691 0.855512 0.604275
C57   C     C_3   0.589140 0.937274 0.488433 0.379357
C58   C     C_R   0.456793 0.518834 0.145613 0.602693
C59   C     C_R   0.458959 0.884299 0.362592 0.525968
C60   C     C_R   0.068272 0.547138 0.143273 0.617225
Cr1   Cr    Cr6+3 0.769930 0.543130 0.750000 1.228781
Cr2   Cr    Cr6+3 0.773200 0.230070 0.750000 1.209725
Cr3   Cr    Cr6+3 0.456870 0.226800 0.750000 1.229373
Cr4   Cr    Cr6+3 0.543130 0.769930 0.250000 1.226208
Cr5   Cr    Cr6+3 0.230070 0.773200 0.250000 1.230319
Cr6   Cr    Cr6+3 0.226800 0.456870 0.250000 1.207999
F1    F     F_    0.450181 0.768456 0.595043 -0.511136
F2    F     F_    0.956068 0.702871 0.444518 -0.424515
F3    F     F_    0.311210 0.233174 0.063238 -0.426562
F4    F     F_    0.689113 0.901373 0.471832 -0.468050
F5    F     F_    0.544586 0.184325 0.407371 -0.502358
F6    F     F_    0.743465 0.583753 0.084113 -0.493989
F7    F     F_    0.883425 0.274167 0.417926 -0.483919
F8    F     F_    0.496029 0.158550 0.090812 -0.470307
F9    F     F_    0.702340 0.502067 0.402899 -0.486266
F10   F     F_    0.782374 0.325294 0.083402 -0.516138
F11   F     F_    0.942237 0.241415 0.963053 -0.471135
F12   F     F_    0.265380 0.374993 0.930248 -0.477114
F13   F     F_    0.749377 0.702703 0.538135 -0.431924
F14   F     F_    0.280144 0.012546 0.960922 -0.433612
F15   F     F_    0.043155 0.302668 0.560506 -0.436865
F16   F     F_    0.701279 0.723690 0.945418 -0.435440
F17   F     F_    0.308428 0.058810 0.533750 -0.465351
F18   F     F_    0.124443 0.735754 0.583131 -0.480655
F19   F     F_    0.496163 0.781650 0.906216 -0.477515
F20   F     F_    0.303030 0.462353 0.587710 -0.468008
F21   F     F_    0.212024 0.670829 0.908610 -0.517030
F22   F     F_    0.062975 0.763891 0.031081 -0.447941
F23   F     F_    0.257780 0.259883 0.456515 -0.425808
F24   F     F_    0.712124 0.933718 0.033248 -0.435598
H1    H     H_    0.734550 0.166800 0.524907 0.193774
H2    H     H_    0.254373 0.594113 0.501192 0.156524
H3    H     H_    0.418199 0.639178 0.018189 0.120480
H4    H     H_    0.262568 0.805346 0.471272 0.164990
H5    H     H_    0.599958 0.321505 0.991490 0.144472
H6    H     H_    0.752482 0.398399 0.505459 0.120247
H7    H     H_    0.708638 0.188884 0.972641 0.182309
H8    H     H_    0.524664 0.279642 0.521425 0.137844
H9    H     H_    0.815024 0.544928 0.962011 0.169416
H10   H     H_    0.190986 0.461872 0.032058 0.175148
H11   H     H_    0.478612 0.682037 0.472696 0.131589
H12   H     H_    0.291614 0.760623 0.031767 0.110995
O1    O     O_R   0.913270 0.574260 0.668550 -0.382711
O2    O     O_R   0.574260 0.913270 0.331450 -0.380818
O3    O     O_R   0.086730 0.660990 0.168550 -0.419955
O4    O     O_R   0.339010 0.425740 0.331450 -0.436106
O5    O     O_R   0.640160 0.530400 0.673300 -0.435292
O6    O     O_R   0.890240 0.359840 0.826700 -0.462561
O7    O     O_R   0.469600 0.109760 0.673300 -0.472428
O8    O     O_R   0.640160 0.530400 0.826700 -0.431347
O9    O     O_R   0.890240 0.359840 0.673300 -0.443942
O10   O     O_R   0.469600 0.109760 0.826700 -0.479441
O11   O     O_R   0.530400 0.640160 0.173300 -0.473323
O12   O     O_R   0.660990 0.086730 0.831450 -0.434878
O13   O     O_R   0.359840 0.890240 0.326700 -0.449903
O14   O     O_R   0.109760 0.469600 0.173300 -0.486723
O15   O     O_R   0.530400 0.640160 0.326700 -0.476812
O16   O     O_R   0.359840 0.890240 0.173300 -0.417266
O17   O     O_R   0.109760 0.469600 0.326700 -0.416797
O18   O     O_3   0.666667 0.333333 0.750000 -0.451777
O19   O     O_3   0.333333 0.666667 0.250000 -0.454473
O20   O     O_R   0.425740 0.339010 0.668550 -0.377595
O21   O     O_R   0.913270 0.574260 0.831450 -0.457249
O22   O     O_R   0.660990 0.086730 0.668550 -0.459583
O23   O     O_R   0.425740 0.339010 0.831450 -0.374651
O24   O     O_R   0.574260 0.913270 0.168550 -0.392515
O25   O     O_R   0.086730 0.660990 0.331450 -0.404521
O26   O     O_R   0.339010 0.425740 0.168550 -0.448288

loop_
_geom_bond_atom_site_label_1
_geom_bond_atom_site_label_2
_ccdc_geom_bond_type
C27   C48   S    
C29   H3    S    
C13   F13   S    
C28   C47   S    
C58   O26   A    
C13   C26   S    
C22   H8    S    
C29   C42   S    
C24   H9    S    
C33   C45   S    
C60   O3    A    
C42   C58   S    
Cr2   O22   S    
C3    O24   A    
C15   F15   S    
C6    F6    S    
C6    C19   S    
Cr6   O14   S    
C18   H1    S    
Cr5   O25   S    
C22   C52   S    
Cr1   O1    S    
Cr2   O12   S    
C26   H11   S    
C25   C38   S    
C18   C57   S    
C9    C22   S    
C54   F2    S    
C4    C41   S    
Cr1   O8    S    
Cr4   O19   S    
C28   C41   S    
C9    C39   S    
Cr3   O10   S    
C11   C37   S    
C59   O13   A    
C9    C13   S    
C1    O20   A    
C11   F11   S    
C25   C50   S    
C10   F10   S    
C2    C39   S    
Cr2   O9    S    
C35   C48   S    
C46   C55   S    
C58   O11   A    
Cr5   O16   S    
C4    O17   A    
Cr5   O19   S    
C14   C27   S    
C45   O1    A    
C44   C57   S    
Cr2   O18   S    
C43   C59   S    
C24   C51   S    
C7    C15   S    
C39   C52   S    
C5    C43   S    
Cr1   O18   S    
C17   C30   S    
Cr5   O13   S    
C30   C44   S    
C52   F23   S    
Cr6   O4    S    
C19   C32   S    
Cr5   O3    S    
C2    O15   A    
C50   C51   S    
C48   C53   S    
C23   O7    A    
Cr2   O6    S    
C31   C44   S    
C9    F9    S    
C13   C36   S    
C7    F7    S    
C26   C49   S    
C14   C35   S    
C12   O6    A    
C5    C18   S    
C10   C24   S    
C16   C29   S    
C2    O4    A    
Cr4   O15   S    
C17   F17   S    
C32   C34   S    
Cr3   O7    S    
C3    O16   A    
C42   C55   S    
C21   H7    S    
C26   C39   S    
C25   H10   S    
C27   C40   S    
C49   C52   S    
C8    F8    S    
C24   C37   S    
Cr6   O19   S    
C28   H2    S    
C55   F3    S    
C47   F18   S    
C7    C20   S    
Cr3   O23   S    
C50   F21   S    
C1    O5    A    
C47   C54   S    
C38   C60   S    
C20   C33   S    
C20   C54   S    
C3    C40   S    
C40   C53   S    
C14   F14   S    
Cr6   O17   S    
C6    C42   S    
C33   C47   S    
C30   C43   S    
C60   O14   A    
C59   O2    A    
Cr3   O20   S    
C19   H5    S    
C46   F12   S    
C19   C55   S    
Cr4   O2    S    
C8    C14   S    
Cr4   O11   S    
C4    O25   A    
C35   C56   S    
C32   C46   S    
C49   F20   S    
C15   C33   S    
C8    C21   S    
C51   F22   S    
C45   O9    A    
C23   O22   A    
C38   C51   S    
C16   C32   S    
C22   C36   S    
C27   H12   S    
Cr4   O24   S    
Cr1   O21   S    
C29   C46   S    
C10   C38   S    
C21   C35   S    
C30   H4    S    
C21   C53   S    
Cr3   O18   S    
C15   C28   S    
C12   O21   A    
C34   O23   A    
C17   C31   S    
C37   C50   S    
Cr6   O26   S    
C7    C41   S    
C20   H6    S    
Cr1   O5    S    
C41   C54   S    
C10   C11   S    
C43   C57   S    
C57   F4    S    
C6    C16   S    
C56   O12   A    
C5    C17   S    
C5    F5    S    
C16   F16   S    
C12   C37   S    
C53   F24   S    
C11   C25   S    
C48   F19   S    
C44   F1    S    
C18   C31   S    
C8    C40   S    
C34   O8    A    
C56   O10   A    
C36   C49   S    
C1    C36   S    
C23   C31   S    
