data_mof_unit_36437.cif
_audit_creation_date              2012-12-10T17:49:41-0500
_audit_creation_method            fapswitch 2.2
_symmetry_space_group_name_H-M    P1
_symmetry_Int_Tables_number       1
_space_group_crystal_system       triclinic
_cell_length_a                    10.516786
_cell_length_b                    10.695142
_cell_length_c                    10.021871
_cell_angle_alpha                 89.812934
_cell_angle_beta                  90.648187
_cell_angle_gamma                 94.424797
_cell_volume                      1123.810256

loop_
_atom_site_label
_atom_site_type_symbol
_atom_type_description
_atom_site_fract_x
_atom_site_fract_y
_atom_site_fract_z
_atom_type_partial_charge
C1    C     C_R   0.505850 0.261125 0.500748 1.094008
C2    C     C_R   0.619133 0.073134 0.565464 -0.159882
C3    C     C_R   0.515022 0.128745 0.503029 -0.289912
C4    C     C_R   0.258017 0.498142 0.499208 1.085370
C5    C     C_R   0.414176 0.056660 0.442947 0.590456
C6    C     C_R   0.414990 0.929068 0.440566 0.567042
C7    C     C_R   0.515809 0.871963 0.499797 -0.257081
C8    C     C_R   0.310867 0.345189 0.135124 0.649598
C9    C     C_R   0.211955 0.281782 0.065017 0.629391
C10   C     C_R   0.212459 0.281187 0.928916 -0.436212
C11   C     C_R   0.311684 0.343668 0.860765 0.632788
C12   C     C_3   0.947932 0.403436 0.429064 0.366544
C13   C     C_R   0.408029 0.423733 0.926785 -0.152547
C14   C     C_R   0.407871 0.424072 0.071159 -0.222227
C15   C     C_R   0.584884 0.574302 0.071130 0.342113
C16   C     C_R   0.505151 0.739160 0.499896 1.045253
C17   C     C_R   0.585383 0.573401 0.929018 0.649080
C18   C     C_R   0.742318 0.502997 0.500597 1.124401
C19   C     C_3   0.053147 0.595327 0.570220 0.626517
C20   C     C_3   0.960923 0.490466 0.627796 -0.192540
C21   C     C_3   0.877442 0.502670 0.501756 -0.353987
C22   C     C_3   0.968717 0.608108 0.446168 0.245474
C23   C     C_3   0.033180 0.390403 0.554036 -0.285662
C24   C     C_3   0.039603 0.508913 0.373742 0.583029
C25   C     C_3   0.123373 0.496933 0.497711 -0.392155
C26   C     C_R   0.722518 0.143373 0.629695 0.641013
C27   C     C_R   0.821595 0.084529 0.689856 -0.331637
C28   C     C_R   0.823218 0.955471 0.685553 0.359600
C29   C     C_R   0.725465 0.883788 0.620052 0.672037
C30   C     C_R   0.620125 0.941300 0.562187 -0.237119
Cl1   Cl    Cl    0.949118 0.883846 0.763527 -0.305475
Cl2   Cl    Cl    0.695017 0.678421 0.154399 -0.377317
Cl3   Cl    Cl    0.931119 0.754786 0.377986 -0.296209
Cl4   Cl    Cl    0.875896 0.275842 0.334018 -0.397762
F1    F     F_    0.737414 0.759105 0.611344 -0.614911
F2    F     F_    0.730922 0.269118 0.636519 -0.679970
F3    F     F_    0.314134 0.859999 0.384794 -0.558534
F4    F     F_    0.310145 0.316817 0.264009 -0.552152
F5    F     F_    0.119548 0.211319 0.130632 -0.496669
F6    F     F_    0.311861 0.311716 0.732517 -0.628227
F7    F     F_    0.672933 0.649151 0.863004 -0.563058
F8    F     F_    0.114043 0.693171 0.641718 -0.543898
F9    F     F_    0.082017 0.517698 0.243680 -0.559434
F10   F     F_    0.310912 0.109705 0.392156 -0.525761
H1    H     H_    0.926085 0.484615 0.731964 0.254433
H2    H     H_    0.139244 0.224191 0.875146 0.238928
H3    H     H_    0.063395 0.301312 0.596692 0.248746
H4    H     H_    0.898384 0.140277 0.739499 0.214354
N1    N     N_R   0.498800 0.498800 0.142780 -0.138215
N2    N     N_R   0.498760 0.498720 0.857170 -0.151824
O1    O     O_R   0.500000 0.316780 0.614690 -0.530754
O2    O     O_R   0.499990 0.316750 0.385360 -0.557707
O3    O     O_R   0.313960 0.499980 0.614650 -0.567127
O4    O     O_R   0.313940 0.499960 0.385310 -0.535791
O5    O     O_R   0.500010 0.683250 0.614640 -0.570332
O6    O     O_R   0.500000 0.683220 0.385310 -0.575991
O7    O     O_R   0.686060 0.500040 0.614690 -0.517996
O8    O     O_R   0.686040 0.500020 0.385350 -0.601351
Zn1   Zn    Zn3+2 0.500010 0.500020 0.653130 1.153442
Zn2   Zn    Zn3+2 0.499990 0.499980 0.346870 1.143809

loop_
_geom_bond_atom_site_label_1
_geom_bond_atom_site_label_2
_ccdc_geom_bond_type
C27   H4    S    
C17   N2    A    
C16   O6    A    
C10   H2    S    
C6    C7    A    
O5    Zn1   S    
C4    O3    A    
C18   C21   S    
C11   C13   A    
C9    C10   A    
C29   F1    S    
C18   O7    A    
C19   C20   S    
C19   F8    S    
C2    C30   A    
C3    C5    A    
C15   N1    A    
C2    C3    A    
O3    Zn1   S    
C6    F3    S    
C15   Cl2   S    
C2    C26   A    
C7    C30   A    
O4    Zn2   S    
C21   C22   S    
C24   C25   S    
C1    O1    A    
C12   C23   S    
C26   C27   A    
C29   C30   A    
N1    Zn2   S    
C8    F4    S    
C22   Cl3   S    
N2    Zn1   S    
C26   F2    S    
C7    C16   S    
C5    F10   S    
C4    C25   S    
C22   C24   S    
C23   C25   S    
C5    C6    A    
C19   C25   S    
C1    O2    A    
C17   F7    S    
C16   O5    A    
C14   N1    A    
O1    Zn1   S    
C10   C11   A    
O8    Zn2   S    
C11   F6    S    
O6    Zn2   S    
C9    F5    S    
C19   C22   S    
C23   H3    S    
C20   C21   S    
O7    Zn1   S    
C20   H1    S    
C27   C28   A    
C15   C17   A    
C24   F9    S    
C12   C24   S    
C28   C29   A    
C8    C14   A    
O2    Zn2   S    
C4    O4    A    
C13   C14   A    
C20   C23   S    
C12   Cl4   S    
C12   C21   S    
C18   O8    A    
C28   Cl1   S    
C13   N2    A    
C8    C9    A    
C1    C3    S    
