data_mof_unit_39300.cif
_audit_creation_date              2012-12-10T17:31:21-0500
_audit_creation_method            fapswitch 2.2
_symmetry_space_group_name_H-M    P1
_symmetry_Int_Tables_number       1
_space_group_crystal_system       triclinic
_cell_length_a                    18.985525
_cell_length_b                    18.513214
_cell_length_c                    12.515336
_cell_angle_alpha                 90.779718
_cell_angle_beta                  131.127203
_cell_angle_gamma                 89.328214
_cell_volume                      3313.16919865

loop_
_atom_site_label
_atom_site_type_symbol
_atom_type_description
_atom_site_fract_x
_atom_site_fract_y
_atom_site_fract_z
_atom_type_partial_charge
C1    C     C_R   0.609966 0.896283 0.649462 0.904701
C2    C     C_R   0.616254 0.098608 0.658690 0.951391
C3    C     C_R   0.109966 0.396283 0.649462 0.904702
C4    C     C_R   0.116254 0.598608 0.658690 0.951391
C5    C     C_R   0.235897 0.791652 0.010711 -0.024059
C6    C     C_R   0.233906 0.220726 0.025974 -0.005862
C7    C     C_R   0.735897 0.291652 0.010711 -0.024059
C8    C     C_R   0.733906 0.720726 0.025973 -0.005861
C9    C     C_R   0.644546 0.321410 0.934152 -0.058388
C10   C     C_R   0.666204 0.746017 0.033415 -0.074197
C11   C     C_R   0.144546 0.821410 0.934152 -0.058388
C12   C     C_R   0.166204 0.246018 0.033416 -0.074197
C13   C     C_R   0.572193 0.299735 0.790782 0.389041
C14   C     C_R   0.583563 0.778688 0.912874 0.336422
C15   C     C_R   0.072194 0.799735 0.790781 0.389042
C16   C     C_R   0.083563 0.278688 0.912875 0.336422
C17   C     C_R   0.588677 0.243801 0.731093 0.322713
C18   C     C_R   0.575993 0.794562 0.795591 0.340449
C19   C     C_R   0.088677 0.743801 0.731093 0.322713
C20   C     C_R   0.075994 0.294563 0.795592 0.340449
C21   C     C_R   0.306134 0.809715 0.155165 -0.207016
C22   C     C_R   0.310705 0.181789 0.141163 -0.155591
C23   C     C_R   0.806134 0.309715 0.155165 -0.207016
C24   C     C_R   0.810705 0.681789 0.141163 -0.155591
C25   C     C_R   0.205994 0.897995 0.141107 0.158612
C26   C     C_R   0.252120 0.187974 0.263841 0.247398
C27   C     C_R   0.705994 0.397995 0.141107 0.158612
C28   C     C_R   0.752120 0.687974 0.263841 0.247399
C29   C     C_R   0.692380 0.148078 0.762857 -0.095942
C30   C     C_R   0.665879 0.830088 0.724283 -0.141188
C31   C     C_R   0.192380 0.648078 0.762857 -0.095942
C32   C     C_R   0.165879 0.330088 0.724283 -0.141188
C33   C     C_R   0.689327 0.018426 0.298638 0.370303
C34   C     C_R   0.189327 0.518425 0.298638 0.370302
C35   C     C_R   0.342563 0.987530 0.623089 0.057432
C36   C     C_R   0.842563 0.487531 0.623088 0.057431
C37   C     C_R   0.310113 0.968000 0.690674 0.073745
C38   C     C_R   0.810113 0.468000 0.690674 0.073748
C39   C     C_R   0.385154 0.100935 0.344601 0.893760
C40   C     C_R   0.380080 0.904562 0.336310 0.846167
C41   C     C_R   0.885154 0.600935 0.344601 0.893760
C42   C     C_R   0.880080 0.404562 0.336310 0.846166
C43   C     C_R   0.372948 0.964189 0.840109 0.462095
C44   C     C_R   0.872948 0.464189 0.840109 0.462102
C45   C     C_R   0.464509 0.993236 0.920852 -0.105996
C46   C     C_R   0.964509 0.493236 0.920852 -0.106000
C47   C     C_R   0.497140 0.004242 0.846363 0.103375
C48   C     C_R   0.997140 0.504242 0.846363 0.103374
C49   C     C_R   0.528267 0.002965 0.074120 -0.109188
C50   C     C_R   0.028267 0.502965 0.074120 -0.109191
C51   C     C_R   0.623198 0.019173 0.149246 -0.113549
C52   C     C_R   0.123198 0.519173 0.149246 -0.113549
C53   C     C_R   0.651433 0.035935 0.074430 0.353910
C54   C     C_R   0.151433 0.535934 0.074430 0.353910
C55   C     C_R   0.595144 0.016521 0.931425 0.314757
C56   C     C_R   0.095144 0.516521 0.931425 0.314757
C57   C     C_R   0.500501 0.003326 0.155573 0.599730
C58   C     C_R   0.000501 0.503326 0.155573 0.599726
C59   C     C_R   0.659527 0.003646 0.372615 0.284216
C60   C     C_R   0.159527 0.503646 0.372615 0.284217
C61   C     C_R   0.629498 0.372598 0.004139 0.354780
C62   C     C_R   0.682854 0.736772 0.160776 0.355317
C63   C     C_R   0.129499 0.872598 0.004139 0.354779
C64   C     C_R   0.182854 0.236772 0.160776 0.355317
C65   C     C_R   0.294869 0.866389 0.216667 -0.155358
C66   C     C_R   0.314781 0.157684 0.250456 -0.196170
C67   C     C_R   0.794869 0.366389 0.216667 -0.155358
C68   C     C_R   0.814781 0.657684 0.250456 -0.196170
C69   C     C_R   0.783231 0.123929 0.833011 -0.344759
C70   C     C_R   0.735454 0.809943 0.720167 -0.186727
C71   C     C_R   0.283231 0.623929 0.833011 -0.344759
C72   C     C_R   0.235454 0.309943 0.720167 -0.186730
C73   C     C_R   0.359557 0.661933 0.947768 0.381693
C74   C     C_R   0.292368 0.250215 0.795122 0.244184
C75   C     C_R   0.859557 0.161933 0.947768 0.381692
C76   C     C_R   0.792369 0.750215 0.795123 0.244181
C77   C     C_R   0.346486 0.722741 0.000420 0.390490
C78   C     C_R   0.285413 0.212613 0.885060 0.388796
C79   C     C_R   0.846486 0.222741 0.000420 0.390491
C80   C     C_R   0.785414 0.712613 0.885061 0.388798
C81   C     C_R   0.754223 0.242230 0.943236 -0.146725
C82   C     C_R   0.726860 0.740611 0.909421 -0.018180
C83   C     C_R   0.254223 0.742229 0.943236 -0.146725
C84   C     C_R   0.226860 0.240611 0.909421 -0.018182
C85   C     C_R   0.677289 0.210347 0.812705 -0.047919
C86   C     C_R   0.656239 0.790110 0.810256 -0.065552
C87   C     C_R   0.177289 0.710347 0.812705 -0.047919
C88   C     C_R   0.156239 0.290110 0.810256 -0.065552
Cu1   Cu    Cu3+1 0.526340 0.000000 0.421010 1.027201
Cu2   Cu    Cu3+1 0.026340 0.500000 0.421010 1.027201
Cu3   Cu    Cu3+1 0.473640 0.000000 0.578990 1.065868
Cu4   Cu    Cu3+1 0.973640 0.500000 0.578990 1.065868
H1    H     H_    0.295238 0.987112 0.509147 0.220388
H2    H     H_    0.795238 0.487113 0.509147 0.220388
H3    H     H_    0.373086 0.782535 0.221497 0.215637
H4    H     H_    0.369738 0.170318 0.149413 0.247634
H5    H     H_    0.873086 0.282535 0.221496 0.215637
H6    H     H_    0.869738 0.670318 0.149414 0.247631
H7    H     H_    0.795181 0.074615 0.799793 0.227522
H8    H     H_    0.744849 0.839731 0.656584 0.246521
H9    H     H_    0.295181 0.574615 0.799793 0.227522
H10   H     H_    0.244848 0.339730 0.656583 0.246521
N1    N     N_R   0.566260 0.000000 0.302220 -0.282775
N2    N     N_R   0.066260 0.500000 0.302220 -0.282774
N3    N     N_R   0.434410 0.000000 0.697680 -0.196757
N4    N     N_R   0.934410 0.500000 0.697680 -0.196757
O1    O     O_R   0.608610 0.924520 0.551740 -0.554215
O2    O     O_R   0.608610 0.075480 0.551740 -0.561758
O3    O     O_R   0.108610 0.424520 0.551740 -0.554215
O4    O     O_R   0.108610 0.575480 0.551740 -0.561759
O5    O     O_R   0.564110 0.924510 0.685150 -0.492672
O6    O     O_R   0.564110 0.075490 0.685150 -0.506842
O7    O     O_R   0.064110 0.424510 0.685150 -0.492672
O8    O     O_R   0.064110 0.575490 0.685150 -0.506842
O9    O     O_R   0.435880 0.075470 0.314850 -0.594588
O10   O     O_R   0.435880 0.924530 0.314850 -0.607036
O11   O     O_R   0.935880 0.575470 0.314850 -0.594589
O12   O     O_R   0.935880 0.424530 0.314850 -0.607036
O13   O     O_R   0.391380 0.075460 0.448260 -0.522451
O14   O     O_R   0.391380 0.924540 0.448260 -0.541543
O15   O     O_R   0.891380 0.575460 0.448260 -0.522452
O16   O     O_R   0.891380 0.424540 0.448260 -0.541543
Br1   Br    Br    0.189667 0.981069 0.217431 -0.387312
Br2   Br    Br    0.258929 0.166363 0.420887 -0.308418
Br3   Br    Br    0.689667 0.481069 0.217432 -0.387312
Br4   Br    Br    0.758929 0.666363 0.420886 -0.308415
O17   O     O_3   0.737331 0.068278 0.143525 -0.638488
H11   H     H_    0.736923 0.092282 0.072683 0.331697
O18   O     O_3   0.237331 0.568278 0.143525 -0.638487
H12   H     H_    0.236923 0.592282 0.072684 0.331697
O19   O     O_3   0.783305 0.026479 0.369564 -0.593959
H13   H     H_    0.814266 0.051327 0.461262 0.365684
O20   O     O_3   0.283305 0.526478 0.369564 -0.593959
H14   H     H_    0.314266 0.551327 0.461262 0.365684
O21   O     O_3   0.408930 0.019864 0.086937 -0.644199
H15   H     H_    0.390821 0.994881 0.134048 0.375702
O22   O     O_3   0.908930 0.519864 0.086937 -0.644199
H16   H     H_    0.890821 0.494881 0.134048 0.375703
O23   O     O_3   0.350974 0.924684 0.907599 -0.697071
H17   H     H_    0.291802 0.898175 0.837717 0.354293
O24   O     O_3   0.850974 0.424685 0.907599 -0.697071
H18   H     H_    0.791802 0.398175 0.837716 0.354293
Br5   Br    Br    0.180081 0.943458 0.572601 -0.389620
Br6   Br    Br    0.680080 0.443459 0.572601 -0.389616
O25   O     O_3   0.641054 0.000167 0.884257 -0.707349
H19   H     H_    0.706345 0.984568 0.963722 0.328256
O26   O     O_3   0.141054 0.500167 0.884257 -0.707349
H20   H     H_    0.206345 0.484567 0.963722 0.328256
O27   O     O_3   0.486608 0.334363 0.709005 -0.634349
H21   H     H_    0.437017 0.300883 0.634907 0.378590
O28   O     O_3   0.509519 0.790903 0.907769 -0.658946
H22   H     H_    0.472237 0.832159 0.843985 0.325460
O29   O     O_3   0.986609 0.834364 0.709004 -0.634349
H23   H     H_    0.937018 0.800884 0.634906 0.378590
O30   O     O_3   0.009519 0.290904 0.907770 -0.658946
H24   H     H_    0.972238 0.332159 0.843986 0.325460
Br7   Br    Br    0.507080 0.409899 0.921416 -0.258711
Br8   Br    Br    0.624920 0.799600 0.208915 -0.323381
Br9   Br    Br    0.007080 0.909899 0.921416 -0.258712
Br10  Br    Br    0.124921 0.299600 0.208916 -0.323381
O31   O     O_3   0.423870 0.764860 0.097455 -0.641806
H25   H     H_    0.403286 0.816006 0.079354 0.365154
O32   O     O_3   0.326996 0.145781 0.937982 -0.684566
H26   H     H_    0.347988 0.126663 0.888789 0.371791
O33   O     O_3   0.923870 0.264860 0.097455 -0.641806
H27   H     H_    0.903285 0.316007 0.079353 0.365154
O34   O     O_3   0.826997 0.645781 0.937982 -0.684562
H28   H     H_    0.847999 0.626667 0.888802 0.371789
Br11  Br    Br    0.482242 0.629006 0.031799 -0.255673
Br12  Br    Br    0.384421 0.225050 0.781232 -0.445582
Br13  Br    Br    0.982242 0.129006 0.031799 -0.255674
Br14  Br    Br    0.884421 0.725051 0.781231 -0.445586
O35   O     O_3   0.521668 0.225393 0.589203 -0.750228
H29   H     H_    0.489688 0.270053 0.533967 0.345245
O36   O     O_3   0.490178 0.806693 0.662272 -0.707176
H30   H     H_    0.439994 0.785955 0.656703 0.342899
O37   O     O_3   0.021668 0.725394 0.589203 -0.750228
H31   H     H_    0.989689 0.770053 0.533967 0.345245
O38   O     O_3   0.990178 0.306694 0.662273 -0.707176
H32   H     H_    0.939994 0.285955 0.656703 0.342899
Br15  Br    Br    0.753218 0.989048 0.573828 -0.421180
Br16  Br    Br    0.253218 0.489048 0.573828 -0.421180

loop_
_geom_bond_atom_site_label_1
_geom_bond_atom_site_label_2
_ccdc_geom_bond_type
C83   C87   A    
Cu1   O9    S    
O33   H27   S    
C14   C18   A    
C53   C55   A    
C41   O15   A    
O32   H26   S    
C63   Br9   S    
O31   H25   S    
O21   H15   S    
C32   C72   A    
O35   H29   S    
C15   C19   A    
C2    O6    A    
C18   C86   A    
C75   C79   A    
C2    C29   S    
C17   C85   A    
Cu2   O12   S    
C4    O8    A    
C28   C68   A    
C5    C11   A    
C19   C87   A    
C6    C12   A    
C12   C64   A    
Cu1   Cu3   S    
C39   O13   A    
C55   O25   S    
C42   C67   S    
C77   C83   A    
Cu3   O5    S    
C6    C22   A    
C49   C57   A    
C76   Br14  S    
C25   C63   A    
C23   C67   A    
C59   Br15  S    
C26   C64   A    
C22   C66   A    
C9    C13   A    
C34   C52   A    
C27   C61   A    
O26   H20   S    
C11   C15   A    
C48   N4    A    
C12   C16   A    
C17   O35   S    
C44   O24   S    
C47   N3    A    
C14   O28   S    
C50   C52   A    
O28   H22   S    
C62   Br8   S    
C43   O23   S    
C30   C86   A    
C53   O17   S    
Cu4   O7    S    
C19   O37   S    
C80   O34   S    
C29   C85   A    
C48   C56   A    
C21   C65   A    
C18   O36   S    
C33   O19   S    
C45   C47   A    
C71   H9    S    
Cu1   O10   S    
C78   O32   S    
C33   C59   A    
Cu1   N1    S    
C34   C60   A    
Cu1   O1    S    
C10   C62   A    
C26   Br2   S    
C30   C70   A    
C44   C46   A    
O25   H19   S    
C41   C68   S    
C29   C69   A    
C35   H1    S    
C60   Br16  S    
C57   N1    A    
C46   C48   A    
C6    C84   A    
C28   C62   A    
C36   N4    A    
C26   C66   A    
Cu2   O11   S    
C76   C80   A    
C31   C87   A    
C72   C74   A    
C3    O7    A    
O34   H28   S    
C71   C73   A    
C42   O12   A    
C21   H3    S    
C34   O20   S    
C49   C51   A    
C82   C86   A    
C78   C84   A    
C33   C51   A    
O38   H32   S    
C51   C53   A    
C50   C58   A    
Cu3   O6    S    
C37   C43   A    
C5    C83   A    
C38   C44   A    
C35   N3    A    
C74   Br12  S    
C61   Br7   S    
C25   Br1   S    
Cu2   Cu4   S    
Cu3   N3    S    
C45   C49   A    
C16   C20   A    
C64   Br10  S    
C16   O30   S    
C52   C54   A    
C79   O33   S    
C43   C45   A    
Cu2   N2    S    
C1    O1    A    
C69   H7    S    
C58   O22   S    
C80   C82   A    
C23   H5    S    
C39   O9    A    
C40   C65   S    
O24   H18   S    
C75   Br13  S    
O20   H14   S    
C39   C66   S    
C9    C61   A    
C58   N2    A    
Cu2   O4    S    
C73   Br11  S    
O19   H13   S    
C40   O14   A    
C42   O16   A    
C47   C55   A    
O18   H12   S    
Cu4   N4    S    
C7    C9    A    
C54   O18   S    
C4    O4    A    
C37   Br5   S    
C7    C81   A    
C22   H4    S    
C84   C88   A    
O23   H17   S    
C54   C56   A    
C28   Br4   S    
O22   H16   S    
C46   C50   A    
C79   C81   A    
C13   C17   A    
C20   O38   S    
C59   N1    A    
C70   H8    S    
C56   O26   S    
C36   C38   A    
C38   Br6   S    
C13   O27   S    
C35   C37   A    
O36   H30   S    
C60   N2    A    
O27   H21   S    
C1    O5    A    
C70   C76   A    
C27   Br3   S    
C40   O10   A    
C72   H10   S    
C3    O3    A    
C7    C23   A    
C20   C88   A    
Cu1   O2    S    
C2    O2    A    
C1    C30   S    
C8    C24   A    
C77   O31   S    
Cu4   O16   S    
C69   C75   A    
Cu3   O13   S    
C3    C32   S    
C15   O29   S    
C4    C31   S    
C27   C67   A    
C24   C68   A    
C24   H6    S    
C36   H2    S    
C8    C82   A    
C5    C21   A    
C8    C10   A    
O37   H31   S    
C74   C78   A    
O30   H24   S    
C25   C65   A    
C73   C77   A    
Cu3   O14   S    
C57   O21   S    
Cu2   O3    S    
C41   O11   A    
O29   H23   S    
Cu4   O15   S    
C11   C63   A    
Cu4   O8    S    
C81   C85   A    
O17   H11   S    
C10   C14   A    
C31   C71   A    
C32   C88   A    
