data_mof_unit_40981.cif
_audit_creation_date              2012-10-26T20:21:41-0400
_audit_creation_method            fapswitch 2.2
_symmetry_space_group_name_H-M    P1
_symmetry_Int_Tables_number       1
_space_group_crystal_system       triclinic
_cell_length_a                    16.770004
_cell_length_b                    13.748353
_cell_length_c                    9.702651
_cell_angle_alpha                 90.000028
_cell_angle_beta                  90.000043
_cell_angle_gamma                 89.999954
_cell_volume                      2237.04258198

loop_
_atom_site_label
_atom_site_type_symbol
_atom_type_description
_atom_site_fract_x
_atom_site_fract_y
_atom_site_fract_z
_atom_type_partial_charge
C1    C     C_R   0.119748 0.382679 0.500248 0.576176
C2    C     C_R   0.000535 0.587843 0.924519 0.278837
C3    C     C_R   0.999464 0.587843 0.075481 0.278840
C4    C     C_R   0.999464 0.412157 0.924519 0.278838
C5    C     C_R   0.500536 0.912157 0.075481 0.278838
C6    C     C_R   0.500535 0.087843 0.924519 0.278837
C7    C     C_R   0.499464 0.087843 0.075481 0.278840
C8    C     C_R   0.499464 0.912157 0.924519 0.278838
C9    C     C_R   0.781632 0.282475 0.373309 -0.100172
C10   C     C_R   0.219823 0.715809 0.623222 -0.102286
C11   C     C_R   0.218365 0.717529 0.373309 -0.100167
C12   C     C_R   0.880252 0.617321 0.500248 0.576183
C13   C     C_R   0.780181 0.284185 0.623223 -0.102249
C14   C     C_R   0.218365 0.282471 0.626690 -0.100166
C15   C     C_R   0.780181 0.715815 0.376777 -0.102240
C16   C     C_R   0.781633 0.717525 0.626690 -0.100143
C17   C     C_R   0.219822 0.284189 0.376777 -0.102236
C18   C     C_R   0.281632 0.782475 0.373309 -0.100172
C19   C     C_R   0.719823 0.215809 0.623222 -0.102286
C20   C     C_R   0.718365 0.217529 0.373309 -0.100167
C21   C     C_R   0.280181 0.784185 0.623223 -0.102249
C22   C     C_R   0.718365 0.782471 0.626690 -0.100166
C23   C     C_R   0.880252 0.382679 0.499752 0.576145
C24   C     C_R   0.280181 0.215815 0.376777 -0.102240
C25   C     C_R   0.281633 0.217525 0.626690 -0.100143
C26   C     C_R   0.719822 0.784189 0.376777 -0.102236
C27   C     C_R   0.187108 0.683909 0.498661 0.003077
C28   C     C_R   0.812893 0.316089 0.498661 0.003108
C29   C     C_R   0.812893 0.683911 0.501338 0.003135
C30   C     C_R   0.187107 0.316089 0.501339 0.003118
C31   C     C_R   0.687108 0.183910 0.498661 0.003077
C32   C     C_R   0.312893 0.816089 0.498661 0.003108
C33   C     C_R   0.312893 0.183911 0.501338 0.003135
C34   C     C_R   0.119748 0.617321 0.499752 0.576107
C35   C     C_R   0.687107 0.816090 0.501339 0.003118
C36   C     C_R   0.619748 0.882679 0.500248 0.576176
C37   C     C_R   0.380252 0.117321 0.500248 0.576183
C38   C     C_R   0.380252 0.882679 0.499752 0.576145
C39   C     C_R   0.619748 0.117321 0.499752 0.576107
C40   C     C_R   0.000536 0.412157 0.075481 0.278838
Cu1   Cu    Cu3+1 0.000000 0.500000 0.640660 1.142674
Cu2   Cu    Cu3+1 0.000000 0.500000 0.359340 1.142683
Cu3   Cu    Cu3+1 0.500000 0.000000 0.640660 1.142674
Cu4   Cu    Cu3+1 0.500000 0.000000 0.359340 1.142683
H1    H     H_    0.014657 0.211001 0.353583 0.352747
H2    H     H_    0.198997 0.688081 0.720769 0.199395
H3    H     H_    0.194346 0.693540 0.275413 0.182679
H4    H     H_    0.801011 0.311908 0.720770 0.199397
H5    H     H_    0.194347 0.306460 0.724586 0.182673
H6    H     H_    0.801011 0.688093 0.279229 0.199390
H7    H     H_    0.805649 0.693533 0.724586 0.182670
H8    H     H_    0.198994 0.311915 0.279230 0.199390
H9    H     H_    0.305648 0.806468 0.275413 0.182669
H10   H     H_    0.698997 0.188081 0.720769 0.199395
H11   H     H_    0.694346 0.193540 0.275413 0.182679
H12   H     H_    0.014788 0.788952 0.646387 0.352742
H13   H     H_    0.301011 0.811908 0.720770 0.199397
H14   H     H_    0.694347 0.806460 0.724586 0.182673
H15   H     H_    0.301011 0.188093 0.279229 0.199390
H16   H     H_    0.305649 0.193533 0.724586 0.182670
H17   H     H_    0.698994 0.811915 0.279230 0.199390
H18   H     H_    0.985345 0.788999 0.353582 0.352756
H19   H     H_    0.985312 0.211009 0.646411 0.352739
H20   H     H_    0.514657 0.711001 0.353583 0.352747
H21   H     H_    0.514788 0.288952 0.646387 0.352742
H22   H     H_    0.485345 0.288999 0.353582 0.352756
H23   H     H_    0.485312 0.711009 0.646411 0.352739
H24   H     H_    0.805648 0.306468 0.275413 0.182669
N1    N     N_R   0.000000 0.500000 0.852070 -0.325601
N2    N     N_R   1.000000 0.500000 0.147930 -0.325602
N3    N     N_R   0.500000 0.000000 0.852070 -0.325601
N4    N     N_R   0.500000 0.000000 0.147930 -0.325602
O1    O     O_R   0.090170 0.409820 0.618740 -0.459713
O2    O     O_R   0.409830 0.090180 0.381260 -0.456888
O3    O     O_R   0.409830 0.090180 0.618740 -0.459711
O4    O     O_R   0.590170 0.909820 0.381260 -0.456881
O5    O     O_R   0.409830 0.909820 0.381260 -0.459720
O6    O     O_R   0.590170 0.090180 0.618740 -0.456918
O7    O     O_R   0.590170 0.090180 0.381260 -0.459710
O8    O     O_R   0.409830 0.909820 0.618740 -0.456896
O9    O     O_2   0.948977 0.223734 0.108919 -0.200494
O10   O     O_2   0.091319 0.256193 0.132572 -0.280869
O11   O     O_3   0.999263 0.279311 0.334712 -0.494406
O12   O     O_R   0.909830 0.590180 0.381260 -0.456888
O13   O     O_2   0.948987 0.776273 0.891083 -0.200399
O14   O     O_2   0.091326 0.743797 0.867429 -0.280946
O15   O     O_3   0.999262 0.720690 0.665290 -0.494392
O16   O     O_2   0.051029 0.776262 0.108920 -0.200502
O17   O     O_2   0.908685 0.743811 0.132567 -0.280871
O18   O     O_3   0.000737 0.720689 0.334713 -0.494422
O19   O     O_2   0.051025 0.223734 0.891081 -0.200480
O20   O     O_2   0.908682 0.256193 0.867430 -0.280883
O21   O     O_3   0.000737 0.279311 0.665288 -0.494392
O22   O     O_2   0.448977 0.723734 0.108919 -0.200494
O23   O     O_R   0.909830 0.590180 0.618740 -0.459711
O24   O     O_2   0.591319 0.756193 0.132572 -0.280869
O25   O     O_3   0.499263 0.779311 0.334712 -0.494406
O26   O     O_2   0.448987 0.276273 0.891083 -0.200399
O27   O     O_2   0.591326 0.243797 0.867429 -0.280946
O28   O     O_3   0.499262 0.220690 0.665290 -0.494392
O29   O     O_2   0.551029 0.276262 0.108920 -0.200502
O30   O     O_2   0.408685 0.243811 0.132567 -0.280871
O31   O     O_3   0.500737 0.220689 0.334713 -0.494422
O32   O     O_2   0.551025 0.723734 0.891081 -0.200480
O33   O     O_2   0.408682 0.756193 0.867430 -0.280883
O34   O     O_R   0.090170 0.409820 0.381260 -0.456881
O35   O     O_3   0.500737 0.779311 0.665288 -0.494392
O36   O     O_R   0.909830 0.409820 0.381260 -0.459720
O37   O     O_R   0.090170 0.590180 0.618740 -0.456918
O38   O     O_R   0.090170 0.590180 0.381260 -0.459710
O39   O     O_R   0.909830 0.409820 0.618740 -0.456896
O40   O     O_R   0.590170 0.909820 0.618740 -0.459713
S1    S     S_3+6 0.009351 0.293910 0.164410 0.093336
S2    S     S_3+6 0.009355 0.706090 0.835591 0.093345
S3    S     S_3+6 0.990651 0.706090 0.164409 0.093330
S4    S     S_3+6 0.990649 0.293910 0.835591 0.093337
S5    S     S_3+6 0.509351 0.793910 0.164410 0.093336
S6    S     S_3+6 0.509355 0.206090 0.835591 0.093345
S7    S     S_3+6 0.490651 0.206090 0.164409 0.093330
S8    S     S_3+6 0.490650 0.793910 0.835591 0.093337

loop_
_geom_bond_atom_site_label_1
_geom_bond_atom_site_label_2
_ccdc_geom_bond_type
C10   C27   A    
C37   O2    A    
O17   S3    D    
C11   C18   A    
C12   C29   S    
Cu1   Cu2   S    
O11   S1    S    
C11   H3    S    
C35   C36   S    
C16   H7    S    
C19   C31   A    
O35   S8    S    
Cu3   O6    S    
C22   C35   A    
C40   N2    A    
Cu4   O5    S    
C26   H17   S    
C5    N4    A    
O22   S5    D    
C14   H5    S    
Cu2   N2    S    
O19   S4    D    
C12   O12   A    
C15   H6    S    
Cu4   O4    S    
O15   S2    S    
C36   O4    A    
C18   H9    S    
C4    C40   A    
C36   O40   A    
C16   C22   A    
C13   C28   A    
O26   S6    D    
C25   H16   S    
C32   C38   S    
C2    N1    A    
C1    O34   A    
C37   O3    A    
C10   C21   A    
Cu1   O37   S    
C17   C30   A    
H1    O11   S    
C14   C30   A    
C20   H11   S    
C17   H8    S    
C4    N1    A    
C15   C29   A    
C27   C34   S    
Cu3   O3    S    
C6    N3    A    
C21   C32   A    
C17   C24   A    
C13   C19   A    
O29   S7    D    
C39   O6    A    
C7    S7    S    
O24   S5    D    
C3    N2    A    
Cu2   O12   S    
O10   S1    D    
C7    N4    A    
C15   C26   A    
Cu3   O8    S    
C23   C28   S    
C33   C37   S    
C5    S5    S    
O21   S4    S    
C39   O7    A    
Cu3   Cu4   S    
C21   H13   S    
C5    C8    A    
O20   S4    D    
C9    C20   A    
C40   S1    S    
C11   C27   A    
O33   S8    D    
O18   S3    S    
Cu4   O2    S    
Cu2   O34   S    
C19   H10   S    
H20   O25   S    
C34   O38   A    
C12   O23   A    
C18   C32   A    
Cu3   O40   S    
C10   H2    S    
C8    S8    S    
Cu1   N1    S    
O13   S2    D    
C8    N3    A    
Cu3   N3    S    
H22   O31   S    
C4    S4    S    
Cu4   O7    S    
O31   S7    S    
H21   O28   S    
H12   O15   S    
C22   H14   S    
C13   H4    S    
C6    C7    A    
C38   O5    A    
C23   O39   A    
H19   O21   S    
C24   C33   A    
O14   S2    D    
C1    O1    A    
O16   S3    D    
C2    C3    A    
Cu2   O38   S    
C9    H24   S    
C3    S3    S    
O27   S6    D    
C2    S2    S    
H23   O35   S    
Cu1   O23   S    
C38   O8    A    
C24   H15   S    
C23   O36   A    
H18   O18   S    
C1    C30   S    
C31   C39   S    
Cu4   N4    S    
C14   C25   A    
O25   S5    S    
Cu1   O1    S    
C26   C35   A    
O28   S6    S    
C16   C29   A    
Cu1   O39   S    
O9    S1    D    
C34   O37   A    
Cu2   O36   S    
C6    S6    S    
O30   S7    D    
C9    C28   A    
C25   C33   A    
O32   S8    D    
C20   C31   A    
