data_mof_unit_9181.cif
_audit_creation_date              2012-10-26T21:33:15-0400
_audit_creation_method            fapswitch 2.2
_symmetry_space_group_name_H-M    P1
_symmetry_Int_Tables_number       1
_space_group_crystal_system       triclinic
_cell_length_a                    28.374185
_cell_length_b                    18.468844
_cell_length_c                    17.024105
_cell_angle_alpha                 89.658273
_cell_angle_beta                  60.502039
_cell_angle_gamma                 89.529998
_cell_volume                      7764.56702819

loop_
_atom_site_label
_atom_site_type_symbol
_atom_type_description
_atom_site_fract_x
_atom_site_fract_y
_atom_site_fract_z
_atom_type_partial_charge
C1    C     C_R   0.704393 0.274035 0.674174 0.930815
C2    C     C_R   0.081457 0.501097 0.556385 0.062123
C3    C     C_R   0.195345 0.209091 0.896128 0.000232
C4    C     C_R   0.076964 0.095536 0.930232 0.960236
C5    C     C_R   0.928208 0.898006 0.064243 0.940894
C6    C     C_R   0.922659 0.094974 0.070011 0.951439
C7    C     C_R   0.072215 0.898447 0.935540 0.940964
C8    C     C_R   0.577105 0.595327 0.930034 0.963229
C9    C     C_R   0.428228 0.398000 0.064225 0.940945
C10   C     C_R   0.422719 0.595044 0.069973 0.950778
C11   C     C_R   0.571836 0.398001 0.935892 0.939242
C12   C     C_R   0.539399 0.131709 0.529102 0.088319
C13   C     C_R   0.403376 0.000195 0.493737 0.058018
C14   C     C_R   0.429457 0.875312 0.561961 0.102501
C15   C     C_R   0.461288 0.128421 0.473337 0.101898
C16   C     C_R   0.522992 0.872840 0.580907 0.108444
C17   C     C_R   0.039852 0.631592 0.527559 0.088485
C18   C     C_R   0.929307 0.375471 0.562168 0.103884
C19   C     C_R   0.961715 0.628232 0.471890 0.101845
C20   C     C_R   0.022950 0.372922 0.580829 0.108707
C21   C     C_R   0.522976 0.196068 0.505001 -0.204326
C22   C     C_R   0.443638 0.812616 0.593150 -0.196964
C23   C     C_R   0.485765 0.193993 0.473787 -0.200339
C24   C     C_R   0.581292 0.001124 0.557067 0.062427
C25   C     C_R   0.490654 0.810915 0.600710 -0.208727
C26   C     C_R   0.023568 0.695894 0.503103 -0.203773
C27   C     C_R   0.943378 0.312868 0.593680 -0.196580
C28   C     C_R   0.986341 0.693771 0.471937 -0.200780
C29   C     C_R   0.990450 0.311117 0.601088 -0.209872
C30   C     C_R   0.475576 0.064595 0.502114 0.026816
C31   C     C_R   0.506955 0.936814 0.555110 0.032402
C32   C     C_R   0.516916 0.065714 0.525125 0.030275
C33   C     C_R   0.461562 0.937227 0.541763 0.038748
C34   C     C_R   0.975937 0.564451 0.500891 0.026560
C35   C     C_R   0.071057 0.371954 0.585757 -0.250107
C36   C     C_R   0.007033 0.436822 0.554682 0.032557
C37   C     C_R   0.017294 0.565597 0.523846 0.029524
C38   C     C_R   0.961589 0.437258 0.541472 0.038637
C39   C     C_R   0.947539 0.500274 0.510365 -0.059451
C40   C     C_R   0.035137 0.501107 0.545388 -0.057896
C41   C     C_R   0.447391 0.000324 0.510994 -0.060049
C42   C     C_R   0.534914 0.001160 0.546232 -0.057798
C43   C     C_R   0.872343 0.437073 0.509679 0.052052
C44   C     C_R   0.106282 0.567266 0.555220 0.053371
C45   C     C_R   0.103290 0.434947 0.566674 0.062326
C46   C     C_R   0.921577 0.626228 0.447004 -0.262784
C47   C     C_R   0.888941 0.564139 0.463840 0.057373
C48   C     C_R   0.372418 0.936995 0.509656 0.052919
C49   C     C_R   0.606102 0.067291 0.555984 0.053470
C50   C     C_R   0.603233 0.934943 0.567007 0.062084
C51   C     C_R   0.388835 0.064199 0.464372 0.057086
C52   C     C_R   0.831349 0.436913 0.483600 -0.106440
C53   C     C_R   0.157294 0.565481 0.553642 -0.108525
C54   C     C_R   0.156091 0.435170 0.558335 -0.113299
C55   C     C_R   0.840830 0.564072 0.456234 -0.110489
C56   C     C_R   0.331402 0.936883 0.483591 -0.106635
C57   C     C_R   0.883335 0.377311 0.551722 -0.251830
C58   C     C_R   0.657230 0.065495 0.553986 -0.108549
C59   C     C_R   0.656082 0.935167 0.558467 -0.113208
C60   C     C_R   0.340795 0.064085 0.456506 -0.109842
C61   C     C_R   0.816901 0.499746 0.456796 -0.325243
C62   C     C_R   0.180036 0.500149 0.557822 -0.322980
C63   C     C_R   0.316891 0.999754 0.456978 -0.323422
C64   C     C_R   0.680046 0.000148 0.557908 -0.322771
C65   C     C_3   0.730158 0.101917 0.872523 0.076887
C66   C     C_3   0.740335 0.034899 0.915517 -0.361143
C67   C     C_3   0.704216 0.971911 0.921498 -0.938744
C68   C     C_R   0.079286 0.632150 0.553599 -0.265965
C69   C     C_3   0.170975 0.703706 0.246291 0.102088
C70   C     C_3   0.122851 0.670471 0.241983 -0.396720
C71   C     C_3   0.110321 0.594840 0.283600 -0.930312
C72   C     C_3   0.266135 0.098813 0.113537 0.065187
C73   C     C_3   0.245745 0.041910 0.188492 -0.310502
C74   C     C_3   0.280992 0.973719 0.158216 -0.955995
C75   C     C_3   0.826825 0.708871 0.755517 0.103755
C76   C     C_3   0.874894 0.674374 0.760019 -0.399101
C77   C     C_3   0.885188 0.597374 0.723267 -0.935299
C78   C     C_3   0.232943 0.604566 0.868784 0.075089
C79   C     C_R   0.571073 0.871901 0.585894 -0.250377
C80   C     C_3   0.243333 0.537386 0.911281 -0.361652
C81   C     C_3   0.207939 0.473992 0.915660 -0.938713
C82   C     C_3   0.670681 0.205321 0.246736 0.101443
C83   C     C_3   0.622373 0.172141 0.242955 -0.397088
C84   C     C_3   0.609760 0.096644 0.284957 -0.930120
C85   C     C_3   0.771315 0.603924 0.126639 0.079105
C86   C     C_3   0.761354 0.537285 0.083882 -0.359617
C87   C     C_3   0.798900 0.474565 0.075501 -0.944590
C88   C     C_3   0.325688 0.206496 0.757282 0.104048
C89   C     C_3   0.373860 0.172134 0.761532 -0.398540
C90   C     C_R   0.421343 0.126378 0.448011 -0.262121
C91   C     C_3   0.383737 0.094782 0.725862 -0.937778
C92   C     C_3   0.576996 0.235052 0.079675 0.084087
C93   C     C_3   0.529292 0.214300 0.066864 -0.386039
C94   C     C_3   0.504419 0.142804 0.114069 -0.947095
C95   C     C_3   0.284913 0.549328 0.101392 0.049883
C96   C     C_3   0.286850 0.471294 0.071137 -0.301234
C97   C     C_3   0.232566 0.434021 0.129012 -0.976661
C98   C     C_3   0.422352 0.239043 0.917827 0.081980
C99   C     C_3   0.471793 0.218075 0.926221 -0.384085
C100  C     C_3   0.497513 0.147867 0.875764 -0.943638
C101  C     C_R   0.383524 0.877122 0.551416 -0.250816
C102  C     C_3   0.713529 0.550079 0.900841 0.053304
C103  C     C_3   0.711442 0.472075 0.932349 -0.304146
C104  C     C_3   0.764632 0.432449 0.872056 -0.976585
C105  C     C_3   0.078230 0.735582 0.077595 0.082613
C106  C     C_3   0.030399 0.715254 0.064953 -0.383790
C107  C     C_3   0.006097 0.643034 0.110488 -0.949243
C108  C     C_3   0.784582 0.048920 0.102727 0.049669
C109  C     C_3   0.786308 0.970848 0.072783 -0.302209
C110  C     C_3   0.732181 0.933479 0.131551 -0.974726
C111  C     C_3   0.922073 0.739616 0.918060 0.083360
C112  C     C_R   0.300430 0.736420 0.323155 0.949643
C113  C     C_R   0.578993 0.132191 0.554812 -0.266116
C114  C     C_3   0.971559 0.719049 0.926506 -0.385634
C115  C     C_3   0.997145 0.648507 0.876842 -0.943273
C116  C     C_3   0.206956 0.050557 0.920975 0.069765
C117  C     C_3   0.206157 0.983038 0.973832 -0.304424
C118  C     C_3   0.258547 0.939476 0.922131 -0.985037
C119  C     C_3   0.668069 0.448402 0.725453 0.121728
C120  C     C_3   0.647907 0.507654 0.685803 -0.306918
C121  C     C_3   0.649408 0.484093 0.598921 -0.756587
C122  C     C_3   0.451410 0.733671 0.163762 0.112370
C123  C     C_3   0.496460 0.719096 0.186495 -0.299491
C124  C     C_R   0.709746 0.247523 0.966010 -0.082880
C125  C     C_3   0.546151 0.765529 0.129058 -0.956077
C126  C     C_3   0.332655 0.447180 0.275006 0.128337
C127  C     C_3   0.353285 0.505246 0.314249 -0.311935
C128  C     C_3   0.353490 0.479890 0.399487 -0.758084
C129  C     C_3   0.563636 0.747831 0.793577 0.140098
C130  C     C_3   0.515883 0.756190 0.889656 -0.392248
C131  C     C_3   0.480565 0.821375 0.897084 -0.951903
C132  C     C_3   0.166970 0.949152 0.723881 0.128793
C133  C     C_3   0.145785 0.006964 0.684101 -0.302990
C134  C     C_3   0.147838 0.982215 0.597173 -0.767253
C135  C     C_R   0.268115 0.718128 0.062002 -0.066788
C136  C     C_3   0.951187 0.234075 0.163655 0.111688
C137  C     C_3   0.996409 0.219613 0.186018 -0.299408
C138  C     C_3   0.045758 0.266757 0.129092 -0.953169
C139  C     C_3   0.833395 0.947555 0.275023 0.129756
C140  C     C_3   0.854419 0.004985 0.314397 -0.311192
C141  C     C_3   0.853957 0.979262 0.400054 -0.761162
C142  C     C_3   0.063884 0.246407 0.792297 0.140839
C143  C     C_3   0.015820 0.254622 0.888116 -0.391923
C144  C     C_3   0.980384 0.319539 0.895060 -0.952399
C145  C     C_R   0.288924 0.251499 0.034999 -0.075216
C146  C     C_R   0.730468 0.720365 0.939956 -0.063064
C147  C     C_R   0.210926 0.749192 0.965086 -0.065552
C148  C     C_R   0.767603 0.217608 0.062243 -0.067440
C149  C     C_R   0.789029 0.750509 0.035059 -0.081787
C150  C     C_R   0.228998 0.223842 0.941620 -0.058984
C151  C     C_R   0.753743 0.197319 0.932260 0.473335
C152  C     C_R   0.295778 0.273690 0.325785 0.946131
C153  C     C_R   0.217373 0.754475 0.104303 0.475294
C154  C     C_R   0.243667 0.204206 0.070939 0.448143
C155  C     C_R   0.780311 0.758469 0.897904 0.478081
C156  C     C_R   0.255324 0.699600 0.930731 0.475244
C157  C     C_R   0.717220 0.254951 0.104102 0.478639
C158  C     C_R   0.745661 0.699900 0.069075 0.474965
C159  C     C_R   0.280036 0.259100 0.897984 0.475759
C160  C     C_R   0.785457 0.191076 0.974360 -0.284423
C161  C     C_R   0.194309 0.777637 0.052041 -0.335153
C162  C     C_R   0.210885 0.199961 0.030747 -0.284629
C163  C     C_R   0.699641 0.736125 0.676674 0.905739
C164  C     C_R   0.803573 0.781300 0.949796 -0.324469
C165  C     C_R   0.286628 0.692810 0.973457 -0.283281
C166  C     C_R   0.694131 0.277808 0.051696 -0.323150
C167  C     C_R   0.713564 0.693440 0.027614 -0.289955
C168  C     C_R   0.304141 0.281245 0.948910 -0.328553
C169  C     C_R   0.629834 0.304720 0.953378 0.398836
C170  C     C_R   0.338785 0.646353 0.082168 0.390668
C171  C     C_R   0.369798 0.306465 0.046288 0.398467
C172  C     C_R   0.659893 0.648281 0.920135 0.386630
C173  C     C_R   0.131045 0.806458 0.952491 0.396615
C174  C     C_R   0.204673 0.774581 0.673920 0.933685
C175  C     C_R   0.838554 0.146059 0.082350 0.391979
C176  C     C_R   0.869397 0.806862 0.046615 0.399590
C177  C     C_R   0.158670 0.150315 0.922699 0.378392
C178  C     C_R   0.614819 0.345813 0.898175 -0.288642
C179  C     C_R   0.378342 0.645636 0.109749 -0.285270
C180  C     C_R   0.385330 0.345922 0.101613 -0.290556
C181  C     C_R   0.621123 0.646315 0.890521 -0.284358
C182  C     C_R   0.115715 0.847181 0.897489 -0.276858
C183  C     C_R   0.878210 0.145512 0.109772 -0.284695
C184  C     C_R   0.885160 0.846139 0.101783 -0.290949
C185  C     C_R   0.800400 0.236362 0.323129 0.949345
C186  C     C_R   0.120915 0.146620 0.890967 -0.285163
C187  C     C_R   0.644171 0.342496 0.805377 0.356522
C188  C     C_R   0.372671 0.689455 0.180008 0.333207
C189  C     C_R   0.356218 0.341818 0.194303 0.351361
C190  C     C_R   0.626716 0.689806 0.819717 0.360128
C191  C     C_R   0.144761 0.843687 0.804712 0.351770
C192  C     C_R   0.872571 0.189410 0.179919 0.333152
C193  C     C_R   0.856107 0.842138 0.194495 0.351971
C194  C     C_R   0.126950 0.189215 0.819236 0.360840
C195  C     C_R   0.684356 0.291971 0.767582 -0.207887
C196  C     C_R   0.795542 0.774141 0.325966 0.944166
C197  C     C_R   0.325270 0.728375 0.225595 -0.200291
C198  C     C_R   0.316091 0.291657 0.232101 -0.215225
C199  C     C_R   0.673891 0.729089 0.774712 -0.216981
C200  C     C_R   0.185155 0.793471 0.766885 -0.210832
C201  C     C_R   0.825166 0.228279 0.225536 -0.201264
C202  C     C_R   0.815584 0.792567 0.232477 -0.212047
C203  C     C_R   0.173959 0.228802 0.774505 -0.216549
C204  C     C_R   0.707889 0.263713 0.817634 -0.336342
C205  C     C_R   0.295986 0.746921 0.180906 -0.331310
C206  C     C_R   0.292715 0.263933 0.182033 -0.316090
C207  C     C_R   0.199686 0.236019 0.676612 0.906431
C208  C     C_R   0.702005 0.748693 0.820684 -0.325598
C209  C     C_R   0.209196 0.766121 0.816592 -0.345449
C210  C     C_R   0.795841 0.246772 0.180845 -0.332813
C211  C     C_R   0.791833 0.765581 0.182634 -0.328514
C212  C     C_R   0.201741 0.249193 0.820681 -0.324018
C213  C     C_R   0.691780 0.129157 0.533297 0.896039
C214  C     C_R   0.303628 0.872035 0.481933 0.876043
C215  C     C_R   0.308415 0.129129 0.467004 0.888777
C216  C     C_R   0.691062 0.870537 0.535671 0.856784
C217  C     C_R   0.191809 0.629140 0.533169 0.897092
C218  C     C_R   0.903435 0.500183 0.493366 0.058732
C219  C     C_R   0.803599 0.372039 0.481990 0.876149
C220  C     C_R   0.808431 0.629138 0.466914 0.887902
C221  C     C_R   0.191060 0.370537 0.535660 0.857245
C222  C     C_R   0.681855 0.270833 0.912573 0.014305
C223  C     C_R   0.301815 0.705029 0.107575 0.001656
C224  C     C_R   0.317948 0.272615 0.087301 0.014282
C225  C     C_R   0.696351 0.707163 0.894776 -0.000356
C226  C     C_R   0.183225 0.773071 0.911560 0.017769
C227  C     C_R   0.801536 0.204736 0.107636 0.000547
C228  C     C_R   0.817425 0.773321 0.087782 0.010817
H1    H     H_    0.001288 0.261580 0.622942 0.140356
H2    H     H_    0.219292 0.499816 0.553920 0.190512
H3    H     H_    0.249528 0.576869 0.103012 0.146739
H4    H     H_    0.278796 0.548124 0.171420 0.108911
H5    H     H_    0.297121 0.469876 0.999287 0.235904
H6    H     H_    0.318915 0.441660 0.077293 0.224363
H7    H     H_    0.222963 0.431828 0.200619 0.263874
H8    H     H_    0.234191 0.378088 0.104832 0.284052
H9    H     H_    0.199774 0.463470 0.124278 0.263749
H10   H     H_    0.434600 0.241101 0.845064 0.172829
H11   H     H_    0.390894 0.196368 0.949020 0.118564
H12   H     H_    0.502208 0.262183 0.898761 0.236941
H13   H     H_    0.283994 0.999530 0.441815 0.188618
H14   H     H_    0.458555 0.210474 0.998752 0.209945
H15   H     H_    0.467870 0.102939 0.903278 0.262884
H16   H     H_    0.532995 0.133519 0.883741 0.263681
H17   H     H_    0.511455 0.154476 0.802647 0.268886
H18   H     H_    0.749588 0.576745 0.896829 0.145750
H19   H     H_    0.718488 0.548634 0.831578 0.109479
H20   H     H_    0.703376 0.471137 0.003077 0.233783
H21   H     H_    0.677845 0.443705 0.930281 0.227326
H22   H     H_    0.772013 0.429713 0.801691 0.261855
H23   H     H_    0.762910 0.376634 0.897351 0.283880
H24   H     H_    0.719371 0.999810 0.553744 0.190590
H25   H     H_    0.798894 0.460502 0.872712 0.264807
H26   H     H_    0.064414 0.735571 0.150981 0.171437
H27   H     H_    0.110577 0.693599 0.046518 0.120596
H28   H     H_    0.998770 0.758260 0.093901 0.234006
H29   H     H_    0.044929 0.710798 0.991624 0.210376
H30   H     H_    0.037017 0.599246 0.081385 0.262894
H31   H     H_    0.971710 0.629184 0.099717 0.264578
H32   H     H_    0.990885 0.646485 0.184270 0.266894
H33   H     H_    0.749076 0.076469 0.104779 0.146764
H34   H     H_    0.778811 0.047850 0.172537 0.109290
H35   H     H_    0.081707 0.322432 0.607468 0.161299
H36   H     H_    0.796078 0.969332 0.001187 0.235147
H37   H     H_    0.818661 0.941360 0.078212 0.225020
H38   H     H_    0.723209 0.931155 0.202830 0.264115
H39   H     H_    0.733638 0.877577 0.107347 0.284348
H40   H     H_    0.699057 0.962947 0.127853 0.263352
H41   H     H_    0.934403 0.741664 0.845274 0.172909
H42   H     H_    0.890778 0.696756 0.949126 0.119534
H43   H     H_    0.002005 0.763088 0.898402 0.237199
H44   H     H_    0.958433 0.712072 0.999080 0.209522
H45   H     H_    0.967470 0.603656 0.905084 0.262548
H46   H     H_    0.916583 0.673812 0.414583 0.180158
H47   H     H_    0.032717 0.634456 0.884688 0.264326
H48   H     H_    0.010919 0.654478 0.803710 0.268914
H49   H     H_    0.244665 0.080886 0.902804 0.140740
H50   H     H_    0.207621 0.033191 0.857880 0.109549
H51   H     H_    0.201323 0.999210 0.040172 0.230628
H52   H     H_    0.171193 0.948642 0.986255 0.242816
H53   H     H_    0.262307 0.918423 0.858270 0.271814
H54   H     H_    0.258584 0.893233 0.963831 0.280302
H55   H     H_    0.294127 0.973673 0.906599 0.256610
H56   H     H_    0.710013 0.432206 0.674435 0.117037
H57   H     H_    0.856212 0.332074 0.579569 0.180709
H58   H     H_    0.668968 0.472333 0.784635 0.069323
H59   H     H_    0.605648 0.522426 0.735610 0.259983
H60   H     H_    0.673479 0.556505 0.671815 0.191933
H61   H     H_    0.691658 0.473878 0.545746 0.253986
H62   H     H_    0.632393 0.527936 0.575225 0.218850
H63   H     H_    0.625069 0.434401 0.610278 0.273373
H64   H     H_    0.436825 0.790523 0.182104 0.132508
H65   H     H_    0.468652 0.726486 0.089636 0.115174
H66   H     H_    0.481226 0.730833 0.259059 0.221334
H67   H     H_    0.508513 0.661054 0.174229 0.242360
H68   H     H_    0.087122 0.684228 0.572561 0.190709
H69   H     H_    0.563075 0.752779 0.056361 0.256475
H70   H     H_    0.577778 0.754137 0.147948 0.273251
H71   H     H_    0.535293 0.823933 0.140249 0.263993
H72   H     H_    0.290861 0.431424 0.326609 0.127073
H73   H     H_    0.331225 0.472067 0.216412 0.067636
H74   H     H_    0.395138 0.520329 0.263436 0.257802
H75   H     H_    0.327209 0.554277 0.330151 0.188129
H76   H     H_    0.311733 0.468604 0.453537 0.254839
H77   H     H_    0.370348 0.523184 0.423270 0.217245
H78   H     H_    0.378822 0.430412 0.385932 0.273855
H79   H     H_    0.581777 0.822329 0.607420 0.161718
H80   H     H_    0.547442 0.745380 0.746088 0.153500
H81   H     H_    0.590300 0.796284 0.773887 0.105834
H82   H     H_    0.490714 0.706544 0.909024 0.241449
H83   H     H_    0.531556 0.763394 0.937353 0.196202
H84   H     H_    0.504715 0.871879 0.879288 0.266538
H85   H     H_    0.446631 0.825922 0.967478 0.262714
H86   H     H_    0.463430 0.814884 0.851273 0.270757
H87   H     H_    0.209013 0.933548 0.672641 0.116600
H88   H     H_    0.167870 0.974156 0.782522 0.061232
H89   H     H_    0.103262 0.020671 0.733930 0.258424
H90   H     H_    0.416452 0.173998 0.415542 0.180210
H91   H     H_    0.170496 0.056696 0.669989 0.195196
H92   H     H_    0.190317 0.973379 0.543963 0.254321
H93   H     H_    0.129896 0.024835 0.573497 0.217597
H94   H     H_    0.124592 0.931466 0.608495 0.274812
H95   H     H_    0.936405 0.290829 0.182411 0.132492
H96   H     H_    0.968343 0.227160 0.089483 0.115007
H97   H     H_    0.981183 0.230766 0.258727 0.221008
H98   H     H_    0.008845 0.161721 0.172933 0.243352
H99   H     H_    0.062652 0.254674 0.056221 0.257439
H100  H     H_    0.077533 0.255394 0.147654 0.272035
H101  H     H_    0.356510 0.831765 0.579060 0.180522
H102  H     H_    0.034516 0.325019 0.141191 0.263259
H103  H     H_    0.791452 0.932281 0.326512 0.126435
H104  H     H_    0.832247 0.972802 0.216360 0.068137
H105  H     H_    0.896513 0.019336 0.263827 0.257172
H106  H     H_    0.828889 0.054525 0.329864 0.189375
H107  H     H_    0.811973 0.968780 0.453842 0.254973
H108  H     H_    0.871163 0.022023 0.423934 0.217017
H109  H     H_    0.878670 0.929224 0.386979 0.274206
H110  H     H_    0.047989 0.243592 0.744415 0.152964
H111  H     H_    0.090306 0.295098 0.772850 0.105818
H112  H     H_    0.975372 0.743699 0.451050 0.139848
H113  H     H_    0.586950 0.184213 0.573745 0.190459
H114  H     H_    0.990824 0.204822 0.907223 0.242367
H115  H     H_    0.031160 0.262077 0.936234 0.195910
H116  H     H_    0.004351 0.370206 0.877500 0.266513
H117  H     H_    0.946221 0.324000 0.965274 0.263272
H118  H     H_    0.963571 0.312777 0.848823 0.270752
H119  H     H_    0.662474 0.317875 0.081753 0.238488
H120  H     H_    0.324812 0.664367 0.937182 0.227688
H121  H     H_    0.336564 0.319539 0.916924 0.238916
H122  H     H_    0.676146 0.663948 0.064138 0.229515
H123  H     H_    0.162317 0.817138 0.082870 0.240163
H124  H     H_    0.823403 0.162110 0.938160 0.228657
H125  H     H_    0.834803 0.821453 0.919424 0.238260
H126  H     H_    0.172339 0.173444 0.069130 0.230488
H127  H     H_    0.747144 0.238836 0.780452 0.248513
H128  H     H_    0.918755 0.264638 0.610339 0.149082
H129  H     H_    0.265955 0.789384 0.208808 0.239415
H130  H     H_    0.253912 0.238528 0.219312 0.255395
H131  H     H_    0.731352 0.791510 0.792825 0.240755
H132  H     H_    0.248593 0.741715 0.779132 0.249012
H133  H     H_    0.765906 0.289354 0.208686 0.241545
H134  H     H_    0.752626 0.741144 0.219929 0.252136
H135  H     H_    0.231185 0.291904 0.792505 0.240388
H136  H     H_    0.734431 0.086334 0.806378 0.176138
H137  H     H_    0.687619 0.121186 0.914827 0.123046
H138  H     H_    0.783453 0.017999 0.874987 0.245311
H139  H     H_    0.041205 0.747310 0.504660 0.140822
H140  H     H_    0.731693 0.048755 0.984634 0.215603
H141  H     H_    0.660864 0.987355 0.962906 0.258110
H142  H     H_    0.712496 0.924653 0.953654 0.277951
H143  H     H_    0.712577 0.955886 0.853004 0.267699
H144  H     H_    0.157659 0.716553 0.317932 0.177531
H145  H     H_    0.203984 0.663063 0.225821 0.128621
H146  H     H_    0.086709 0.706002 0.278517 0.230142
H147  H     H_    0.132174 0.665473 0.170871 0.208786
H148  H     H_    0.143241 0.556638 0.240178 0.254499
H149  H     H_    0.071686 0.575476 0.289778 0.271998
H150  H     H_    0.501590 0.761313 0.622288 0.140926
H151  H     H_    0.106838 0.595342 0.351286 0.277478
H152  H     H_    0.307723 0.115244 0.096901 0.142698
H153  H     H_    0.267830 0.073944 0.052594 0.142001
H154  H     H_    0.245929 0.064857 0.248576 0.227010
H155  H     H_    0.203467 0.027141 0.207964 0.231184
H156  H     H_    0.280014 0.948656 0.099857 0.272792
H157  H     H_    0.265417 0.933936 0.214496 0.271600
H158  H     H_    0.323481 0.986987 0.138783 0.260116
H159  H     H_    0.840296 0.722429 0.683890 0.178392
H160  H     H_    0.794043 0.668586 0.775287 0.133084
H161  H     H_    0.474741 0.243961 0.453067 0.140194
H162  H     H_    0.911669 0.707661 0.720178 0.229324
H163  H     H_    0.866537 0.671425 0.830762 0.211407
H164  H     H_    0.852435 0.561144 0.770989 0.253729
H165  H     H_    0.924433 0.577043 0.714459 0.273415
H166  H     H_    0.885904 0.596108 0.657694 0.275268
H167  H     H_    0.237748 0.589413 0.802155 0.177143
H168  H     H_    0.190205 0.623182 0.910800 0.122922
H169  H     H_    0.286631 0.521186 0.871187 0.245446
H170  H     H_    0.234102 0.550720 0.980834 0.215728
H171  H     H_    0.164420 0.488747 0.956616 0.258176
H172  H     H_    0.419146 0.764285 0.609433 0.149480
H173  H     H_    0.216320 0.426633 0.947542 0.278156
H174  H     H_    0.216901 0.458457 0.846701 0.267779
H175  H     H_    0.657474 0.218705 0.318198 0.177649
H176  H     H_    0.703493 0.164425 0.226714 0.129391
H177  H     H_    0.586324 0.207833 0.279464 0.229956
H178  H     H_    0.631540 0.166891 0.171963 0.208915
H179  H     H_    0.642534 0.058252 0.241540 0.254131
H180  H     H_    0.570996 0.077382 0.291560 0.272071
H181  H     H_    0.606491 0.097334 0.352487 0.277735
H182  H     H_    0.768013 0.587742 0.192119 0.175518
H183  H     H_    0.540540 0.247489 0.506762 0.141400
H184  H     H_    0.813516 0.623533 0.083491 0.121836
H185  H     H_    0.718618 0.519778 0.125689 0.244382
H186  H     H_    0.768683 0.551783 0.015505 0.215881
H187  H     H_    0.841880 0.490608 0.032714 0.259603
H188  H     H_    0.790681 0.427545 0.043733 0.277772
H189  H     H_    0.791917 0.457911 0.143200 0.267300
H190  H     H_    0.338661 0.218523 0.685459 0.179701
H191  H     H_    0.292466 0.166609 0.779199 0.130861
H192  H     H_    0.410703 0.205089 0.720843 0.230439
H193  H     H_    0.365799 0.169920 0.832145 0.209541
H194  H     H_    0.784063 0.499512 0.441505 0.187852
H195  H     H_    0.350758 0.058997 0.774045 0.252595
H196  H     H_    0.422869 0.074272 0.717373 0.273272
H197  H     H_    0.384559 0.092992 0.660207 0.275253
H198  H     H_    0.562959 0.235899 0.153127 0.171645
H199  H     H_    0.609248 0.192875 0.049531 0.120357
H200  H     H_    0.497903 0.257684 0.094388 0.234120
H201  H     H_    0.544103 0.208578 0.993570 0.210423
H202  H     H_    0.535109 0.098640 0.086488 0.262645
H203  H     H_    0.470196 0.128623 0.103000 0.264511
H204  H     H_    0.488845 0.147517 0.187854 0.266930
O1    O     O_R   0.746490 0.236330 0.638080 -0.658996
O2    O     O_R   0.325830 0.813840 0.483730 -0.642573
O3    O     O_R   0.325830 0.186160 0.483730 -0.642162
O4    O     O_R   0.674170 0.813840 0.516270 -0.635903
O5    O     O_R   0.174170 0.686160 0.516270 -0.649470
O6    O     O_R   0.825830 0.313840 0.483730 -0.642143
O7    O     O_R   0.825830 0.686160 0.483730 -0.641999
O8    O     O_R   0.174170 0.313840 0.516270 -0.635955
O9    O     O_R   0.739960 0.127620 0.525000 -0.629852
O10   O     O_R   0.260040 0.872380 0.475000 -0.647465
O11   O     O_R   0.260040 0.127620 0.475000 -0.626177
O12   O     O_R   0.253510 0.763670 0.361920 -0.642522
O13   O     O_R   0.739960 0.872380 0.525000 -0.644456
O14   O     O_R   0.239960 0.627620 0.525000 -0.629763
O15   O     O_R   0.760040 0.372380 0.475000 -0.647136
O16   O     O_R   0.760040 0.627620 0.475000 -0.625020
O17   O     O_R   0.239960 0.372380 0.525000 -0.644364
O18   O     O_R   0.680700 0.294870 0.629350 -0.577271
O19   O     O_R   0.319300 0.705130 0.370650 -0.575228
O20   O     O_R   0.319300 0.294870 0.370650 -0.574175
O21   O     O_R   0.680700 0.705130 0.629350 -0.592222
O22   O     O_R   0.180700 0.794870 0.629350 -0.577257
O23   O     O_R   0.253510 0.236330 0.361920 -0.642675
O24   O     O_R   0.819300 0.205130 0.370650 -0.575678
O25   O     O_R   0.819300 0.794870 0.370650 -0.574444
O26   O     O_R   0.180700 0.205130 0.629350 -0.593167
O27   O     O_R   0.062020 0.072840 0.007170 -0.589475
O28   O     O_R   0.937980 0.927160 0.992830 -0.580190
O29   O     O_R   0.937980 0.072840 0.992830 -0.591375
O30   O     O_R   0.062020 0.927160 0.007170 -0.588393
O31   O     O_R   0.562020 0.572840 0.007170 -0.593580
O32   O     O_R   0.437980 0.427160 0.992830 -0.580987
O33   O     O_R   0.437980 0.572840 0.992830 -0.590316
O34   O     O_R   0.746490 0.763670 0.638080 -0.635505
O35   O     O_R   0.562020 0.427160 0.007170 -0.584488
O36   O     O_R   0.947860 0.073950 0.109290 -0.619623
O37   O     O_R   0.052140 0.926050 0.890710 -0.591799
O38   O     O_R   0.052140 0.073950 0.890710 -0.609889
O39   O     O_R   0.947860 0.926050 0.109290 -0.589757
O40   O     O_R   0.447860 0.573950 0.109290 -0.620034
O41   O     O_R   0.552140 0.426050 0.890710 -0.590596
O42   O     O_R   0.552140 0.573950 0.890710 -0.610013
O43   O     O_R   0.447860 0.426050 0.109290 -0.589589
O44   O     O_3   0.769246 0.155954 0.855738 -0.662292
O45   O     O_R   0.246490 0.736330 0.638080 -0.659083
O46   O     O_3   0.188783 0.769136 0.196037 -0.658300
O47   O     O_3   0.230782 0.159305 0.143776 -0.656915
O48   O     O_3   0.808520 0.773915 0.806290 -0.657875
O49   O     O_3   0.271459 0.659119 0.853355 -0.663153
O50   O     O_3   0.688783 0.270352 0.195650 -0.657970
O51   O     O_3   0.731373 0.657859 0.145021 -0.658951
O52   O     O_3   0.308421 0.272619 0.805910 -0.657492
O53   O     O_3   0.595351 0.305557 0.046046 -0.643008
O54   O     O_3   0.333223 0.585429 0.040153 -0.631736
O55   O     O_3   0.403488 0.309019 0.953486 -0.641409
O56   O     O_R   0.753510 0.263670 0.361920 -0.641361
O57   O     O_3   0.665927 0.587644 0.962871 -0.631436
O58   O     O_3   0.096302 0.806418 0.045088 -0.646473
O59   O     O_3   0.832839 0.084859 0.040950 -0.632157
O60   O     O_3   0.902899 0.809484 0.953757 -0.640813
O61   O     O_3   0.160880 0.093857 0.974885 -0.630497
O62   O     O_3   0.632954 0.388159 0.751332 -0.574827
O63   O     O_3   0.408446 0.685157 0.213196 -0.614289
O64   O     O_3   0.367771 0.386294 0.248217 -0.573872
O65   O     O_3   0.591996 0.682225 0.784633 -0.620981
O66   O     O_3   0.132568 0.888136 0.750835 -0.575370
O67   O     O_R   0.753510 0.736330 0.361920 -0.641856
O68   O     O_3   0.908420 0.185255 0.212962 -0.614399
O69   O     O_3   0.868043 0.886187 0.248294 -0.574344
O70   O     O_3   0.092491 0.181079 0.783710 -0.621417
O71   O     O_R   0.246490 0.263670 0.638080 -0.635178
O72   O     O_R   0.674170 0.186160 0.516270 -0.649513
Zn1   Zn    Zn3+2 0.792340 0.208750 0.507670 0.947322
Zn2   Zn    Zn3+2 0.494040 0.500000 0.919480 1.006688
Zn3   Zn    Zn3+2 0.005960 0.000000 0.080520 0.988392
Zn4   Zn    Zn3+2 0.994040 0.000000 0.919480 1.004777
Zn5   Zn    Zn3+2 0.207660 0.791250 0.492330 0.932631
Zn6   Zn    Zn3+2 0.207660 0.208750 0.492330 0.946975
Zn7   Zn    Zn3+2 0.792340 0.791250 0.507670 0.937334
Zn8   Zn    Zn3+2 0.292340 0.708750 0.507670 0.946988
Zn9   Zn    Zn3+2 0.707660 0.291250 0.492330 0.935473
Zn10  Zn    Zn3+2 0.707660 0.708750 0.492330 0.950808
Zn11  Zn    Zn3+2 0.292340 0.291250 0.507670 0.938386
Zn12  Zn    Zn3+2 0.505960 0.500000 0.080520 0.991659

loop_
_geom_bond_atom_site_label_1
_geom_bond_atom_site_label_2
_ccdc_geom_bond_type
C120  H59   S    
C49   C113  A    
C126  C127  S    
C31   C42   A    
C198  C206  A    
C84   H181  S    
C39   C218  A    
C102  H18   S    
C186  C194  A    
C114  H43   S    
C14   C33   A    
C114  C115  S    
C21   H183  S    
C19   C46   A    
C159  O52   S    
C16   C31   A    
C46   H46   S    
C107  H30   S    
C50   C59   A    
C60   C215  S    
C118  H54   S    
C52   C61   A    
C106  C107  S    
C184  C193  A    
C63   H13   S    
C134  H94   S    
C187  O62   S    
C108  C109  S    
C148  C160  A    
C4    C186  S    
C185  O56   A    
C100  H17   S    
C13   C51   A    
C44   C53   A    
C71   H149  S    
C6    O29   A    
C9    O32   A    
C78   H168  S    
C82   H176  S    
C108  H34   S    
C168  H121  S    
C20   C29   A    
C1    O18   A    
O35   Zn12  S    
C188  O63   S    
C50   C79   A    
C24   C50   A    
C88   O52   S    
C170  O54   S    
C13   C41   A    
C110  H39   S    
C147  C226  S    
C190  C199  A    
C214  O10   A    
C8    O42   A    
C150  C159  A    
C121  H63   S    
C122  H64   S    
C95   H4    S    
C102  O57   S    
C81   H174  S    
C210  H133  S    
C98   H11   S    
C58   C64   A    
C196  O25   A    
O25   Zn7   S    
C189  O64   S    
C205  C223  A    
C221  O17   A    
C177  C186  A    
C98   O55   S    
C153  C161  A    
C75   C76   S    
C106  H28   S    
C105  O58   S    
C115  H45   S    
C144  H117  S    
C122  H65   S    
O30   Zn3   S    
O5    Zn5   S    
C142  H111  S    
C119  H58   S    
C98   H10   S    
C99   H12   S    
C124  C222  S    
C173  C182  A    
O38   Zn4   S    
C156  C165  A    
C209  C226  A    
C105  H27   S    
C92   H199  S    
C215  O3    A    
C35   C45   A    
C97   H9    S    
C137  H98   S    
C15   C30   A    
C175  C183  A    
C69   O46   S    
C105  C106  S    
C154  O47   S    
C176  C184  A    
C67   H143  S    
C129  H81   S    
C11   O35   A    
C1    O1    A    
C220  O16   A    
O7    Zn7   S    
C72   C73   S    
O71   Zn11  S    
C139  C140  S    
C167  H122  S    
C146  C225  S    
C135  C223  S    
C25   H150  S    
C6    C183  S    
C200  C209  A    
C140  H105  S    
C132  H88   S    
C116  H50   S    
C130  C131  S    
C18   C38   A    
C133  H89   S    
C125  H70   S    
C155  O48   S    
C126  H73   S    
C48   C101  A    
C12   C21   A    
O17   Zn11  S    
C75   H159  S    
C69   C70   S    
C221  O8    A    
C174  O22   A    
O28   Zn4   S    
C2    C40   A    
C88   C89   S    
C98   C99   S    
C111  H42   S    
C73   H155  S    
C72   O47   S    
C143  C144  S    
C152  O23   A    
C145  C168  A    
C97   H7    S    
C8    C181  S    
C146  C167  A    
C27   C29   A    
C10   O33   A    
C70   H147  S    
C123  H67   S    
C139  H103  S    
C85   C86   S    
C86   H186  S    
C65   H137  S    
C136  H95   S    
C10   C179  S    
C84   H180  S    
O12   Zn5   S    
C1    C195  S    
O16   Zn10  S    
C37   C40   A    
C180  C189  A    
C143  H114  S    
C51   C90   A    
C216  O13   A    
C78   C80   S    
C43   C52   A    
C185  C201  S    
C107  H31   S    
C64   H24   S    
C20   C35   A    
C172  C181  A    
C83   C84   S    
C2    C44   A    
C62   H2    S    
C22   C25   A    
C217  O5    A    
C96   H5    S    
C30   C41   A    
C89   C91   S    
C149  C158  A    
C5    C184  S    
C56   C214  S    
C100  H16   S    
O4    Zn10  S    
C66   C67   S    
C67   H141  S    
O45   Zn8   S    
C163  C199  S    
O19   Zn8   S    
C96   C97   S    
O42   Zn2   S    
C129  O65   S    
C69   H145  S    
C2    C45   A    
C53   C217  S    
C176  C228  A    
C56   C63   A    
C34   C39   A    
C103  H21   S    
C141  H109  S    
C212  H135  S    
C191  C200  A    
C133  H91   S    
C109  H37   S    
C80   H169  S    
C57   H57   S    
C151  O44   S    
C54   C221  S    
C104  H25   S    
O72   Zn9   S    
C83   H177  S    
C220  O7    A    
O20   Zn11  S    
C69   H144  S    
C112  O12   A    
C192  O68   S    
C65   O44   S    
C169  C222  A    
C126  O64   S    
C3    C150  S    
C141  H108  S    
C149  C164  A    
O36   Zn3   S    
C19   C28   A    
C100  H15   S    
C71   H148  S    
C145  C154  A    
O22   Zn5   S    
C124  C151  A    
C211  C228  A    
C43   C218  A    
C6    O36   A    
O41   Zn2   S    
C87   H188  S    
C129  C130  S    
C130  H82   S    
C91   H195  S    
C120  H60   S    
C52   C219  S    
C96   H6    S    
C166  H119  S    
C154  C162  A    
C74   H156  S    
C102  H19   S    
C92   H198  S    
C136  C137  S    
C114  H44   S    
C75   H160  S    
O23   Zn6   S    
C165  H120  S    
C170  C179  A    
O18   Zn9   S    
C14   C22   A    
C99   H14   S    
C29   H1    S    
C118  H55   S    
C117  C118  S    
O26   Zn6   S    
C55   C61   A    
C199  C208  A    
C152  O20   A    
C148  C157  A    
O15   Zn9   S    
C102  C103  S    
C171  C180  A    
O34   Zn7   S    
C136  O68   S    
O9    Zn1   S    
C91   H196  S    
C214  O2    A    
C77   H166  S    
C149  C228  S    
C51   C60   A    
O3    Zn11  S    
C213  O72   A    
O14   Zn8   S    
C217  O14   A    
C34   C37   A    
C24   C42   A    
C73   C74   S    
C169  C178  A    
C197  C205  A    
C122  O63   S    
C183  C192  A    
C127  H74   S    
C110  H40   S    
C111  O60   S    
C120  C121  S    
C89   H193  S    
C7    O37   A    
C157  O50   S    
C121  H62   S    
C132  O66   S    
C87   H189  S    
O6    Zn1   S    
C95   H3    S    
C61   H194  S    
C117  H52   S    
C81   H173  S    
C74   H158  S    
C123  C125  S    
O2    Zn8   S    
C139  O69   S    
C131  H86   S    
C24   C49   A    
C175  C227  A    
C173  O58   S    
O37   Zn4   S    
C35   H35   S    
O33   Zn2   S    
C215  O11   A    
C115  H48   S    
C146  C155  A    
C137  H97   S    
C207  O71   A    
C158  C167  A    
C106  H29   S    
C192  C201  A    
C119  O62   S    
C144  H118  S    
C70   C71   S    
O8    Zn6   S    
C88   H191  S    
C202  C211  A    
C113  H113  S    
O39   Zn3   S    
C176  O60   S    
C105  H26   S    
C93   H201  S    
C169  O53   S    
C185  O24   A    
C150  C162  A    
C47   C218  A    
C81   H171  S    
C104  H22   S    
C190  O65   S    
C147  C161  A    
C134  H92   S    
C86   C87   S    
C14   C101  A    
C195  C204  A    
C54   C62   A    
C66   H140  S    
C97   H8    S    
C26   H139  S    
C134  H93   S    
C66   H138  S    
C193  C202  A    
C140  H106  S    
C93   H200  S    
C109  H36   S    
O24   Zn1   S    
C125  H69   S    
C18   C57   A    
C95   O54   S    
C78   H167  S    
C5    O28   A    
C82   H175  S    
C135  C165  A    
C108  H33   S    
O32   Zn2   S    
C140  C141  S    
C147  C156  A    
C118  H53   S    
O27   Zn3   S    
C178  C187  A    
C94   H202  S    
C21   C23   A    
C133  C134  S    
C74   H157  S    
C182  C191  A    
O40   Zn12  S    
C73   H154  S    
C112  C197  S    
C110  H38   S    
C46   C47   A    
C17   C68   A    
C128  H77   S    
C204  C222  A    
C59   C216  S    
O21   Zn10  S    
C142  O70   S    
C119  C120  S    
C119  H56   S    
C179  C188  A    
C128  H78   S    
C131  H84   S    
C65   H136  S    
C174  C200  S    
C103  H20   S    
C94   H203  S    
C16   C79   A    
C33   C41   A    
C36   C38   A    
C108  O59   S    
C121  H61   S    
C109  C110  S    
C72   H152  S    
C213  O9    A    
C38   C39   A    
C188  C197  A    
C7    O30   A    
O31   Zn12  S    
C92   C93   S    
C76   H163  S    
C111  C114  S    
C4    O38   A    
C142  H110  S    
C170  C223  A    
C20   C36   A    
C58   C213  S    
C85   H182  S    
C82   C83   S    
C94   H204  S    
C103  C104  S    
C32   C42   A    
C142  C143  S    
C189  C198  A    
C8    O31   A    
C112  O19   A    
C93   C94   S    
C16   C25   A    
C210  C227  A    
C95   C96   S    
C211  H134  S    
C171  C224  A    
C145  C224  S    
C101  H101  S    
C116  C117  S    
C138  H102  S    
C59   C64   A    
C60   C63   A    
C17   C26   A    
C132  H87   S    
C116  H49   S    
C162  H126  S    
C75   O48   S    
C216  O4    A    
C80   H170  S    
C173  C226  A    
C127  H75   S    
C125  H71   S    
C129  H80   S    
C128  H76   S    
C126  H72   S    
C68   H68   S    
C159  C168  A    
C177  O61   S    
C181  C190  A    
C144  H116  S    
C193  O69   S    
C191  O66   S    
C219  O15   A    
C132  C133  S    
C209  H132  S    
C31   C33   A    
C175  O59   S    
C205  H129  S    
C72   H153  S    
C207  O26   A    
C15   C23   A    
C153  O46   S    
C104  H23   S    
C12   C32   A    
C204  H127  S    
C10   O40   A    
C148  C227  S    
C92   O53   S    
C70   H146  S    
C88   H190  S    
C87   H187  S    
C79   H79   S    
C139  H104  S    
C86   H185  S    
C130  H83   S    
C84   H179  S    
C36   C40   A    
C76   C77   S    
C163  O21   A    
O10   Zn5   S    
C194  O70   S    
C22   H172  S    
C23   H161  S    
C203  C207  S    
C158  O51   S    
C49   C58   A    
C138  H100  S    
C107  H32   S    
O67   Zn10  S    
C156  O49   S    
C164  H125  S    
C208  C225  A    
C28   H112  S    
C53   C62   A    
C99   C100  S    
O1    Zn1   S    
C138  H99   S    
C141  H107  S    
C43   C57   A    
C152  C198  S    
O13   Zn7   S    
C11   C178  S    
C17   C37   A    
C172  O57   S    
O11   Zn6   S    
C82   O50   S    
C172  C225  A    
C9    C180  S    
C124  C166  A    
C161  H123  S    
C71   H151  S    
C67   H142  S    
C77   H165  S    
C45   C54   A    
C206  C224  A    
O56   Zn9   S    
C203  C212  A    
C44   C68   A    
C206  H130  S    
C208  H131  S    
C196  C202  S    
C5    O39   A    
C201  C210  A    
C85   O51   S    
C47   C55   A    
C12   C113  A    
C219  O6    A    
C3    C212  A    
C48   C56   A    
C76   H162  S    
C7    C182  S    
C187  C195  A    
C18   C27   A    
C80   C81   S    
C19   C34   A    
C157  C166  A    
C13   C48   A    
C55   C220  S    
O43   Zn12  S    
C77   H164  S    
C155  C164  A    
C137  C138  S    
C11   O41   A    
C89   H192  S    
C26   C28   A    
C135  C153  A    
C83   H178  S    
C90   H90   S    
C151  C160  A    
C9    O43   A    
C78   O49   S    
C3    C177  A    
C117  H51   S    
O29   Zn4   S    
C15   C90   A    
C30   C32   A    
C174  O45   A    
C194  C203  A    
C131  H85   S    
C160  H124  S    
C163  O34   A    
C136  H96   S    
C171  O55   S    
C27   H128  S    
C91   H197  S    
C196  O67   A    
C115  H47   S    
C143  H115  S    
C65   C66   S    
C111  H41   S    
C4    O27   A    
C122  C123  S    
C123  H66   S    
C116  O61   S    
C127  C128  S    
C85   H184  S    
