data_mof_unit_7284.cif
_audit_creation_date              2012-12-10T18:47:01-0500
_audit_creation_method            fapswitch 2.2
_symmetry_space_group_name_H-M    P1
_symmetry_Int_Tables_number       1
_space_group_crystal_system       triclinic
_cell_length_a                    10.792083
_cell_length_b                    9.934759
_cell_length_c                    14.991009
_cell_angle_alpha                 90.080289
_cell_angle_beta                  90.794213
_cell_angle_gamma                 90.304736
_cell_volume                      1607.10827654

loop_
_atom_site_label
_atom_site_type_symbol
_atom_type_description
_atom_site_fract_x
_atom_site_fract_y
_atom_site_fract_z
_atom_type_partial_charge
C1    C     C_R   0.260093 0.499778 0.504262 1.033539
C2    C     C_R   0.739609 0.499969 0.493515 1.008349
C3    C     C_R   0.281824 0.429316 0.044554 0.569344
C4    C     C_R   0.727732 0.530912 0.956688 0.579459
C5    C     C_R   0.063091 0.375396 0.507494 0.401653
C6    C     C_R   0.937448 0.622172 0.482372 0.370310
C7    C     C_R   0.936441 0.374805 0.488865 0.355328
C8    C     C_R   0.063127 0.622401 0.501098 0.329589
C9    C     C_R   0.872736 0.499023 0.485151 -0.390243
C10   C     C_R   0.126702 0.499335 0.506604 -0.384796
C11   C     C_R   0.563921 0.072682 0.564434 -0.019205
C12   C     C_R   0.435451 0.927755 0.436050 0.029293
C13   C     C_R   0.438283 0.071587 0.434390 -0.059549
C14   C     C_R   0.566037 0.928979 0.562941 0.027807
C15   C     C_R   0.499439 0.499670 0.327579 0.956199
C16   C     C_R   0.502085 0.499623 0.672719 0.954122
C17   C     C_R   0.615919 0.500728 0.814440 0.437739
C18   C     C_R   0.390928 0.468110 0.186640 0.469359
C19   C     C_R   0.501807 0.497231 0.768310 -0.201983
C20   C     C_R   0.501336 0.498421 0.232448 -0.212689
C21   C     C_R   0.388585 0.484522 0.812815 -0.077126
C22   C     C_R   0.614112 0.516839 0.188796 -0.059601
C23   C     C_R   0.390422 0.473209 0.905935 0.008494
C24   C     C_R   0.614865 0.511837 0.095489 0.009256
C25   C     C_R   0.503177 0.491387 0.953711 -0.039226
C26   C     C_R   0.502748 0.489227 0.047498 -0.050970
C27   C     C_R   0.616631 0.507868 0.907884 -0.066116
C28   C     C_R   0.390904 0.461667 0.093169 -0.074243
C29   C     C_R   0.282813 0.436777 0.951724 -0.321260
C30   C     C_R   0.725307 0.531570 0.049281 -0.315211
H1    H     H_    0.199735 0.407395 0.915489 0.169885
H2    H     H_    0.811927 0.548275 0.084353 0.133391
N1    N     N_R   0.500000 0.857200 0.500000 -0.165323
N2    N     N_R   0.500000 0.142800 0.500000 -0.175064
O1    O     O_R   0.316770 0.614620 0.499990 -0.586333
O2    O     O_R   0.683230 0.385380 0.500010 -0.631648
O3    O     O_R   0.683230 0.614620 0.500010 -0.549912
O4    O     O_R   0.316770 0.385380 0.499990 -0.599757
O5    O     O_R   0.499980 0.614680 0.367850 -0.636310
O6    O     O_R   0.500020 0.385320 0.632150 -0.586991
O7    O     O_R   0.500020 0.614680 0.632150 -0.696369
O8    O     O_R   0.499980 0.385320 0.367850 -0.650043
Zn1   Zn    Zn3+2 0.500000 0.653120 0.500000 0.990311
Zn2   Zn    Zn3+2 0.500000 0.346880 0.500000 0.981104
O9    O     O_3   0.724784 0.472592 0.769928 -0.571323
C31   C     C_3   0.772905 0.590198 0.730631 -0.173789
H3    H     H_    0.752123 0.683812 0.768285 0.146909
H4    H     H_    0.738131 0.598809 0.661653 0.159729
H5    H     H_    0.875156 0.581041 0.727279 0.194810
O10   O     O_3   0.285541 0.435260 0.234161 -0.567272
C32   C     C_3   0.221156 0.553919 0.255862 -0.292338
H6    H     H_    0.262659 0.601268 0.316086 0.176599
H7    H     H_    0.124304 0.526485 0.272212 0.179179
H8    H     H_    0.217458 0.627733 0.199982 0.153958
C33   C     C_2   0.268344 0.482003 0.762769 0.375321
H9    H     H_    0.190732 0.540287 0.786694 0.045254
O11   O     O_2   0.253329 0.410262 0.697431 -0.516555
C34   C     C_2   0.731064 0.537229 0.241042 0.329634
H10   H     H_    0.812310 0.477419 0.226919 0.038882
O12   O     O_2   0.737884 0.623246 0.298929 -0.578461
O13   O     O_3   0.179742 0.375788 0.087735 -0.540366
C35   C     C_3   0.071660 0.449283 0.066931 -0.272479
H11   H     H_    0.029012 0.412779 0.003539 0.211218
H12   H     H_    0.089131 0.559794 0.064135 0.126315
H13   H     H_    0.003652 0.431338 0.120431 0.179206
O14   O     O_3   0.840011 0.548148 0.914272 -0.579991
C36   C     C_3   0.885062 0.680300 0.929329 -0.372030
H14   H     H_    0.923498 0.692039 0.997931 0.163521
H15   H     H_    0.812544 0.757634 0.916653 0.173351
H16   H     H_    0.961761 0.699893 0.882493 0.193734
O15   O     O_3   0.120536 0.264084 0.546216 -0.529028
C37   C     C_3   0.117643 0.150160 0.490003 -0.107191
H17   H     H_    0.199826 0.087916 0.505961 0.168062
H18   H     H_    0.121434 0.175972 0.417984 0.102776
H19   H     H_    0.035862 0.086339 0.504588 0.212077
O16   O     O_3   0.875436 0.743248 0.470910 -0.528643
C38   C     C_3   0.917868 0.811330 0.394252 -0.024067
H20   H     H_    0.990504 0.885760 0.413086 0.181441
H21   H     H_    0.839269 0.868205 0.364739 0.159507
H22   H     H_    0.953277 0.742877 0.341448 0.132009
O17   O     O_3   0.874320 0.252680 0.483767 -0.575914
C39   C     C_3   0.848267 0.223201 0.393004 -0.288882
H23   H     H_    0.783575 0.297171 0.362465 0.177743
H24   H     H_    0.802902 0.122919 0.389006 0.187996
H25   H     H_    0.933826 0.219230 0.352744 0.135347
O18   O     O_3   0.122732 0.744491 0.514777 -0.542343
C40   C     C_3   0.116686 0.777505 0.606118 -0.198393
H26   H     H_    0.164810 0.875197 0.617038 0.181583
H27   H     H_    0.164722 0.701067 0.648071 0.137496
H28   H     H_    0.019109 0.789455 0.627739 0.193075
C41   C     C_2   0.631766 0.146737 0.635817 0.547808
H29   H     H_    0.687482 0.233814 0.620631 0.150848
O19   O     O_2   0.625077 0.111218 0.713560 -0.580827
C42   C     C_2   0.359882 0.855285 0.369025 0.540998
H30   H     H_    0.403305 0.810431 0.311632 0.075986
O20   O     O_2   0.247137 0.856502 0.373140 -0.602520
C43   C     C_2   0.374440 0.144876 0.361298 0.472049
H31   H     H_    0.323026 0.235092 0.374860 0.134719
O21   O     O_2   0.380283 0.106099 0.284146 -0.565238
C44   C     C_2   0.644518 0.857925 0.627800 0.532841
H32   H     H_    0.603362 0.812192 0.685794 0.045864
O22   O     O_2   0.756971 0.860568 0.620634 -0.574764

loop_
_geom_bond_atom_site_label_1
_geom_bond_atom_site_label_2
_ccdc_geom_bond_type
C4    O14   S    
C40   H26   S    
C5    O15   S    
C33   H9    S    
C6    C9    A    
O17   C39   S    
O9    C31   S    
C31   H5    S    
C1    O1    A    
C23   C29   A    
C3    C28   A    
C19   C21   A    
C24   C26   A    
C11   C14   A    
C34   O12   D    
C3    C29   A    
C35   H12   S    
O1    Zn1   S    
C8    O18   S    
C3    O13   S    
O14   C36   S    
O7    Zn1   S    
C12   C42   S    
O13   C35   S    
O8    Zn2   S    
C14   N1    A    
C37   H19   S    
C43   O21   D    
C43   H31   S    
C38   H21   S    
C21   C23   A    
C15   C20   S    
C31   H4    S    
C36   H14   S    
N1    Zn1   S    
N2    Zn2   S    
O16   C38   S    
C37   H18   S    
C41   H29   S    
C5    C7    A    
O18   C40   S    
C6    C8    A    
C34   H10   S    
C38   H20   S    
C32   H6    S    
C36   H15   S    
C17   C27   A    
O3    Zn1   S    
O4    Zn2   S    
C35   H11   S    
C41   O19   D    
C44   O22   D    
O10   C32   S    
C18   C28   A    
C42   O20   D    
C15   O5    A    
C1    O4    A    
C16   O6    A    
C7    O17   S    
C20   C22   A    
C39   H24   S    
C33   O11   D    
C22   C24   A    
O2    Zn2   S    
C4    C27   A    
C18   O10   S    
C21   C33   S    
C38   H22   S    
C2    O2    A    
C7    C9    A    
C31   H3    S    
C35   H13   S    
C6    O16   S    
C11   N2    A    
C1    C10   S    
C15   O8    A    
C17   O9    S    
C37   H17   S    
C22   C34   S    
O5    Zn1   S    
C14   C44   S    
C25   C27   A    
C39   H25   S    
C26   C28   A    
C32   H8    S    
C36   H16   S    
C40   H27   S    
C25   C26   A    
C5    C10   A    
C29   H1    S    
C30   H2    S    
C2    O3    A    
C16   C19   S    
C44   H32   S    
C17   C19   A    
C18   C20   A    
C23   C25   A    
C13   C43   S    
C42   H30   S    
C24   C30   A    
C11   C41   S    
O6    Zn2   S    
O15   C37   S    
C12   C13   A    
C8    C10   A    
C39   H23   S    
C13   N2    A    
C40   H28   S    
C32   H7    S    
C12   N1    A    
C2    C9    S    
C16   O7    A    
C4    C30   A    
