data_mof_unit_6322.cif
_audit_creation_date              2012-10-26T20:16:42-0400
_audit_creation_method            fapswitch 2.2
_symmetry_space_group_name_H-M    P1
_symmetry_Int_Tables_number       1
_space_group_crystal_system       triclinic
_cell_length_a                    10.906668
_cell_length_b                    10.905032
_cell_length_c                    9.801585
_cell_angle_alpha                 98.736686
_cell_angle_beta                  98.727441
_cell_angle_gamma                 92.979198
_cell_volume                      1135.54548664

loop_
_atom_site_label
_atom_site_type_symbol
_atom_type_description
_atom_site_fract_x
_atom_site_fract_y
_atom_site_fract_z
_atom_type_partial_charge
C1    C     C_R   0.500934 0.261969 0.499287 0.543820
C2    C     C_R   0.672543 0.949062 0.849633 -0.095851
C3    C     C_R   0.447483 0.076577 0.228524 0.061369
C4    C     C_R   0.552516 0.923423 0.771475 0.061368
C5    C     C_R   0.541875 0.132145 0.169809 -0.030144
C6    C     C_R   0.458124 0.867856 0.830191 -0.030146
C7    C     C_R   0.514847 0.166367 0.037305 -0.093056
C8    C     C_R   0.485151 0.833634 0.962694 -0.093056
C9    C     C_R   0.394598 0.142191 0.961073 -0.122716
C10   C     C_R   0.605400 0.857808 0.038927 -0.122717
C11   C     C_R   0.471564 0.914918 0.375979 -0.165858
C12   C     C_R   0.499066 0.738031 0.500713 0.543820
C13   C     C_R   0.528436 0.085082 0.624021 -0.165858
C14   C     C_R   0.497783 0.872247 0.503792 -0.008731
C15   C     C_R   0.502217 0.127753 0.496208 -0.008731
C16   C     C_R   0.261971 0.500934 0.499287 0.543766
C17   C     C_R   0.738029 0.499066 0.500713 0.543766
C18   C     C_R   0.525306 0.958806 0.630337 -0.032949
C19   C     C_R   0.474694 0.041194 0.369663 -0.032949
C20   C     C_2   0.510772 0.510300 0.078980 -0.042921
C21   C     C_2   0.489228 0.489700 0.921020 -0.042921
C22   C     C_R   0.166080 0.514471 0.037057 -0.093884
C23   C     C_R   0.872247 0.497804 0.503796 -0.008766
C24   C     C_R   0.833920 0.485527 0.962943 -0.093885
C25   C     C_R   0.132133 0.541569 0.169700 -0.030167
C26   C     C_R   0.867868 0.458431 0.830300 -0.030167
C27   C     C_R   0.076574 0.447242 0.228524 0.061403
C28   C     C_R   0.923426 0.552758 0.771476 0.061402
C29   C     C_R   0.050734 0.327196 0.150375 -0.095932
C30   C     C_R   0.949267 0.672802 0.849625 -0.095933
C31   C     C_R   0.082454 0.301271 0.016657 -0.119916
C32   C     C_R   0.917548 0.698726 0.983344 -0.119918
C33   C     C_R   0.141676 0.394208 0.960816 -0.123200
C34   C     C_R   0.127753 0.502195 0.496204 -0.008766
C35   C     C_R   0.858325 0.605789 0.039184 -0.123201
C36   C     C_R   0.914939 0.471497 0.375993 -0.165847
C37   C     C_R   0.085061 0.528502 0.624007 -0.165846
C38   C     C_R   0.958792 0.525415 0.630329 -0.032896
C39   C     C_R   0.041208 0.474585 0.369671 -0.032896
C40   C     C_R   0.301606 0.082909 0.016771 -0.119871
C41   C     C_R   0.698392 0.917088 0.983229 -0.119871
C42   C     C_R   0.327456 0.050935 0.150367 -0.095852
Cu1   Cu    Cu3+1 0.521120 0.521140 0.639640 0.933616
Cu2   Cu    Cu3+1 0.478880 0.478860 0.360360 0.933616
H1    H     H_    0.167295 0.373273 0.857874 0.100308
H2    H     H_    0.582075 0.580753 0.135017 0.143160
H3    H     H_    0.620064 0.618913 0.904929 0.230180
H4    H     H_    0.379935 0.381088 0.095071 0.230180
H5    H     H_    0.210748 0.586803 0.993155 0.096238
H6    H     H_    0.789252 0.413197 0.006844 0.096238
H7    H     H_    0.150509 0.635277 0.227443 0.098169
H8    H     H_    0.849491 0.364723 0.772556 0.098169
H9    H     H_    0.005647 0.254064 0.192832 0.092730
H10   H     H_    0.994354 0.745934 0.807169 0.092730
H11   H     H_    0.060140 0.209355 0.955836 0.091804
H12   H     H_    0.832707 0.626724 0.142126 0.100309
H13   H     H_    0.939863 0.790641 0.044166 0.091805
H14   H     H_    0.849458 0.449186 0.279225 0.126427
H15   H     H_    0.150542 0.550813 0.720776 0.126427
H16   H     H_    0.373711 0.168033 0.858244 0.100281
H17   H     H_    0.626287 0.831966 0.141756 0.100281
H18   H     H_    0.209697 0.060776 0.955944 0.091840
H19   H     H_    0.790301 0.939220 0.044055 0.091841
H20   H     H_    0.254271 0.005856 0.192742 0.092723
H21   H     H_    0.745728 0.994140 0.807257 0.092724
H22   H     H_    0.635563 0.150384 0.227568 0.097957
H23   H     H_    0.364437 0.849619 0.772432 0.097957
H24   H     H_    0.587223 0.211064 0.993499 0.096224
H25   H     H_    0.412775 0.788938 0.006500 0.096225
H26   H     H_    0.449295 0.849421 0.279205 0.126508
H27   H     H_    0.550705 0.150579 0.720795 0.126508
H28   H     H_    0.417925 0.419247 0.864983 0.143160
N1    N     N_2   0.447120 0.447110 0.150550 -0.350219
N2    N     N_2   0.552880 0.552890 0.849450 -0.350219
O1    O     O_R   0.517830 0.337490 0.617920 -0.513188
O2    O     O_R   0.482170 0.662510 0.382080 -0.513189
O3    O     O_R   0.482150 0.301790 0.382070 -0.484427
O4    O     O_R   0.517850 0.698210 0.617930 -0.484427
O5    O     O_R   0.337480 0.517860 0.617920 -0.513300
O6    O     O_R   0.662520 0.482140 0.382080 -0.513300
O7    O     O_R   0.301810 0.482160 0.382070 -0.484681
O8    O     O_R   0.698190 0.517840 0.617930 -0.484681

loop_
_geom_bond_atom_site_label_1
_geom_bond_atom_site_label_2
_ccdc_geom_bond_type
C3    C42   A    
C27   C29   A    
C34   C37   A    
C33   H1    S    
C14   C18   A    
C2    H21   S    
C11   H26   S    
C40   H18   S    
Cu1   O4    S    
C15   C19   A    
C30   H10   S    
C11   C19   A    
C8    H25   S    
C17   C23   S    
C13   C18   A    
Cu2   O3    S    
C24   C26   A    
C36   H14   S    
C11   C14   A    
C2    C41   A    
Cu1   O5    S    
C1    O3    A    
C17   O8    A    
Cu2   O2    S    
C16   C34   S    
C7    H24   S    
C27   C39   S    
C22   C25   A    
C12   O4    A    
C31   C33   A    
C3    C19   S    
C1    C15   S    
C4    C18   S    
Cu1   N2    S    
C40   C42   A    
C10   C41   A    
Cu1   O1    S    
C32   H13   S    
C24   H6    S    
C24   C35   A    
C21   H28   S    
C34   C39   A    
C1    O1    A    
C32   C35   A    
Cu2   O6    S    
C4    C6    A    
Cu2   O7    S    
C5    C7    A    
C6    C8    A    
C13   H27   S    
C21   N2    D    
C17   O6    A    
C2    C4    A    
Cu1   Cu2   S    
C25   H7    S    
C37   C38   A    
C26   H8    S    
C28   C38   S    
C37   H15   S    
C22   H5    S    
C6    H23   S    
C12   C14   S    
C13   C15   A    
C12   O2    A    
C10   H17   S    
C41   H19   S    
C42   H20   S    
C7    C9    A    
C22   C33   A    
C35   H12   S    
H4    N1    S    
C36   C39   A    
H3    N2    S    
C5    H22   S    
C3    C5    A    
C25   C27   A    
C23   C38   A    
C26   C28   A    
C16   O5    A    
C9    H16   S    
C28   C30   A    
C29   C31   A    
C30   C32   A    
C29   H9    S    
C16   O7    A    
C20   N1    D    
C9    C40   A    
Cu2   N1    S    
C20   C21   S    
C8    C10   A    
C23   C36   A    
Cu1   O8    S    
C31   H11   S    
C20   H2    S    
