data_mof_unit_24120.cif
_audit_creation_date              2012-12-10T17:47:40-0500
_audit_creation_method            fapswitch 2.2
_symmetry_space_group_name_H-M    P1
_symmetry_Int_Tables_number       1
_space_group_crystal_system       triclinic
_cell_length_a                    10.636339
_cell_length_b                    10.724368
_cell_length_c                    9.887098
_cell_angle_alpha                 88.822634
_cell_angle_beta                  90.027524
_cell_angle_gamma                 91.856011
_cell_volume                      1126.97196024

loop_
_atom_site_label
_atom_site_type_symbol
_atom_type_description
_atom_site_fract_x
_atom_site_fract_y
_atom_site_fract_z
_atom_type_partial_charge
C1    C     C_R   0.506345 0.259655 0.502515 0.871026
C2    C     C_R   0.485207 0.056186 0.631286 0.085459
C3    C     C_R   0.509621 0.125475 0.508994 -0.129446
C4    C     C_R   0.257800 0.500397 0.500221 0.834686
C5    C     C_R   0.518673 0.065177 0.385472 -0.231160
C6    C     C_R   0.504058 0.938219 0.381167 -0.172858
C7    C     C_R   0.470898 0.870863 0.498501 -0.071043
C8    C     C_R   0.331566 0.339039 0.143412 -0.172791
C9    C     C_R   0.247242 0.261502 0.074500 -0.211047
C10   C     C_R   0.246987 0.262118 0.934521 -0.195142
C11   C     C_R   0.331600 0.339703 0.862765 -0.176379
C12   C     C_3   0.878669 0.501973 0.501160 0.165225
C13   C     C_R   0.416878 0.420966 0.929206 0.153281
C14   C     C_R   0.416906 0.420847 0.073943 0.172707
C15   C     C_R   0.579276 0.575937 0.069926 -0.126176
C16   C     C_R   0.487560 0.738761 0.499066 0.896202
C17   C     C_R   0.579264 0.575876 0.926623 -0.120612
C18   C     C_R   0.742262 0.500801 0.500291 0.845351
C19   C     C_3   0.071436 0.505958 0.648826 -0.405648
C20   C     C_3   0.928823 0.508043 0.648629 -0.395020
C21   C     C_3   0.075228 0.617837 0.417191 -0.122298
C22   C     C_3   0.068412 0.381806 0.435546 -0.436625
C23   C     C_3   0.930246 0.618025 0.420514 -0.469325
C24   C     C_3   0.121345 0.502804 0.500940 0.102470
C25   C     C_2   0.130757 0.740706 0.465436 0.345816
C26   C     C_3   0.924135 0.381511 0.435507 -0.394981
C27   C     C_R   0.500177 0.103663 0.763657 -0.178264
C28   C     C_R   0.451507 0.037853 0.876132 -0.147672
C29   C     C_R   0.387504 0.924353 0.859232 -0.156849
C30   C     C_R   0.383997 0.870892 0.732119 -0.150054
C31   C     C_R   0.444414 0.931688 0.620066 0.101499
H1    H     H_    0.110305 0.588790 0.702556 0.165421
H2    H     H_    0.521449 0.892859 0.286337 0.165830
H3    H     H_    0.643957 0.637921 0.122574 0.140128
H4    H     H_    0.101141 0.421745 0.706765 0.186768
H5    H     H_    0.327058 0.331687 0.250695 0.206082
H6    H     H_    0.182401 0.199853 0.130253 0.158178
H7    H     H_    0.182386 0.200550 0.881029 0.152668
H8    H     H_    0.328945 0.331657 0.755717 0.209406
H9    H     H_    0.643934 0.637833 0.871231 0.147556
H10   H     H_    0.890944 0.427136 0.710201 0.182557
H11   H     H_    0.898362 0.594881 0.697238 0.170390
H12   H     H_    0.889314 0.375172 0.329571 0.181024
H13   H     H_    0.895553 0.704184 0.467169 0.152420
H14   H     H_    0.102439 0.375263 0.329589 0.176044
H15   H     H_    0.101093 0.298193 0.492422 0.167653
H16   H     H_    0.886422 0.297830 0.492504 0.159000
H17   H     H_    0.113020 0.771277 0.567365 0.062887
H18   H     H_    0.104462 0.607225 0.309806 0.177938
H19   H     H_    0.894050 0.617095 0.314808 0.176640
H20   H     H_    0.539567 0.115804 0.291726 0.170793
H21   H     H_    0.553756 0.188140 0.784370 0.172367
H22   H     H_    0.461664 0.076167 0.976177 0.151859
H23   H     H_    0.344789 0.875536 0.945338 0.150966
H24   H     H_    0.334535 0.781723 0.722455 0.150822
N1    N     N_R   0.498810 0.498800 0.142780 -0.120001
N2    N     N_R   0.498760 0.498720 0.857170 -0.125545
O1    O     O_R   0.500000 0.316780 0.614690 -0.652289
O2    O     O_R   0.499990 0.316750 0.385360 -0.638071
O3    O     O_R   0.314800 0.499990 0.614670 -0.653571
O4    O     O_R   0.314790 0.499970 0.385330 -0.633044
O5    O     O_R   0.500010 0.683250 0.614640 -0.631444
O6    O     O_R   0.500000 0.683220 0.385310 -0.606001
O7    O     O_R   0.685210 0.500030 0.614670 -0.629042
O8    O     O_R   0.685200 0.500010 0.385330 -0.625795
O9    O     O_2   0.194727 0.807544 0.389328 -0.582832
Zn1   Zn    Zn3+2 0.500010 0.500020 0.653130 0.913547
Zn2   Zn    Zn3+2 0.499990 0.499980 0.346870 0.938357

loop_
_geom_bond_atom_site_label_1
_geom_bond_atom_site_label_2
_ccdc_geom_bond_type
C14   N1    A    
C28   H22   S    
C6    C7    A    
C16   O6    A    
O2    Zn2   S    
C30   H24   S    
C2    C31   A    
C15   H3    S    
C20   H11   S    
C19   C20   S    
O4    Zn2   S    
C6    H2    S    
C30   C31   A    
C10   H7    S    
C2    C27   A    
N1    Zn2   S    
C15   N1    A    
C4    O3    A    
C9    H6    S    
C2    C3    A    
C19   H4    S    
C13   C14   A    
C23   H13   S    
C18   O8    A    
C11   H8    S    
C11   C13   A    
C12   C23   S    
C18   O7    A    
C29   C30   A    
C16   O5    A    
C12   C20   S    
N2    Zn1   S    
C19   H1    S    
C26   H16   S    
C21   H18   S    
C7    C16   S    
C22   H15   S    
C7    C31   A    
C26   H12   S    
C20   H10   S    
C10   C11   A    
C1    O2    A    
C21   C23   S    
C8    H5    S    
C5    C6    A    
C4    C24   S    
C22   C24   S    
O5    Zn1   S    
C29   H23   S    
O8    Zn2   S    
C22   C26   S    
C25   H17   S    
O7    Zn1   S    
O1    Zn1   S    
C22   H14   S    
C13   N2    A    
C27   H21   S    
C9    C10   A    
C21   C24   S    
C12   C18   S    
C27   C28   A    
C15   C17   A    
C21   C25   S    
O6    Zn2   S    
C28   C29   A    
C23   H19   S    
C8    C14   A    
C12   C26   S    
C3    C5    A    
C1    O1    A    
C19   C24   S    
C4    O4    A    
C5    H20   S    
C25   O9    D    
O3    Zn1   S    
C17   N2    A    
C8    C9    A    
C1    C3    S    
C17   H9    S    
