data_mof_unit_22274.cif
_audit_creation_date              2012-10-26T18:36:41-0400
_audit_creation_method            fapswitch 2.2
_symmetry_space_group_name_H-M    P1
_symmetry_Int_Tables_number       1
_space_group_crystal_system       triclinic
_cell_length_a                    12.710788
_cell_length_b                    13.899322
_cell_length_c                    16.566908
_cell_angle_alpha                 90.402213
_cell_angle_beta                  97.440325
_cell_angle_gamma                 81.694731
_cell_volume                      2871.61304636

loop_
_atom_site_label
_atom_site_type_symbol
_atom_type_description
_atom_site_fract_x
_atom_site_fract_y
_atom_site_fract_z
_atom_type_partial_charge
C1    C     C_R   0.516859 0.315673 0.500934 0.568768
C2    C     C_2   0.027001 0.540869 0.497600 0.226756
C3    C     C_1   0.144416 0.524240 0.490594 0.149672
C4    C     C_1   0.855615 0.477191 0.509801 0.185375
C5    C     C_R   0.514451 0.494807 0.653010 0.621056
C6    C     C_R   0.485401 0.505630 0.346416 0.556053
C7    C     C_R   0.527065 0.468772 0.740629 -0.052152
C8    C     C_R   0.474110 0.509187 0.255307 -0.096253
C9    C     C_R   0.462438 0.519925 0.794009 0.196723
C10   C     C_R   0.564639 0.498593 0.212706 0.194967
C11   C     C_R   0.479362 0.493200 0.878224 0.157356
C12   C     C_R   0.483170 0.684336 0.499040 0.531634
C13   C     C_R   0.554968 0.466056 0.130479 0.194431
C14   C     C_R   0.539136 0.401216 0.903178 -0.037858
C15   C     C_R   0.452705 0.447388 0.092158 -0.007359
C16   C     C_R   0.607755 0.353322 0.849285 0.262962
C17   C     C_R   0.360593 0.483220 0.129396 0.278518
C18   C     C_R   0.602547 0.388035 0.769252 0.208530
C19   C     C_R   0.371387 0.516248 0.209632 0.222368
C20   C     C_2   0.521251 0.347414 0.978447 0.340604
C21   C     C_2   0.437831 0.382287 0.019405 0.343137
C22   C     C_3   0.282469 0.591027 0.779443 0.025989
C23   C     C_1   0.473014 0.787709 0.497799 -0.041830
C24   C     C_3   0.238024 0.501101 0.742045 -0.276942
C25   C     C_3   0.123123 0.500212 0.759666 -0.511837
C26   C     C_3   0.667458 0.610538 0.267368 0.000599
C27   C     C_3   0.780921 0.624947 0.303424 -0.230719
C28   C     C_3   0.787765 0.731611 0.322436 -0.462797
C29   C     C_3   0.266177 0.645739 0.256348 -0.096604
C30   C     C_3   0.764384 0.352415 0.720728 -0.073443
C31   C     C_3   0.299139 0.323571 0.941002 -0.081686
C32   C     C_3   0.586213 0.208858 0.055759 -0.088941
C33   C     C_3   0.764047 0.282522 0.921837 -0.098381
C34   C     C_1   0.527272 0.212305 0.502040 -0.008636
C35   C     C_3   0.216885 0.551636 0.041558 -0.103119
C36   C     C_3   0.703446 0.518975 0.086200 0.040412
C37   C     C_3   0.766461 0.506679 0.013410 -0.282778
C38   C     C_3   0.823401 0.594309 0.002694 -0.492869
C39   C     C_3   0.475025 0.641988 0.939957 0.012864
C40   C     C_3   0.437151 0.699161 0.012617 -0.277842
C41   C     C_3   0.487514 0.792237 0.025049 -0.486260
C42   C     C_3   0.733734 0.009381 0.521653 -0.124979
C43   C     C_3   0.268625 0.992700 0.489455 -0.139011
C44   C     C_3   0.030712 0.710699 0.501363 0.003001
C45   C     C_2   0.455010 0.980097 0.495102 0.302302
C46   C     C_3   0.086955 0.725243 0.587336 -0.262025
C47   C     C_3   0.155455 0.806762 0.588471 -0.480921
C48   C     C_3   0.066411 0.334805 0.576889 -0.005037
C49   C     C_3   0.124214 0.231247 0.571109 -0.236148
C50   C     C_3   0.175562 0.191031 0.654749 -0.481180
C51   C     C_2   0.546287 0.019871 0.504594 0.301760
C52   C     C_1   0.536728 0.125168 0.503155 -0.003431
C53   C     C_1   0.464135 0.874827 0.496575 -0.014346
C54   C     C_2   0.972398 0.464091 0.504142 0.239598
Cu1   Cu    Cu3+1 0.605120 0.493930 0.505020 1.016881
Cu2   Cu    Cu3+1 0.394880 0.506070 0.494980 1.007913
H1    H     H_    0.229653 0.656685 0.752632 0.135832
H2    H     H_    0.804870 0.581187 0.360306 0.209385
H3    H     H_    0.838023 0.599477 0.259741 0.154061
H4    H     H_    0.762663 0.777153 0.266518 0.131581
H5    H     H_    0.871741 0.739969 0.345852 0.158931
H6    H     H_    0.735612 0.757298 0.369438 0.178894
H7    H     H_    0.329235 0.667119 0.303081 0.107062
H8    H     H_    0.187655 0.668707 0.278299 0.135986
H9    H     H_    0.266279 0.686094 0.198653 0.074583
H10   H     H_    0.773982 0.427710 0.741176 0.085721
H11   H     H_    0.791546 0.344028 0.659736 0.140154
H12   H     H_    0.275973 0.594614 0.845347 0.165075
H13   H     H_    0.817868 0.298335 0.761733 0.127056
H14   H     H_    0.273657 0.397995 0.914774 0.105939
H15   H     H_    0.225492 0.290692 0.945044 0.139567
H16   H     H_    0.347112 0.277905 0.899613 0.140089
H17   H     H_    0.648759 0.248929 0.087686 0.138891
H18   H     H_    0.623438 0.132234 0.050391 0.134081
H19   H     H_    0.519395 0.208818 0.092838 0.154816
H20   H     H_    0.744300 0.301792 0.983654 0.157241
H21   H     H_    0.804440 0.340014 0.897680 0.064037
H22   H     H_    0.822151 0.214498 0.927539 0.135261
H23   H     H_    0.239355 0.501514 0.675200 0.180884
H24   H     H_    0.218127 0.621959 0.073602 0.096536
H25   H     H_    0.132008 0.545861 0.018965 0.126018
H26   H     H_    0.260231 0.551117 0.987789 0.144805
H27   H     H_    0.763646 0.518960 0.140849 0.194194
H28   H     H_    0.650252 0.590187 0.079887 0.116057
H29   H     H_    0.827754 0.440897 0.023245 0.159917
H30   H     H_    0.711679 0.497734 0.956997 0.154397
H31   H     H_    0.764089 0.661274 0.991050 0.140057
H32   H     H_    0.869393 0.582486 0.950002 0.143561
H33   H     H_    0.880010 0.604230 0.058073 0.152511
H34   H     H_    0.288089 0.433514 0.767909 0.144954
H35   H     H_    0.445457 0.687118 0.884388 0.182805
H36   H     H_    0.564151 0.629715 0.947278 0.131868
H37   H     H_    0.348446 0.718178 0.002220 0.148245
H38   H     H_    0.458688 0.653945 0.068859 0.148193
H39   H     H_    0.576206 0.774704 0.037671 0.136597
H40   H     H_    0.457691 0.832219 0.077750 0.146353
H41   H     H_    0.465711 0.839761 0.970037 0.159454
H42   H     H_    0.736399 0.058033 0.575259 0.137322
H43   H     H_    0.733154 0.050915 0.464391 0.118389
H44   H     H_    0.808087 0.955792 0.529567 0.138894
H45   H     H_    0.118747 0.506081 0.826096 0.136818
H46   H     H_    0.276215 0.960801 0.551670 0.116321
H47   H     H_    0.259590 0.936326 0.442086 0.117148
H48   H     H_    0.194396 0.046282 0.481041 0.139501
H49   H     H_    0.974922 0.778361 0.483158 0.148084
H50   H     H_    0.087729 0.701550 0.455282 0.123370
H51   H     H_    0.025776 0.743209 0.629434 0.165381
H52   H     H_    0.139322 0.657483 0.609787 0.161441
H53   H     H_    0.218882 0.788629 0.548299 0.162775
H54   H     H_    0.194492 0.816068 0.651411 0.151747
H55   H     H_    0.104883 0.876265 0.567558 0.125885
H56   H     H_    0.095425 0.431043 0.738786 0.129444
H57   H     H_    0.001074 0.334013 0.615695 0.109770
H58   H     H_    0.125669 0.380537 0.605581 0.125958
H59   H     H_    0.066032 0.183629 0.544192 0.160406
H60   H     H_    0.187744 0.230835 0.530793 0.210615
H61   H     H_    0.235581 0.236634 0.682075 0.154864
H62   H     H_    0.216743 0.115781 0.648543 0.158294
H63   H     H_    0.113361 0.189483 0.695863 0.134775
H64   H     H_    0.068735 0.561697 0.727416 0.150002
H65   H     H_    0.611314 0.639564 0.310833 0.141607
H66   H     H_    0.645146 0.653980 0.209881 0.088207
N1    N     N_1   0.763100 0.484810 0.512560 -0.207474
N2    N     N_1   0.236900 0.515190 0.487440 -0.201962
O1    O     O_R   0.601320 0.356300 0.504850 -0.482735
O2    O     O_3   0.664402 0.510095 0.253078 -0.532450
O3    O     O_3   0.278891 0.544058 0.244965 -0.491745
O4    O     O_3   0.657832 0.332262 0.714301 -0.523172
O5    O     O_3   0.356191 0.325480 0.019924 -0.527176
O6    O     O_3   0.548246 0.246623 0.976657 -0.528161
O7    O     O_3   0.671909 0.265452 0.869716 -0.479970
O8    O     O_3   0.258713 0.471534 0.093397 -0.475504
O9    O     O_3   0.645356 0.440009 0.091234 -0.581495
O10   O     O_3   0.433453 0.552756 0.935467 -0.617039
O11   O     O_3   0.644808 0.958517 0.517090 -0.587158
O12   O     O_R   0.398680 0.643700 0.495150 -0.512497
O13   O     O_3   0.356598 0.041267 0.480654 -0.586623
O14   O     O_3   0.968376 0.634031 0.500480 -0.607960
O15   O     O_3   0.024182 0.370101 0.497946 -0.578981
O16   O     O_R   0.423780 0.366550 0.496380 -0.481677
O17   O     O_R   0.576220 0.633450 0.503620 -0.485330
O18   O     O_R   0.599070 0.494270 0.618330 -0.479701
O19   O     O_R   0.400930 0.505730 0.381670 -0.444446
O20   O     O_R   0.421520 0.504520 0.609850 -0.479695
O21   O     O_R   0.578480 0.495480 0.390150 -0.459130
O22   O     O_3   0.387749 0.598121 0.762321 -0.571438

loop_
_geom_bond_atom_site_label_1
_geom_bond_atom_site_label_2
_ccdc_geom_bond_type
Cu1   Cu2   S    
C29   H7    S    
C22   O22   S    
Cu1   O17   S    
C50   H61   S    
C35   H24   S    
C40   H37   S    
C25   H45   S    
C36   O9    S    
C22   H1    S    
C32   O6    S    
C35   H25   S    
C44   H49   S    
C38   H33   S    
C26   C27   S    
Cu2   N2    S    
C37   H29   S    
C36   C37   S    
C1    O1    A    
C42   H42   S    
C32   H18   S    
Cu2   O16   S    
C11   C14   A    
C33   H22   S    
Cu1   O21   S    
C41   H40   S    
C45   C51   D    
C36   H27   S    
C9    O22   S    
C12   O17   A    
C15   C17   A    
C26   O2    S    
C16   O7    S    
C43   H48   S    
C24   H23   S    
C25   H56   S    
C18   O4    S    
Cu2   O19   S    
C51   O11   S    
C31   H14   S    
Cu1   O1    S    
C46   H52   S    
C31   H16   S    
C26   H65   S    
C30   H11   S    
C28   H5    S    
C33   O7    S    
C31   H15   S    
C29   H8    S    
C45   C53   S    
Cu1   O18   S    
C17   O8    S    
C32   H19   S    
C39   H35   S    
Cu2   O12   S    
C35   H26   S    
C44   C46   S    
C1    C34   S    
C23   C53   T    
C30   O4    S    
C28   H4    S    
Cu1   N1    S    
C8    C19   A    
C50   H63   S    
C2    O14   S    
C14   C20   S    
C37   H30   S    
C24   C25   S    
C2    C54   D    
C11   O10   S    
C40   H38   S    
C32   H17   S    
C5    C7    S    
C6    O21   A    
C5    O20   A    
C6    C8    S    
C47   H53   S    
C10   C13   A    
C51   C52   S    
C4    N1    T    
C38   H32   S    
C42   O11   S    
C37   C38   S    
C42   H44   S    
C33   H20   S    
C54   O15   S    
C12   C23   S    
C7    C18   A    
C21   O5    S    
C46   H51   S    
C45   O13   S    
C9    C11   A    
C22   H12   S    
C30   H10   S    
C1    O16   A    
C29   H9    S    
C16   C18   A    
C40   C41   S    
C49   H59   S    
C13   C15   A    
C22   C24   S    
C25   H64   S    
C39   H36   S    
C39   C40   S    
C30   H13   S    
C3    N2    T    
C48   H58   S    
C7    C9    A    
C46   C47   S    
C48   C49   S    
C44   O14   S    
C48   O15   S    
C4    C54   S    
C14   C16   A    
C50   H62   S    
C13   O9    S    
C20   O6    S    
C27   H2    S    
C24   H34   S    
C44   H50   S    
C47   H54   S    
C34   C52   T    
C38   H31   S    
C29   O3    S    
C2    C3    S    
C43   H46   S    
C31   O5    S    
C27   H3    S    
C42   H43   S    
C33   H21   S    
C5    O18   A    
C41   H39   S    
C36   H28   S    
C47   H55   S    
C19   O3    S    
C17   C19   A    
C43   O13   S    
C41   H41   S    
C43   H47   S    
Cu2   O20   S    
C15   C21   S    
C49   H60   S    
C20   C21   D    
C8    C10   A    
C49   C50   S    
C12   O12   A    
C27   C28   S    
C26   H66   S    
C6    O19   A    
C10   O2    S    
C35   O8    S    
C48   H57   S    
C39   O10   S    
C28   H6    S    
