data_mof_unit_30458.cif
_audit_creation_date              2012-12-10T17:46:54-0500
_audit_creation_method            fapswitch 2.2
_symmetry_space_group_name_H-M    P1
_symmetry_Int_Tables_number       1
_space_group_crystal_system       triclinic
_cell_length_a                    17.86183
_cell_length_b                    17.78066
_cell_length_c                    19.382503
_cell_angle_alpha                 100.161017
_cell_angle_beta                  76.019164
_cell_angle_gamma                 115.362629
_cell_volume                      5378.98171064

loop_
_atom_site_label
_atom_site_type_symbol
_atom_type_description
_atom_site_fract_x
_atom_site_fract_y
_atom_site_fract_z
_atom_type_partial_charge
C1    C     C_R   0.456340 0.280509 0.467455 0.591858
C2    C     C_2   0.478815 0.441703 0.976892 0.316020
C3    C     C_2   0.507829 0.513956 0.018103 0.300884
C4    C     C_R   0.542090 0.719758 0.533392 0.512386
C5    C     C_R   0.511783 0.510182 0.236531 0.073128
C6    C     C_R   0.561133 0.810588 0.548191 -0.045224
C7    C     C_R   0.441189 0.192437 0.452152 0.052292
C8    C     C_R   0.642445 0.950729 0.598545 0.264970
C9    C     C_R   0.621520 0.864201 0.590482 0.234105
C10   C     C_R   0.518952 0.844797 0.518795 0.225283
C11   C     C_R   0.550682 0.932079 0.515512 -0.028076
C12   C     C_R   0.483431 0.446686 0.900384 0.027071
C13   C     C_R   0.609786 0.985053 0.558795 -0.049783
C14   C     C_R   0.521777 0.968201 0.473089 -0.008626
C15   C     C_R   0.532498 0.052504 0.490187 -0.020769
C16   C     C_R   0.723085 0.546671 0.468498 0.574296
C17   C     C_R   0.595001 0.104609 0.530234 -0.117833
C18   C     C_R   0.635280 0.071653 0.561563 -0.139222
C19   C     C_R   0.489671 0.925836 0.410402 0.302293
C20   C     C_R   0.450206 0.958713 0.377005 0.263928
C21   C     C_R   0.446906 0.036437 0.402924 -0.080342
C22   C     C_R   0.485997 0.083287 0.461465 -0.043471
C23   C     C_R   0.408614 0.420420 0.874903 -0.207664
C24   C     C_R   0.407239 0.069164 0.369366 -0.112257
C25   C     C_R   0.407949 0.148453 0.391492 0.203712
C26   C     C_R   0.475595 0.158429 0.489665 0.213201
C27   C     C_R   0.184198 0.422824 0.536262 -0.048596
C28   C     C_R   0.276261 0.451794 0.531170 0.511235
C29   C     C_R   0.813322 0.566601 0.457080 0.047537
C30   C     C_R   0.040899 0.315505 0.554114 0.288123
C31   C     C_R   0.126307 0.343354 0.558290 0.272487
C32   C     C_R   0.155166 0.473512 0.512677 -0.191217
C33   C     C_R   0.072448 0.443755 0.500209 -0.025849
C34   C     C_R   0.411188 0.433853 0.805718 -0.213386
C35   C     C_R   0.014418 0.364415 0.523322 0.006244
C36   C     C_R   0.044723 0.492594 0.469145 -0.014810
C37   C     C_R   0.956434 0.466568 0.472003 -0.008133
C38   C     C_R   0.901003 0.387832 0.497038 -0.126635
C39   C     C_R   0.930192 0.336091 0.517458 -0.140322
C40   C     C_R   0.511885 0.511155 0.311770 0.577429
C41   C     C_R   0.101429 0.567505 0.436400 0.266775
C42   C     C_R   0.072017 0.625827 0.428107 0.300960
C43   C     C_R   0.985288 0.606280 0.443368 -0.086618
C44   C     C_R   0.926745 0.522911 0.454678 -0.046350
C45   C     C_R   0.432874 0.474778 0.141500 -0.126360
C46   C     C_R   0.956791 0.669199 0.446102 -0.117057
C47   C     C_R   0.871222 0.650292 0.455847 0.212066
C48   C     C_R   0.840985 0.502331 0.451474 0.207433
C49   C     C_R   0.489214 0.487945 0.688627 0.528752
C50   C     C_R   0.488497 0.476775 0.761984 0.002780
C51   C     C_R   0.564364 0.503998 0.787418 0.268695
C52   C     C_R   0.561886 0.483994 0.855324 0.305807
C53   C     C_3   0.670725 0.630732 0.765992 -0.076738
C54   C     C_3   0.432868 0.165185 0.609697 -0.116559
C55   C     C_3   0.427807 0.214468 0.292740 0.000418
C56   C     C_R   0.434343 0.471589 0.212851 0.197855
C57   C     C_3   0.388261 0.167337 0.228168 -0.393998
C58   C     C_3   0.343111 0.851471 0.331922 -0.100625
C59   C     C_3   0.659168 0.025802 0.706484 -0.015236
C60   C     C_3   0.723925 0.092938 0.747163 -0.380760
C61   C     C_3   0.617800 0.807854 0.689979 0.028161
C62   C     C_3   0.678700 0.834654 0.741435 -0.364933
C63   C     C_3   0.376349 0.790913 0.552079 -0.022702
C64   C     C_3   0.294174 0.738031 0.525865 -0.317673
C65   C     C_3   0.583639 0.878749 0.336654 0.008611
C66   C     C_3   0.597741 0.800640 0.303400 -0.352507
C67   C     C_R   0.587730 0.549406 0.189387 0.202507
C68   C     C_3   0.314412 0.352325 0.239363 -0.027484
C69   C     C_3   0.255420 0.307282 0.304009 -0.351079
C70   C     C_3   0.794851 0.387965 0.373677 -0.007935
C71   C     C_3   0.727949 0.299494 0.366272 -0.356569
C72   C     C_3   0.840598 0.730987 0.398458 -0.116394
C73   C     C_3   0.133966 0.705770 0.333535 -0.145007
C74   C     C_3   0.940004 0.247777 0.646173 -0.118769
C75   C     C_3   0.152568 0.299801 0.650742 0.023582
C76   C     C_3   0.205043 0.258933 0.667214 -0.345604
C77   C     C_3   0.196235 0.537123 0.347111 -0.014557
C78   C     C_R   0.585206 0.547053 0.117048 -0.140255
C79   C     C_3   0.286930 0.576733 0.308026 -0.329339
C80   C     C_3   0.715958 0.664214 0.187134 -0.011805
C81   C     C_3   0.776600 0.717174 0.237023 -0.384574
C82   C     C_3   0.525610 0.651883 0.028693 -0.019114
C83   C     C_3   0.552648 0.724701 0.984133 -0.377421
C84   C     C_3   0.451563 0.301119 0.965077 -0.142313
C85   C     C_3   0.673166 0.450439 0.847909 -0.117405
C86   C     C_R   0.508241 0.511329 0.093682 -0.032881
H1    H     H_    0.642767 0.573384 0.078630 0.141837
H2    H     H_    0.373365 0.449527 0.123305 0.130113
H3    H     H_    0.352432 0.412438 0.786846 0.135747
H4    H     H_    0.728153 0.664153 0.727345 0.145500
H5    H     H_    0.688543 0.643830 0.819351 0.161010
H6    H     H_    0.623474 0.656203 0.766456 0.101342
H7    H     H_    0.419484 0.098489 0.612386 0.112232
H8    H     H_    0.374787 0.171378 0.605263 0.127987
H9    H     H_    0.451558 0.199550 0.660613 0.136359
H10   H     H_    0.491602 0.213828 0.285313 0.121495
H11   H     H_    0.437871 0.280863 0.294460 0.162120
H12   H     H_    0.684578 0.114500 0.590066 0.150476
H13   H     H_    0.324988 0.167693 0.234254 0.157150
H14   H     H_    0.428871 0.197647 0.179114 0.099530
H15   H     H_    0.381746 0.101724 0.222522 0.146397
H16   H     H_    0.296598 0.873387 0.368541 0.123622
H17   H     H_    0.348979 0.802079 0.355525 0.185716
H18   H     H_    0.318382 0.822806 0.282038 0.118568
H19   H     H_    0.623233 0.971964 0.739437 0.118339
H20   H     H_    0.614444 0.051386 0.700098 0.108986
H21   H     H_    0.757322 0.149757 0.717474 0.136177
H22   H     H_    0.691912 0.109276 0.800571 0.085720
H23   H     H_    0.617623 0.171778 0.534191 0.182882
H24   H     H_    0.770445 0.070144 0.754036 0.157694
H25   H     H_    0.585564 0.738706 0.686841 0.156682
H26   H     H_    0.568226 0.832414 0.712833 0.063830
H27   H     H_    0.712791 0.903609 0.746091 0.174386
H28   H     H_    0.643473 0.813586 0.794991 0.063509
H29   H     H_    0.725630 0.806646 0.721748 0.159246
H30   H     H_    0.378086 0.854731 0.569569 0.111441
H31   H     H_    0.377380 0.762396 0.598437 0.103786
H32   H     H_    0.292884 0.675430 0.504886 0.201601
H33   H     H_    0.239837 0.731173 0.570394 0.090847
H34   H     H_    0.377675 0.034577 0.324396 0.172841
H35   H     H_    0.288834 0.767951 0.482663 0.184762
H36   H     H_    0.632286 0.915491 0.370203 0.116951
H37   H     H_    0.591763 0.916315 0.292973 0.141617
H38   H     H_    0.550855 0.762685 0.268800 0.157257
H39   H     H_    0.662111 0.818707 0.270582 0.075172
H40   H     H_    0.591263 0.762501 0.345870 0.179457
H41   H     H_    0.356128 0.319020 0.214132 0.134021
H42   H     H_    0.275634 0.349247 0.201060 0.133226
H43   H     H_    0.211861 0.337949 0.330014 0.151946
H44   H     H_    0.217737 0.241217 0.287191 0.107397
H45   H     H_    0.884594 0.274893 0.532422 0.147816
H46   H     H_    0.292565 0.308798 0.343071 0.185305
H47   H     H_    0.857987 0.385392 0.357530 0.122931
H48   H     H_    0.788986 0.426050 0.336969 0.142598
H49   H     H_    0.664090 0.300018 0.381112 0.188819
H50   H     H_    0.737035 0.272597 0.310235 0.085662
H51   H     H_    0.732780 0.259678 0.401752 0.147833
H52   H     H_    0.818964 0.782312 0.406157 0.154707
H53   H     H_    0.794268 0.675462 0.372563 0.105690
H54   H     H_    0.903762 0.751787 0.362992 0.099620
H55   H     H_    0.162069 0.771906 0.321141 0.121213
H56   H     H_    0.198748 0.536922 0.505254 0.194575
H57   H     H_    0.071150 0.676445 0.317286 0.092907
H58   H     H_    0.175418 0.675534 0.301012 0.125807
H59   H     H_    0.976387 0.303513 0.679401 0.065824
H60   H     H_    0.923069 0.191858 0.674273 0.150540
H61   H     H_    0.880371 0.251477 0.643632 0.108223
H62   H     H_    0.087271 0.268719 0.680098 0.131540
H63   H     H_    0.178830 0.367002 0.670963 0.105791
H64   H     H_    0.271464 0.288393 0.639329 0.201449
H65   H     H_    0.203755 0.266487 0.725545 0.067637
H66   H     H_    0.179040 0.191255 0.649556 0.156897
H67   H     H_    0.833680 0.364496 0.504821 0.189682
H68   H     H_    0.154257 0.533069 0.311026 0.099417
H69   H     H_    0.182779 0.472932 0.358409 0.151523
H70   H     H_    0.330470 0.575944 0.339965 0.220975
H71   H     H_    0.294804 0.541660 0.255371 0.125268
H72   H     H_    0.303115 0.642403 0.299237 0.138278
H73   H     H_    0.679814 0.699941 0.181285 0.113872
H74   H     H_    0.753826 0.654115 0.134525 0.135543
H75   H     H_    0.816073 0.685011 0.242127 0.147909
H76   H     H_    0.818408 0.778461 0.215433 0.092801
H77   H     H_    0.740644 0.727928 0.290381 0.141341
H78   H     H_    0.000752 0.733919 0.442287 0.180576
H79   H     H_    0.558136 0.675212 0.075204 0.130120
H80   H     H_    0.456013 0.628539 0.047757 0.115709
H81   H     H_    0.520876 0.703478 0.937268 0.147067
H82   H     H_    0.535163 0.774711 0.016816 0.094137
H83   H     H_    0.622029 0.750379 0.965135 0.154313
H84   H     H_    0.520464 0.317426 0.949016 0.117669
H85   H     H_    0.421111 0.283265 0.917596 0.116559
H86   H     H_    0.424049 0.245527 0.996081 0.135003
H87   H     H_    0.702058 0.462095 0.791161 0.167885
H88   H     H_    0.627638 0.384080 0.851946 0.077800
H89   H     H_    0.348154 0.390955 0.909188 0.138222
H90   H     H_    0.724431 0.460664 0.875960 0.130546
O1    O     O_3   0.500000 0.500000 0.500000 -0.458726
O2    O     O_R   0.548260 0.471800 0.330740 -0.539712
O3    O     O_R   0.433390 0.433420 0.655640 -0.569584
O4    O     O_R   0.470210 0.546620 0.357990 -0.527855
O5    O     O_R   0.548140 0.548160 0.655640 -0.515122
O6    O     O_3   0.640981 0.544646 0.744054 -0.550999
O7    O     O_3   0.499702 0.200438 0.553154 -0.579402
O8    O     O_3   0.371800 0.181448 0.356021 -0.563843
O9    O     O_3   0.421924 0.918269 0.314528 -0.577270
O10   O     O_3   0.701289 0.001956 0.640314 -0.515250
O11   O     O_3   0.664018 0.833869 0.621639 -0.482793
O12   O     O_R   0.690590 0.583040 0.521630 -0.490518
O13   O     O_3   0.444221 0.792696 0.496112 -0.478073
O14   O     O_3   0.501413 0.854896 0.377720 -0.495275
O15   O     O_3   0.360693 0.436396 0.261898 -0.575811
O16   O     O_3   0.782144 0.420932 0.445210 -0.566941
O17   O     O_3   0.844464 0.714418 0.465638 -0.529514
O18   O     O_3   0.129643 0.703686 0.406975 -0.558867
O19   O     O_3   0.984918 0.237790 0.576688 -0.530104
O20   O     O_3   0.153899 0.288822 0.576451 -0.499585
O21   O     O_3   0.186247 0.586245 0.411518 -0.569386
O22   O     O_3   0.662712 0.586582 0.215527 -0.553097
O23   O     O_R   0.304570 0.412130 0.559980 -0.522934
O24   O     O_3   0.548636 0.589232 0.986193 -0.559654
O25   O     O_3   0.435102 0.366576 0.008946 -0.611373
O26   O     O_3   0.635589 0.506553 0.880347 -0.545214
O27   O     O_R   0.515630 0.331630 0.426410 -0.557024
O28   O     O_R   0.489210 0.673200 0.491990 -0.494453
O29   O     O_R   0.414390 0.306840 0.521640 -0.529204
O30   O     O_R   0.580770 0.688330 0.559970 -0.525571
O31   O     O_R   0.677090 0.493090 0.426400 -0.531741
O32   O     O_R   0.327750 0.511740 0.491990 -0.545137
Zn1   Zn    Zn3+2 0.578510 0.578520 0.558300 0.978801
Zn2   Zn    Zn3+2 0.559220 0.450000 0.422240 0.957510
Zn3   Zn    Zn3+2 0.447700 0.556900 0.461160 0.951158
Zn4   Zn    Zn3+2 0.414570 0.414580 0.558300 0.935938

loop_
_geom_bond_atom_site_label_1
_geom_bond_atom_site_label_2
_ccdc_geom_bond_type
C78   H1    S    
C84   O25   S    
C8    C13   A    
C81   H76   S    
C74   O19   S    
C74   H59   S    
C19   C20   A    
C5    C67   A    
C84   H85   S    
C2    C12   S    
C33   C36   A    
C6    C9    A    
C70   O16   S    
C71   H51   S    
C73   H55   S    
C2    O25   S    
C12   C23   A    
C59   H19   S    
C64   H33   S    
C13   C18   A    
C29   C47   A    
O1    Zn4   S    
C36   C37   A    
C62   H28   S    
C84   H84   S    
O32   Zn3   S    
C71   H49   S    
C30   C31   A    
C63   H31   S    
C11   C14   A    
C80   H74   S    
C23   H89   S    
C76   H66   S    
C64   H35   S    
C57   H13   S    
C61   O11   S    
C85   H90   S    
C64   H32   S    
O2    Zn2   S    
C59   O10   S    
O5    Zn1   S    
O23   Zn4   S    
C41   C42   A    
O1    Zn1   S    
C42   O18   S    
C54   H7    S    
C5    C56   A    
C20   O9    S    
C40   O4    A    
C16   O31   A    
C15   C22   A    
C45   C56   A    
C8    C9    A    
C40   O2    A    
C53   H5    S    
O31   Zn2   S    
C85   H87   S    
C55   O8    S    
O27   Zn2   S    
C70   C71   S    
C58   H16   S    
C1    O29   A    
C68   H42   S    
C32   H56   S    
C60   H22   S    
C25   O8    S    
C26   O7    S    
C51   O6    S    
C72   H52   S    
C79   H70   S    
C56   O15   S    
C59   C60   S    
C46   H78   S    
C21   C22   A    
C58   O9    S    
C81   H77   S    
C36   C41   A    
C67   C78   A    
C79   H72   S    
C12   C52   A    
C47   O17   S    
C17   C18   A    
C77   C79   S    
C24   H34   S    
C10   O13   S    
C34   C50   A    
C29   C48   A    
C27   C31   A    
C51   C52   A    
C28   O23   A    
C74   H61   S    
C45   H2    S    
C60   H24   S    
C24   C25   A    
C62   H27   S    
C41   O21   S    
C16   O12   A    
C71   H50   S    
C31   O20   S    
C68   C69   S    
C80   H73   S    
O29   Zn4   S    
C8    O10   S    
C16   C29   S    
C63   O13   S    
C57   H14   S    
C83   H81   S    
O3    Zn4   S    
C66   H40   S    
C17   H23   S    
O1    Zn2   S    
O4    Zn3   S    
C35   C39   A    
C75   C76   S    
C82   O24   S    
C37   C38   A    
C54   H8    S    
C77   H68   S    
C70   H47   S    
O12   Zn1   S    
C30   O19   S    
C76   H64   S    
C23   C34   A    
C80   O22   S    
C55   H11   S    
C53   H6    S    
C85   H88   S    
C3    O24   S    
C50   C51   A    
C65   H36   S    
C65   O14   S    
C7    C26   A    
C68   H41   S    
C54   H9    S    
C60   H21   S    
C85   O26   S    
C68   O15   S    
C49   O5    A    
C63   H30   S    
C30   C35   A    
C4    C6    S    
C49   C50   S    
C10   C11   A    
C55   C57   S    
C43   C44   A    
C28   O32   A    
C66   H38   S    
C21   C24   A    
C58   H18   S    
C42   C43   A    
C1    O27   A    
C72   O17   S    
C82   H80   S    
C67   O22   S    
C69   H44   S    
C15   C17   A    
C9    O11   S    
C46   C47   A    
C55   H10   S    
C27   C32   A    
C1    C7    S    
C81   H75   S    
C14   C19   A    
C74   H60   S    
C80   C81   S    
C84   H86   S    
C7    C25   A    
C79   H71   S    
C54   O7    S    
C4    O30   A    
C75   H62   S    
C57   H15   S    
C83   H82   S    
C76   H65   S    
C66   H39   S    
C32   C33   A    
O1    Zn3   S    
C37   C44   A    
C2    C3    D    
C53   H4    S    
C34   H3    S    
C62   H29   S    
C65   C66   S    
C53   O6    S    
C75   O20   S    
C11   C13   A    
O30   Zn1   S    
C78   C86   A    
C59   H20   S    
C38   C39   A    
C39   H45   S    
C75   H63   S    
C69   H46   S    
C83   H83   S    
O28   Zn3   S    
C33   C35   A    
C45   C86   A    
C52   O26   S    
C65   H37   S    
C61   C62   S    
C43   C46   A    
C73   H57   S    
C48   O16   S    
C4    O28   A    
C6    C10   A    
C19   O14   S    
C63   C64   S    
C72   H54   S    
C20   C21   A    
C72   H53   S    
C69   H43   S    
C82   C83   S    
C22   C26   A    
C5    C40   S    
C27   C28   S    
C70   H48   S    
C14   C15   A    
C58   H17   S    
C18   H12   S    
C38   H67   S    
C49   O3    A    
C73   O18   S    
C61   H26   S    
C77   O21   S    
C73   H58   S    
C77   H69   S    
C44   C48   A    
C3    C86   S    
C82   H79   S    
C61   H25   S    
