data_mof_unit_54541.cif
_audit_creation_date              2012-12-11T14:03:17-0500
_audit_creation_method            fapswitch 2.2
_symmetry_space_group_name_H-M    P1
_symmetry_Int_Tables_number       1
_space_group_crystal_system       triclinic
_cell_length_a                    6.954389
_cell_length_b                    11.357211
_cell_length_c                    18.816605
_cell_angle_alpha                 90.000112
_cell_angle_beta                  92.795257
_cell_angle_gamma                 90.000119
_cell_volume                      1484.41352069

loop_
_atom_site_label
_atom_site_type_symbol
_atom_type_description
_atom_site_fract_x
_atom_site_fract_y
_atom_site_fract_z
_atom_type_partial_charge
O1    O     O_R   0.330540 0.606360 0.598870 -0.536625
O2    O     O_R   0.669460 0.106360 0.401130 -0.536624
O3    O     O_R   0.026770 0.620470 0.750430 -0.551968
O4    O     O_R   0.973230 0.120470 0.249570 -0.551968
O5    O     O_R   0.856460 0.393640 0.750930 -0.551743
O6    O     O_R   0.143540 0.893640 0.249070 -0.551739
C1    C     C_R   0.198626 0.648705 0.773967 0.686807
C2    C     C_R   0.801374 0.148706 0.226033 0.686802
O7    O     O_R   0.000920 0.620350 0.599420 -0.547081
O8    O     O_R   0.999080 0.120350 0.400580 -0.547081
O9    O     O_R   0.830430 0.393520 0.598850 -0.535711
O10   O     O_R   0.169570 0.893520 0.401150 -0.535710
C3    C     C_R   0.166732 0.647839 0.574573 0.769704
C4    C     C_R   0.833268 0.147839 0.425427 0.769704
O11   O     O_R   0.356570 0.606480 0.750960 -0.542729
O12   O     O_R   0.643430 0.106480 0.249040 -0.542731
O13   O     O_3   0.176990 0.425580 0.674890 -0.371882
O14   O     O_3   0.823010 0.925580 0.325110 -0.371881
V1    V     V_3+5 0.902170 0.513810 0.674910 1.385974
V2    V     V_3+5 0.097830 0.013810 0.325090 1.385978
O15   O     O_R   0.500800 0.379530 0.599380 -0.547402
O16   O     O_R   0.499200 0.879530 0.400620 -0.547402
C5    C     C_R   0.666625 0.352048 0.574540 0.772222
C6    C     C_R   0.333374 0.852048 0.425459 0.772223
O17   O     O_R   0.526650 0.379650 0.750390 -0.539202
O18   O     O_R   0.473350 0.879650 0.249610 -0.539208
C7    C     C_R   0.698312 0.354032 0.775337 0.693778
C8    C     C_R   0.301688 0.854032 0.224663 0.693767
V3    V     V_3+5 0.402160 0.486190 0.674900 1.406500
V4    V     V_3+5 0.597840 0.986190 0.325100 1.406493
O19   O     O_3   0.677210 0.574420 0.674910 -0.379089
O20   O     O_3   0.322790 0.074420 0.325090 -0.379088
C9    C     C_R   0.729052 0.079836 0.882347 -0.128609
C10   C     C_R   0.270935 0.579834 0.117654 -0.128601
H1    H     H_    0.723790 0.123913 0.772327 0.127506
H2    H     H_    0.276224 0.623912 0.227676 0.127503
H3    H     H_    0.728320 0.986612 0.870111 0.179499
H4    H     H_    0.271667 0.486611 0.129891 0.179499
C11   C     C_R   0.715500 0.278867 0.838176 -0.113833
C12   C     C_R   0.284498 0.778864 0.161824 -0.113829
C13   C     C_R   0.818063 0.351832 0.183833 -0.180048
C14   C     C_R   0.181939 0.851831 0.816171 -0.180044
C15   C     C_R   0.834316 0.433427 0.129767 -0.152503
C16   C     C_R   0.165646 0.933427 0.870237 -0.152500
C17   C     C_R   0.816885 0.397732 0.059064 -0.025257
C18   C     C_R   0.183050 0.897730 0.940940 -0.025201
C19   C     C_R   0.767798 0.280936 0.039878 0.094586
C20   C     C_R   0.232164 0.780932 0.960124 0.094590
C21   C     C_R   0.761322 0.196571 0.095627 -0.015589
C22   C     C_R   0.238654 0.696567 0.904373 -0.015617
C23   C     C_R   0.740818 0.243840 0.967253 -0.066445
C24   C     C_R   0.259151 0.743836 0.032748 -0.066448
C25   C     C_R   0.734953 0.120319 0.952742 0.018578
C26   C     C_R   0.265020 0.620316 0.047259 0.018571
C27   C     C_R   0.733442 0.037677 0.008365 0.374417
C28   C     C_R   0.266510 0.537673 0.991635 0.374439
C29   C     C_R   0.740370 0.076724 0.078836 -0.266743
C30   C     C_R   0.259595 0.576720 0.921165 -0.266728
C31   C     C_R   0.716931 0.324691 0.908858 0.348492
C32   C     C_R   0.283047 0.824688 0.091141 0.348450
C33   C     C_R   0.725860 0.158159 0.826146 -0.269355
C34   C     C_R   0.274143 0.658157 0.173855 -0.269345
C35   C     C_R   0.786554 0.233316 0.167487 -0.052079
C36   C     C_R   0.213445 0.733313 0.832514 -0.052087
H5    H     H_    0.839016 0.380203 0.238654 0.105228
H6    H     H_    0.161005 0.880205 0.761349 0.105228
H7    H     H_    0.856396 0.461138 0.020698 0.160762
H8    H     H_    0.143487 0.961133 0.979307 0.160749
H9    H     H_    0.868576 0.524153 0.142657 0.131373
H10   H     H_    0.131368 0.024155 0.857348 0.131367
H11   H     H_    0.734915 0.011601 0.120683 0.131628
H12   H     H_    0.265060 0.511596 0.879317 0.131640
C37   C     C_2   0.831771 0.233636 0.484668 -0.350505
C38   C     C_2   0.168229 0.733635 0.515332 -0.350505
H13   H     H_    0.969096 0.270329 0.503701 0.150992
H14   H     H_    0.030905 0.770329 0.496299 0.150993
C39   C     C_2   0.668137 0.266253 0.515298 -0.350634
C40   C     C_2   0.331862 0.766253 0.484701 -0.350635
H15   H     H_    0.530814 0.229562 0.496262 0.150828
H16   H     H_    0.469186 0.729562 0.503737 0.150828
O21   O     O_3   0.722953 0.918728 0.992648 -0.650629
H17   H     H_    0.727697 0.872567 0.037435 0.297620
O22   O     O_3   0.276975 0.418725 0.007352 -0.650607
H18   H     H_    0.272040 0.372560 0.962564 0.297555
O23   O     O_3   0.653331 0.439197 0.922557 -0.567000
C41   C     C_3   0.754582 0.527977 0.886702 0.067004
H19   H     H_    0.674170 0.550364 0.836238 0.162959
H20   H     H_    0.904034 0.501180 0.875875 0.109474
C42   C     C_3   0.762846 0.642010 0.929895 -0.677183
H21   H     H_    0.873211 0.637439 0.974153 0.189255
H22   H     H_    0.800905 0.716556 0.895039 0.206158
H23   H     H_    0.622345 0.661174 0.952410 0.248514
O24   O     O_3   0.346636 0.939196 0.077436 -0.567024
C43   C     C_3   0.245406 0.027975 0.113297 0.067011
H24   H     H_    0.325840 0.050358 0.163757 0.162955
H25   H     H_    0.095959 0.001181 0.124132 0.109503
C44   C     C_3   0.237133 0.142008 0.070105 -0.677203
H26   H     H_    0.126747 0.137444 0.025858 0.189257
H27   H     H_    0.199103 0.216555 0.104961 0.206161
H28   H     H_    0.377616 0.161167 0.047579 0.248525

loop_
_geom_bond_atom_site_label_1
_geom_bond_atom_site_label_2
_ccdc_geom_bond_type
O24   C43   S    
C21   C35   A    
C22   C36   A    
O4    C2    A    
V1    O19   S    
C44   H26   S    
C12   C34   A    
C19   C21   A    
O23   C41   S    
C37   H13   S    
O9    V1    S    
C38   H14   S    
C12   C32   A    
O21   H17   S    
O3    C1    A    
C41   H20   S    
C8    C12   S    
O12   V4    S    
C10   C34   A    
C21   C29   A    
C29   H11   S    
C17   C19   A    
O7    C3    A    
C24   C32   A    
O5    C7    A    
O7    V1    S    
O6    C8    A    
C7    C11   S    
C17   H7    S    
O3    V1    S    
O14   V4    S    
C27   O21   S    
C32   O24   S    
C24   C26   A    
C39   H15   S    
C2    O12   A    
O17   V3    S    
C13   C15   A    
C14   C16   A    
H2    C34   S    
C44   H27   S    
C16   C18   A    
O11   V3    S    
C18   C20   A    
C25   C27   A    
C9    C25   A    
C11   C33   A    
C26   C28   A    
C22   C30   A    
C4    C37   S    
O8    C4    A    
O8    V2    S    
C41   H19   S    
C19   C23   A    
C1    O11   A    
C43   C44   S    
O15   V3    S    
C9    H3    S    
C23   C25   A    
C31   O23   S    
C18   H8    S    
O22   H18   S    
C11   C31   A    
O10   V2    S    
O1    V3    S    
C40   H16   S    
H1    C33   S    
C5    C39   S    
C42   H23   S    
C43   H25   S    
C20   C22   A    
C15   C17   A    
C6    C40   S    
C10   C26   A    
O15   C5    A    
O16   C6    A    
O1    C3    A    
C13   C35   A    
C14   C36   A    
C44   H28   S    
C16   H10   S    
C28   O22   S    
V2    O20   S    
O16   V4    S    
C10   H4    S    
C41   C42   S    
C13   H5    S    
O18   V4    S    
O5    V1    S    
O17   C7    A    
O6    V2    S    
O10   C6    A    
O18   C8    A    
O2    V4    S    
C27   C29   A    
V3    O19   S    
O13   V3    S    
V4    O20   S    
C30   H12   S    
O9    C5    A    
O13   V1    S    
C28   C30   A    
O14   V2    S    
C43   H24   S    
O2    C4    A    
C1    C36   S    
C2    C35   S    
O4    V2    S    
C20   C24   A    
C23   C31   A    
C3    C38   S    
C9    C33   A    
C42   H22   S    
C38   C40   D    
C14   H6    S    
C37   C39   D    
C42   H21   S    
C15   H9    S    
