data_mof_unit_36937.cif
_audit_creation_date              2012-10-26T19:27:19-0400
_audit_creation_method            fapswitch 2.2
_symmetry_space_group_name_H-M    P1
_symmetry_Int_Tables_number       1
_space_group_crystal_system       triclinic
_cell_length_a                    13.853218
_cell_length_b                    14.943912
_cell_length_c                    16.206547
_cell_angle_alpha                 89.484958
_cell_angle_beta                  88.185776
_cell_angle_gamma                 91.251997
_cell_volume                      3352.46023749

loop_
_atom_site_label
_atom_site_type_symbol
_atom_type_description
_atom_site_fract_x
_atom_site_fract_y
_atom_site_fract_z
_atom_type_partial_charge
C1    C     C_R   0.500619 0.670829 0.498718 0.609881
C2    C     C_R   0.469653 0.904945 0.569954 -0.035856
C3    C     C_R   0.470528 0.046055 0.492364 -0.145046
C4    C     C_R   0.471675 0.951776 0.493285 -0.142263
C5    C     C_R   0.464297 0.092359 0.568273 -0.040892
C6    C     C_R   0.477288 0.904497 0.417959 -0.025992
C7    C     C_R   0.480892 0.046127 0.340845 0.306347
C8    C     C_R   0.446081 0.951175 0.643503 0.294609
C9    C     C_R   0.469950 0.951986 0.342400 0.284363
C10   C     C_R   0.440662 0.044403 0.642098 0.293841
C11   C     C_R   0.207222 0.568646 0.463492 0.384790
C12   C     C_R   0.499054 0.329064 0.497146 0.608461
C13   C     C_R   0.790189 0.438997 0.547575 0.379708
C14   C     C_R   0.202758 0.429295 0.534982 0.410626
C15   C     C_R   0.797410 0.561452 0.453123 0.382057
C16   C     C_R   0.488969 0.502615 0.653122 0.561537
C17   C     C_R   0.510518 0.502962 0.346987 0.565348
C18   C     C_R   0.099273 0.430291 0.540595 -0.031943
C19   C     C_R   0.900190 0.556412 0.445340 -0.046997
C20   C     C_R   0.050909 0.494144 0.494067 -0.150353
C21   C     C_R   0.948059 0.493462 0.493401 -0.143464
C22   C     C_R   0.105509 0.561482 0.451274 -0.041622
C23   C     C_R   0.483939 0.185004 0.568837 0.204530
C24   C     C_R   0.893048 0.430360 0.541079 -0.048668
C25   C     C_R   0.044452 0.365970 0.588601 0.295082
C26   C     C_R   0.955978 0.612201 0.390041 0.263459
C27   C     C_R   0.942001 0.361316 0.582403 0.269351
C28   C     C_R   0.057533 0.621292 0.398714 0.276652
C29   C     C_R   0.486898 0.520518 0.743697 -0.027915
C30   C     C_R   0.509421 0.524916 0.257226 -0.024774
C31   C     C_R   0.570164 0.557354 0.778520 -0.210459
C32   C     C_R   0.431042 0.573429 0.228693 -0.177989
C33   C     C_R   0.567315 0.593824 0.857155 -0.187366
C34   C     C_R   0.491674 0.811119 0.420177 0.213166
C35   C     C_R   0.433944 0.611982 0.150309 -0.180777
C36   C     C_R   0.480200 0.597738 0.902747 -0.013115
C37   C     C_R   0.514386 0.602100 0.097190 -0.017878
C38   C     C_R   0.397093 0.554543 0.872152 0.295744
C39   C     C_R   0.588875 0.545218 0.120766 0.255890
C40   C     C_R   0.400817 0.513881 0.793548 0.288177
C41   C     C_R   0.587249 0.507463 0.201905 0.260675
C42   C     C_2   0.471747 0.669775 0.964710 0.284698
C43   C     C_2   0.529777 0.670199 0.030848 0.284295
C44   C     C_3   0.239094 0.711411 0.501373 -0.068535
C45   C     C_R   0.494641 0.232122 0.494289 -0.009503
C46   C     C_3   0.752288 0.426901 0.685120 -0.083820
C47   C     C_3   0.237444 0.285690 0.503507 -0.091957
C48   C     C_3   0.768854 0.709612 0.468236 -0.086528
C49   C     C_3   0.070732 0.228925 0.655484 -0.079835
C50   C     C_3   0.938943 0.624762 0.250446 -0.123211
C51   C     C_3   0.860998 0.230700 0.556696 -0.129584
C52   C     C_3   0.079580 0.770478 0.360809 -0.095519
C53   C     C_3   0.744513 0.496270 0.237402 -0.064399
C54   C     C_3   0.323267 0.382894 0.764908 -0.071668
C55   C     C_3   0.652333 0.771874 0.012432 -0.096846
C56   C     C_R   0.499731 0.767398 0.496382 -0.013461
C57   C     C_3   0.363470 0.780933 0.979767 -0.093702
C58   C     C_3   0.303346 0.498134 0.978694 -0.016835
C59   C     C_3   0.216588 0.517745 0.034946 -0.369272
C60   C     C_3   0.649273 0.452534 0.023245 -0.010248
C61   C     C_3   0.731972 0.439016 0.960931 -0.376619
C62   C     C_3   0.587239 0.221233 0.669833 -0.071780
C63   C     C_3   0.583613 0.753483 0.314268 -0.065154
C64   C     C_3   0.417638 0.270627 0.319399 -0.092456
C65   C     C_3   0.588820 0.769792 0.672405 -0.079226
C66   C     C_3   0.428864 0.089196 0.212324 -0.069285
C67   C     C_R   0.491374 0.188387 0.417949 0.222275
C68   C     C_3   0.339318 0.872201 0.727464 -0.049045
C69   C     C_3   0.364197 0.879712 0.260018 -0.087938
C70   C     C_3   0.322150 0.119084 0.711516 -0.095407
C71   C     C_R   0.490038 0.813051 0.570909 0.197627
C72   C     C_R   0.481725 0.093808 0.416267 -0.012298
Cu1   Cu    Cu3+1 0.402580 0.500010 0.500000 1.056842
Cu2   Cu    Cu3+1 0.597420 0.499990 0.500000 1.040033
H1    H     H_    0.635938 0.566993 0.741983 0.121633
H2    H     H_    0.815250 0.396183 0.713804 0.159676
H3    H     H_    0.161138 0.263291 0.498746 0.078160
H4    H     H_    0.279176 0.226905 0.522496 0.117886
H5    H     H_    0.264220 0.307311 0.440993 0.090985
H6    H     H_    0.842591 0.738190 0.456254 0.125879
H7    H     H_    0.758196 0.695098 0.535470 0.083795
H8    H     H_    0.717369 0.762199 0.452017 0.113093
H9    H     H_    0.056425 0.198914 0.594552 0.091931
H10   H     H_    0.010170 0.214556 0.700423 0.168599
H11   H     H_    0.134660 0.195201 0.679429 0.092477
H12   H     H_    0.369955 0.587976 0.269387 0.192094
H13   H     H_    0.940863 0.550272 0.250041 0.083894
H14   H     H_    0.010245 0.652904 0.229161 0.158722
H15   H     H_    0.885940 0.646016 0.204709 0.122749
H16   H     H_    0.921920 0.212565 0.514051 0.077580
H17   H     H_    0.801902 0.258653 0.520349 0.160696
H18   H     H_    0.832690 0.168082 0.586750 0.120450
H19   H     H_    0.143386 0.816701 0.357706 0.108105
H20   H     H_    0.041081 0.781600 0.421205 0.082259
H21   H     H_    0.032462 0.789472 0.309735 0.150302
H22   H     H_    0.789199 0.456341 0.279070 0.136553
H23   H     H_    0.376409 0.655967 0.133671 0.122356
H24   H     H_    0.733778 0.562539 0.266951 0.161101
H25   H     H_    0.785452 0.504565 0.177777 0.144708
H26   H     H_    0.378126 0.359506 0.718981 0.171250
H27   H     H_    0.252525 0.353306 0.748205 0.197041
H28   H     H_    0.339712 0.357137 0.827441 0.063795
H29   H     H_    0.706120 0.718225 0.019499 0.126713
H30   H     H_    0.684420 0.834482 0.036925 0.140851
H31   H     H_    0.638429 0.783692 0.946020 0.141616
H32   H     H_    0.303098 0.730472 0.981667 0.130433
H33   H     H_    0.336621 0.842467 0.950296 0.130970
H34   H     H_    0.631202 0.628694 0.878193 0.118276
H35   H     H_    0.384106 0.798565 0.043433 0.140335
H36   H     H_    0.368835 0.500002 0.016817 0.097908
H37   H     H_    0.293768 0.429632 0.953608 0.135275
H38   H     H_    0.149272 0.513812 0.999589 0.164105
H39   H     H_    0.211378 0.468038 0.086332 0.092618
H40   H     H_    0.224477 0.585798 0.061221 0.140073
H41   H     H_    0.580866 0.455796 0.989063 0.108448
H42   H     H_    0.645292 0.393619 0.065919 0.173542
H43   H     H_    0.800887 0.432555 0.993453 0.156055
H44   H     H_    0.718365 0.377189 0.925208 0.095519
H45   H     H_    0.277773 0.774518 0.482664 0.119919
H46   H     H_    0.738401 0.496830 0.917460 0.147320
H47   H     H_    0.597010 0.264912 0.724005 0.135471
H48   H     H_    0.642458 0.241600 0.621616 0.161137
H49   H     H_    0.599673 0.151243 0.689970 0.140966
H50   H     H_    0.578194 0.743489 0.246813 0.187734
H51   H     H_    0.617687 0.693441 0.339548 0.166524
H52   H     H_    0.630306 0.814203 0.322949 0.123231
H53   H     H_    0.356391 0.221571 0.328304 0.066919
H54   H     H_    0.424932 0.287032 0.252608 0.136600
H55   H     H_    0.400215 0.333624 0.350960 0.130739
H56   H     H_    0.266349 0.689986 0.562180 0.136144
H57   H     H_    0.588021 0.746793 0.737631 0.166892
H58   H     H_    0.620062 0.839178 0.670819 0.117746
H59   H     H_    0.635640 0.724450 0.636009 0.092305
H60   H     H_    0.356519 0.090527 0.244257 0.057590
H61   H     H_    0.434081 0.031312 0.170234 0.166468
H62   H     H_    0.435625 0.149869 0.172512 0.122478
H63   H     H_    0.315100 0.836615 0.671371 0.099941
H64   H     H_    0.288446 0.925940 0.743819 0.090268
H65   H     H_    0.336341 0.822809 0.779046 0.180965
H66   H     H_    0.315833 0.937823 0.256774 0.049465
H67   H     H_    0.161302 0.726488 0.509542 0.077496
H68   H     H_    0.337549 0.834531 0.311067 0.171355
H69   H     H_    0.358271 0.842224 0.201570 0.140951
H70   H     H_    0.319299 0.179502 0.671427 0.163051
H71   H     H_    0.297644 0.138589 0.774507 0.126504
H72   H     H_    0.270142 0.067430 0.689527 0.056646
H73   H     H_    0.688588 0.410740 0.726057 0.119307
H74   H     H_    0.763608 0.500969 0.683903 0.073673
N1    N     N_R   0.256180 0.500070 0.500030 -0.244477
N2    N     N_R   0.743820 0.499930 0.499970 -0.234458
O1    O     O_R   0.417720 0.629750 0.499980 -0.450085
O2    O     O_3   0.735962 0.390661 0.606224 -0.523681
O3    O     O_3   0.249597 0.354538 0.562236 -0.492150
O4    O     O_3   0.751167 0.633196 0.419231 -0.526564
O5    O     O_3   0.091485 0.321758 0.651474 -0.535956
O6    O     O_3   0.910552 0.658763 0.328428 -0.559280
O7    O     O_3   0.890340 0.290328 0.618886 -0.570830
O8    O     O_3   0.111981 0.681973 0.349963 -0.542799
O9    O     O_3   0.657165 0.448790 0.225932 -0.551330
O10   O     O_3   0.316715 0.477028 0.763335 -0.518550
O11   O     O_3   0.566027 0.751595 0.057701 -0.545700
O12   O     O_R   0.582280 0.370250 0.500020 -0.454699
O13   O     O_3   0.443423 0.750997 0.932536 -0.526959
O14   O     O_3   0.308921 0.561702 0.913628 -0.533476
O15   O     O_3   0.666503 0.532265 0.066961 -0.582293
O16   O     O_3   0.492519 0.231169 0.642088 -0.560995
O17   O     O_3   0.489461 0.760556 0.348912 -0.547649
O18   O     O_3   0.506529 0.237758 0.345683 -0.502209
O19   O     O_3   0.493461 0.765465 0.644454 -0.536007
O20   O     O_3   0.506199 0.090095 0.267081 -0.490319
O21   O     O_3   0.434713 0.907015 0.718797 -0.493165
O22   O     O_3   0.461860 0.907124 0.268536 -0.521944
O23   O     O_R   0.582260 0.629730 0.499990 -0.499238
O24   O     O_3   0.417270 0.087267 0.715246 -0.508578
O25   O     O_R   0.417740 0.370270 0.500010 -0.484794
O26   O     O_R   0.408190 0.500030 0.613590 -0.431384
O27   O     O_R   0.591810 0.499970 0.386410 -0.445387
O28   O     O_R   0.572730 0.500000 0.613600 -0.489794
O29   O     O_R   0.427270 0.500000 0.386400 -0.520001
O30   O     O_3   0.256462 0.646314 0.439802 -0.484122

loop_
_geom_bond_atom_site_label_1
_geom_bond_atom_site_label_2
_ccdc_geom_bond_type
C67   O18   S    
C10   O24   S    
C46   O2    S    
C34   C56   A    
C23   C45   A    
C25   O5    S    
Cu1   Cu2   S    
C14   C18   A    
C54   H27   S    
C36   C42   S    
C24   C27   A    
C47   H5    S    
C58   O14   S    
C44   O30   S    
C6    C9    A    
C46   H2    S    
C63   H50   S    
C39   C41   A    
C53   H25   S    
C15   C19   A    
C33   H34   S    
C1    O23   A    
C26   O6    S    
C60   H41   S    
C55   H31   S    
C49   H10   S    
C35   C37   A    
C1    C56   S    
C13   N2    A    
C51   H16   S    
C68   O21   S    
C44   H56   S    
C55   H29   S    
C33   C36   A    
C48   H7    S    
C14   N1    A    
C52   H21   S    
C67   C72   A    
C19   C26   A    
C15   O4    S    
C51   H17   S    
C66   H60   S    
C68   H64   S    
C11   N1    A    
C57   H35   S    
C50   O6    S    
C44   H67   S    
C64   H54   S    
C5    C23   A    
C45   C67   A    
C31   C33   A    
C30   C41   A    
C52   H20   S    
C70   H72   S    
C8    O21   S    
C50   H14   S    
C17   O29   A    
C69   H66   S    
C63   O17   S    
C57   H32   S    
C38   C40   A    
C41   O9    S    
Cu1   O1    S    
C53   H22   S    
C17   C30   S    
C54   H26   S    
C68   H63   S    
C18   C25   A    
C57   O13   S    
C62   H49   S    
C65   H57   S    
C16   O28   A    
Cu1   O25   S    
C52   O8    S    
C37   C39   A    
C46   H74   S    
C53   O9    S    
C61   H43   S    
C58   H37   S    
C32   C35   A    
C49   H11   S    
C55   O11   S    
Cu2   O23   S    
C4    C6    A    
C7    C72   A    
Cu2   O12   S    
C40   O10   S    
C42   O13   S    
C47   O3    S    
C44   H45   S    
C69   H68   S    
C12   O12   A    
C55   H30   S    
C51   O7    S    
C6    C34   A    
C13   C24   A    
C65   O19   S    
C60   C61   S    
C69   O22   S    
C39   O15   S    
C2    C4    A    
C19   C21   A    
C51   H18   S    
C23   O16   S    
C50   H15   S    
C31   H1    S    
C46   H73   S    
Cu2   O28   S    
C59   H39   S    
C64   H53   S    
C32   H12   S    
C28   O8    S    
C59   H38   S    
C21   C24   A    
C52   H19   S    
C70   H71   S    
C2    C71   A    
C20   C21   A    
C70   O24   S    
C63   H51   S    
C50   H13   S    
C12   O25   A    
C66   H62   S    
C43   O11   S    
C62   O16   S    
C20   C22   A    
C71   O19   S    
C14   O3    S    
C64   O18   S    
C37   C43   S    
C60   H42   S    
C69   H69   S    
C42   C43   D    
C47   H3    S    
C3    C4    A    
C62   H48   S    
C65   H58   S    
C17   O27   A    
C7    C9    A    
C48   O4    S    
Cu1   N1    S    
C61   H44   S    
C58   H36   S    
C26   C28   A    
C66   O20   S    
C2    C8    A    
C13   O2    S    
C12   C45   S    
C3    C5    A    
C53   H24   S    
C25   C27   A    
C11   C22   A    
C70   H70   S    
C60   O15   S    
C54   H28   S    
C49   H9    S    
Cu1   O26   S    
C36   C38   A    
C3    C72   A    
C58   C59   S    
C5    C10   A    
C29   C31   A    
C30   C32   A    
C48   H6    S    
Cu2   O27   S    
C59   H40   S    
C29   C40   A    
C38   O14   S    
C48   H8    S    
C1    O1    A    
C18   C20   A    
C15   N2    A    
C49   O5    S    
C63   H52   S    
C16   O26   A    
C54   O10   S    
C66   H61   S    
Cu1   O29   S    
C27   O7    S    
C64   H55   S    
C16   C29   S    
C8    C10   A    
C68   H65   S    
C7    O20   S    
C57   H33   S    
Cu2   N2    S    
C9    O22   S    
C22   C28   A    
C11   O30   S    
C47   H4    S    
C35   H23   S    
C62   H47   S    
C65   H59   S    
C34   O17   S    
C56   C71   A    
C61   H46   S    
