data_mof_unit_22049.cif
_audit_creation_date              2013-03-05T15:40:11-0500
_audit_creation_method            fapswitch 2.2
_symmetry_space_group_name_H-M    P1
_symmetry_Int_Tables_number       1
_space_group_crystal_system       triclinic
_cell_length_a                    10.904962
_cell_length_b                    10.850115
_cell_length_c                    15.512568
_cell_angle_alpha                 96.414411
_cell_angle_beta                  74.945159
_cell_angle_gamma                 98.197935
_cell_volume                      1748.97629859

loop_
_atom_site_label
_atom_site_type_symbol
_atom_site_description
_atom_site_fract_x
_atom_site_fract_y
_atom_site_fract_z
_atom_type_partial_charge
Zn1   Zn    Zn3+2 0.580150 0.419820 0.574680 0.958318
Zn2   Zn    Zn3+2 0.401380 0.373730 0.437510 0.954561
Zn3   Zn    Zn3+2 0.631680 0.593260 0.413140 0.949099
Zn4   Zn    Zn3+2 0.386790 0.613180 0.574670 1.009912
O1    O     O_3   0.500000 0.500000 0.500000 -0.491050
O2    O     O_R   0.212140 0.566330 0.564260 -0.645411
O3    O     O_R   0.764730 0.456770 0.540270 -0.665675
O4    O     O_R   0.412790 0.208310 0.468260 -0.649383
O5    O     O_R   0.610350 0.768590 0.427210 -0.652244
O6    O     O_R   0.463530 0.379110 0.309170 -0.638078
O7    O     O_R   0.388210 0.611730 0.699360 -0.624612
O8    O     O_R   0.624720 0.532760 0.292120 -0.650332
O9    O     O_R   0.523540 0.476390 0.699360 -0.650356
O10   O     O_R   0.537910 0.240570 0.564270 -0.638639
O11   O     O_R   0.438950 0.782540 0.540270 -0.583655
O12   O     O_R   0.222350 0.398740 0.468260 -0.653847
O13   O     O_R   0.800790 0.578160 0.427210 -0.643719
C1    C     C_R   0.159251 0.477815 0.520534 0.853069
C2    C     C_R   0.842003 0.521951 0.481374 0.839876
C3    C     C_R   0.470134 0.168236 0.519844 0.796770
C4    C     C_R   0.529090 0.833494 0.480929 0.915942
C5    C     C_R   0.555910 0.444226 0.259221 0.793096
C6    C     C_R   0.443367 0.551238 0.742421 0.808888
C7    C     C_R   0.670853 0.309362 0.024034 0.108822
H1    H     H_    0.709060 0.287857 0.150864 0.128897
H2    H     H_    0.612619 0.239538 0.864799 0.164271
C8    C     C_R   0.577627 0.422599 0.163292 -0.005474
C9    C     C_R   0.381368 0.691631 0.878472 -0.252386
C10   C     C_R   0.400356 0.745294 0.960707 0.131452
C11   C     C_R   0.463193 0.681876 0.009389 0.077743
C12   C     C_R   0.490003 0.555520 0.978163 0.015150
C13   C     C_R   0.473754 0.506606 0.892174 0.055650
C14   C     C_R   0.538731 0.476658 0.026309 0.065840
C15   C     C_R   0.601058 0.372505 0.980876 0.133825
C16   C     C_R   0.580775 0.326754 0.897609 -0.262914
C17   C     C_R   0.506813 0.385983 0.859123 -0.162055
C18   C     C_R   0.517112 0.490249 0.119410 -0.290350
C19   C     C_R   0.658667 0.336446 0.115883 -0.242787
C20   C     C_R   0.427424 0.579513 0.840208 -0.123118
H3    H     H_    0.449772 0.549997 0.159228 0.161416
H4    H     H_    0.339996 0.744458 0.840100 0.200701
H5    H     H_    0.477532 0.335286 0.802508 0.190879
C21   C     C_2   0.978307 0.536653 0.480197 -0.119348
C22   C     C_2   0.024039 0.464344 0.529045 -0.055628
C23   C     C_2   0.534698 0.966292 0.473064 -0.513819
H6    H     H_    0.602742 0.006594 0.415736 0.133578
C24   C     C_2   0.455746 0.038013 0.532130 0.204973
C25   C     C_3   0.943720 0.359589 0.585457 -0.412409
C26   C     C_3   0.018527 0.283118 0.627792 -0.363787
C27   C     C_3   0.928718 0.184630 0.684176 -0.846681
H7    H     H_    0.856593 0.229541 0.738137 0.250837
H8    H     H_    0.878794 0.117189 0.641559 0.265483
H9    H     H_    0.984692 0.132765 0.715255 0.273426
H10   H     H_    0.088694 0.234501 0.574573 0.251678
H11   H     H_    0.070681 0.346167 0.671485 0.216965
H12   H     H_    0.872818 0.402315 0.641751 0.244054
H13   H     H_    0.893661 0.292852 0.542387 0.229605
N1    N     N_R   0.374310 0.997009 0.615191 0.228713
O14   O     O_R   0.257759 0.025669 0.640445 -0.433952
O15   O     O_R   0.424864 0.961494 0.674294 -0.390016
C28   C     C_3   0.762497 0.218003 0.973950 -0.424542
C29   C     C_3   0.698017 0.083112 0.977560 -0.368071
C30   C     C_3   0.788376 0.992910 0.921035 -0.855145
H14   H     H_    0.818512 0.017085 0.850288 0.269755
H15   H     H_    0.874332 0.996746 0.947513 0.265546
H16   H     H_    0.739139 0.896060 0.922649 0.246248
H17   H     H_    0.669617 0.058090 0.048152 0.219984
H18   H     H_    0.610649 0.073420 0.952066 0.223200
H19   H     H_    0.801939 0.241450 0.903435 0.200286
H20   H     H_    0.846139 0.227363 0.003747 0.203869
C31   C     C_3   0.523644 0.757926 0.080344 -0.423462
C32   C     C_3   0.426700 0.791016 0.169232 -0.371202
C33   C     C_3   0.491820 0.818898 0.246418 -0.861052
H21   H     H_    0.529921 0.734478 0.258167 0.276551
H22   H     H_    0.571363 0.895756 0.231318 0.261203
H23   H     H_    0.421714 0.848059 0.308378 0.238661
H24   H     H_    0.383289 0.875517 0.164707 0.232102
H25   H     H_    0.346877 0.714854 0.185634 0.213053
H26   H     H_    0.601255 0.711673 0.092318 0.220114
H27   H     H_    0.576827 0.845434 0.053085 0.186339
C34   C     C_3   0.360154 0.875272 0.988854 -0.418283
C35   C     C_3   0.218954 0.867452 0.040003 -0.339770
C36   C     C_3   0.179003 0.997093 0.073009 -0.873743
H28   H     H_    0.235144 0.043949 0.120384 0.261493
H29   H     H_    0.194498 0.055202 0.015637 0.270361
H30   H     H_    0.075917 0.988606 0.108250 0.248950
H31   H     H_    0.158425 0.820886 0.995278 0.229863
H32   H     H_    0.201633 0.810971 0.098431 0.218288
H33   H     H_    0.420822 0.933563 0.028358 0.194463
H34   H     H_    0.373798 0.927269 0.928478 0.213239
C37   C     C_3   0.063616 0.641261 0.427274 -0.437965
C38   C     C_3   0.052276 0.766832 0.483441 -0.307697
C39   C     C_3   0.149891 0.870274 0.438558 -0.816033
H35   H     H_    0.247962 0.851025 0.436322 0.254430
H36   H     H_    0.141352 0.877269 0.369494 0.248854
H37   H     H_    0.133225 0.961028 0.477857 0.268332
H38   H     H_    0.954498 0.793299 0.493172 0.219116
H39   H     H_    0.068069 0.758523 0.550451 0.252261
H40   H     H_    0.165311 0.623476 0.405514 0.193488
H41   H     H_    0.034921 0.646652 0.364203 0.215161

loop_
_geom_bond_atom_site_label_1
_geom_bond_atom_site_label_2
_geom_bond_distance
_ccdc_geom_bond_type
C28   H20   1.112667 S    
C30   H15   1.110917 S    
C39   H35   1.109666 S    
C33   H21   1.109069 S    
C17   H5    1.078663 S    
C16   C17   1.379719 A    
C31   H26   1.107368 S    
C11   C31   1.531609 S    
C38   H39   1.112066 S    
C25   H13   1.112365 S    
C23   H6    1.088222 S    
O6    C5    1.276017 A    
C29   C30   1.527125 S    
C29   H17   1.111331 S    
Zn1   O1    1.957263 S    
C13   C17   1.412209 A    
C9    C10   1.395028 A    
C18   H3    1.073173 S    
C11   C12   1.446393 A    
C35   H32   1.111271 S    
C8    C19   1.392849 A    
N1    O15   1.301943 A    
C26   H10   1.111280 S    
O8    C5    1.276753 A    
C9    H4    1.084399 S    
O9    C6    1.283741 A    
C15   C16   1.391988 A    
C13   C20   1.413806 A    
C32   H25   1.110006 S    
Zn3   O8    1.935327 S    
C36   H28   1.111238 S    
C27   H8    1.110930 S    
C12   C14   1.432124 A    
C37   H41   1.111602 S    
C10   C11   1.425739 A    
Zn2   O12   1.936772 S    
C34   H33   1.103591 S    
C30   H16   1.109571 S    
C39   H36   1.110977 S    
C33   H22   1.111071 S    
C31   H27   1.105406 S    
C2    C21   1.467672 S    
C38   H38   1.111846 S    
C34   C35   1.533227 S    
C4    C23   1.450866 S    
C23   C24   1.344736 D    
O2    C1    1.270749 A    
C27   H9    1.110475 S    
O10   C3    1.271018 A    
Zn4   O2    1.943481 S    
C37   C38   1.535446 S    
C32   C33   1.526083 S    
C9    C20   1.393725 A    
C27   H7    1.110361 S    
N1    O14   1.300933 A    
C26   H11   1.111991 S    
C21   C37   1.529051 S    
C21   C22   1.370836 D    
C10   C34   1.520202 S    
C32   H24   1.106824 S    
Zn3   O5    1.930731 S    
C1    C22   1.433390 S    
H1    C19   1.084375 S    
C7    C19   1.397612 A    
C12   C13   1.424841 A    
C14   C15   1.424072 A    
O4    C3    1.278929 A    
Zn4   O7    1.940177 S    
C7    C28   1.513954 S    
C34   H34   1.113271 S    
C25   C26   1.542179 S    
C36   H29   1.111313 S    
C35   C36   1.525937 S    
C39   H37   1.110699 S    
O3    C2    1.272568 A    
C5    C8    1.442348 S    
C33   H23   1.108032 S    
Zn2   O1    1.948830 S    
Zn1   O9    1.929030 S    
Zn2   O6    1.933934 S    
C14   C18   1.395914 A    
C28   H19   1.110323 S    
C25   H12   1.111902 S    
Zn1   O3    1.938223 S    
Zn2   O4    1.936554 S    
Zn4   O1    1.935332 S    
Zn3   O1    1.945913 S    
C29   H18   1.110433 S    
Zn4   O11   1.936058 S    
C31   C32   1.545381 S    
C24   N1    1.437982 S    
O5    C4    1.280162 A    
C8    C18   1.385923 A    
C6    C20   1.483120 S    
O7    C6    1.287654 A    
C38   C39   1.525266 S    
O13   C2    1.291796 A    
Zn3   O13   1.943857 S    
C28   C29   1.531016 S    
C7    C15   1.418713 A    
C3    C24   1.427841 S    
C30   H14   1.110674 S    
C22   C25   1.537844 S    
H2    C16   1.081398 S    
O11   C4    1.268042 A    
C36   H30   1.110645 S    
O12   C1    1.261031 A    
C26   C27   1.526919 S    
Zn1   O10   1.932304 S    
C37   H40   1.110419 S    
C35   H31   1.112116 S    
