data_mof_unit_55933.cif
_audit_creation_date              2012-12-10T17:21:40-0500
_audit_creation_method            fapswitch 2.2
_symmetry_space_group_name_H-M    P1
_symmetry_Int_Tables_number       1
_space_group_crystal_system       triclinic
_cell_length_a                    10.732262
_cell_length_b                    10.8611
_cell_length_c                    9.57667
_cell_angle_alpha                 90.509151
_cell_angle_beta                  90.003176
_cell_angle_gamma                 92.713159
_cell_volume                      1115.00110993

loop_
_atom_site_label
_atom_site_type_symbol
_atom_type_description
_atom_site_fract_x
_atom_site_fract_y
_atom_site_fract_z
_atom_type_partial_charge
C1    C     C_R   0.510258 0.263215 0.500112 0.798807
C2    C     C_3   0.878153 0.500394 0.499118 0.172907
C3    C     C_3   0.933840 0.616068 0.577041 -0.395830
C4    C     C_3   0.928767 0.501494 0.347022 -0.368378
C5    C     C_R   0.588719 0.124512 0.751699 -0.164963
C6    C     C_R   0.577520 0.067414 0.881001 -0.159268
C7    C     C_R   0.516138 0.952465 0.890646 -0.141431
C8    C     C_R   0.477758 0.889326 0.769554 -0.170057
C9    C     C_R   0.501378 0.940419 0.635584 0.093942
C10   C     C_R   0.538607 0.066360 0.629554 0.097619
C11   C     C_R   0.522221 0.129584 0.502274 -0.127020
C12   C     C_R   0.259885 0.499720 0.499790 0.758770
C13   C     C_R   0.499984 0.062783 0.378510 -0.220517
C14   C     C_R   0.489423 0.935547 0.380497 -0.221061
C15   C     C_R   0.489618 0.872512 0.507508 -0.121086
C16   C     C_R   0.666419 0.664009 0.145696 -0.166210
C17   C     C_R   0.747939 0.743760 0.074007 -0.232104
C18   C     C_R   0.748076 0.743441 0.930145 -0.202065
C19   C     C_R   0.666448 0.663596 0.857176 -0.153930
C20   C     C_R   0.581809 0.580540 0.925883 0.194872
C21   C     C_R   0.581773 0.580602 0.075591 0.211572
C22   C     C_R   0.422406 0.423117 0.073187 -0.078176
C23   C     C_R   0.493646 0.737687 0.501739 0.779587
C24   C     C_R   0.422445 0.423150 0.925127 -0.071601
C25   C     C_R   0.740128 0.500453 0.499815 0.730473
C26   C     C_3   0.066117 0.383515 0.573105 -0.381813
C27   C     C_3   0.922249 0.383443 0.572517 -0.377175
C28   C     C_3   0.077699 0.616274 0.576162 -0.374486
C29   C     C_3   0.071353 0.500477 0.346969 -0.372396
C30   C     C_3   0.121848 0.499983 0.499060 0.159094
Cu1   Cu    Cu3+1 0.499990 0.499990 0.640660 0.910327
Cu2   Cu    Cu3+1 0.500010 0.500010 0.359340 0.917193
H1    H     H_    0.099955 0.380946 0.682872 0.167362
H2    H     H_    0.899472 0.585223 0.291997 0.166957
H3    H     H_    0.116207 0.700881 0.523781 0.147973
H4    H     H_    0.902568 0.701164 0.526430 0.142177
H5    H     H_    0.490320 0.108802 0.279441 0.161597
H6    H     H_    0.638728 0.213196 0.748614 0.156820
H7    H     H_    0.613037 0.114063 0.974196 0.134216
H8    H     H_    0.500484 0.910845 0.991860 0.138625
H9    H     H_    0.425554 0.803233 0.784491 0.167057
H10   H     H_    0.478635 0.886595 0.281837 0.164160
H11   H     H_    0.358856 0.360156 0.127964 0.132095
H12   H     H_    0.097070 0.299015 0.519262 0.148663
H13   H     H_    0.674453 0.671961 0.255793 0.199998
H14   H     H_    0.811471 0.806358 0.130847 0.145450
H15   H     H_    0.811383 0.806067 0.874304 0.147816
H16   H     H_    0.673289 0.671997 0.747205 0.200933
H17   H     H_    0.358957 0.360162 0.869026 0.139789
H18   H     H_    0.883552 0.299316 0.517618 0.145963
H19   H     H_    0.887414 0.380002 0.681968 0.169273
H20   H     H_    0.112636 0.618846 0.685644 0.170605
H21   H     H_    0.900455 0.617138 0.686999 0.171610
H22   H     H_    0.109951 0.583139 0.290790 0.170543
H23   H     H_    0.100906 0.417455 0.288966 0.163382
N1    N     N_R   0.501200 0.501210 0.147910 -0.197051
N2    N     N_R   0.501250 0.501290 0.852040 -0.202932
O1    O     O_R   0.499990 0.319640 0.618810 -0.584020
O2    O     O_R   0.500000 0.319660 0.381240 -0.579608
O3    O     O_R   0.317680 0.499970 0.618790 -0.585771
O4    O     O_R   0.317700 0.499990 0.381210 -0.584878
O5    O     O_R   0.500000 0.680340 0.618760 -0.610352
O6    O     O_R   0.500010 0.680360 0.381190 -0.596716
O7    O     O_R   0.682300 0.500010 0.618790 -0.606296
O8    O     O_R   0.682320 0.500030 0.381210 -0.603112
H24   H     H_    0.890132 0.419562 0.287921 0.172076

loop_
_geom_bond_atom_site_label_1
_geom_bond_atom_site_label_2
_ccdc_geom_bond_type
Cu1   O3    S    
C16   H13   S    
C21   N1    A    
C2    C4    S    
C7    H8    S    
C16   C21   A    
C2    C25   S    
C3    H21   S    
C9    C10   A    
C26   H1    S    
C13   H5    S    
C4    C29   S    
C1    C11   S    
C27   H18   S    
C14   H10   S    
C2    C27   S    
C18   H15   S    
Cu1   N2    S    
C19   C20   A    
C15   C23   S    
C17   C18   A    
C9    C15   A    
C26   H12   S    
C5    C10   A    
Cu1   Cu2   S    
C13   C14   A    
C17   H14   S    
C4    H24   S    
C12   O4    A    
C28   H20   S    
Cu1   O5    S    
C26   C27   S    
C29   C30   S    
C1    O1    A    
C3    H4    S    
Cu1   O1    S    
C28   C30   S    
C3    C28   S    
C27   H19   S    
Cu2   O4    S    
C26   C30   S    
C6    C7    A    
C2    C3    S    
C1    O2    A    
C4    H2    S    
C5    C6    A    
C22   C24   A    
C23   O6    A    
C11   C13   A    
C16   C17   A    
C10   C11   A    
Cu2   O8    S    
C12   O3    A    
C7    C8    A    
C25   O8    A    
C8    H9    S    
C28   H3    S    
C18   C19   A    
C29   H22   S    
C24   H17   S    
C20   N2    A    
C6    H7    S    
C8    C9    A    
C22   N1    A    
C14   C15   A    
C29   H23   S    
Cu2   O2    S    
C12   C30   S    
C20   C21   A    
C5    H6    S    
Cu1   O7    S    
Cu2   N1    S    
C23   O5    A    
C22   H11   S    
Cu2   O6    S    
C19   H16   S    
C24   N2    A    
C25   O7    A    
