data_mof_unit_20629.cif
_audit_creation_date              2012-12-10T17:55:05-0500
_audit_creation_method            fapswitch 2.2
_symmetry_space_group_name_H-M    P1
_symmetry_Int_Tables_number       1
_space_group_crystal_system       triclinic
_cell_length_a                    8.82281
_cell_length_b                    10.776898
_cell_length_c                    9.515752
_cell_angle_alpha                 90.181686
_cell_angle_beta                  97.823114
_cell_angle_gamma                 89.70005
_cell_volume                      896.345875422

loop_
_atom_site_label
_atom_site_type_symbol
_atom_type_description
_atom_site_fract_x
_atom_site_fract_y
_atom_site_fract_z
_atom_type_partial_charge
C1    C     C_R   0.500838 0.262398 0.499890 0.927200
C2    C     C_R   0.499162 0.737602 0.500110 0.927200
C3    C     C_R   0.204350 0.499771 0.464376 0.888628
C4    C     C_R   0.795650 0.500228 0.535624 0.888627
C5    C     C_2   0.040642 0.489007 0.445342 0.146425
C6    C     C_2   0.959358 0.510993 0.554658 0.146425
C7    C     C_R   0.623955 0.063567 0.454927 0.204746
C8    C     C_R   0.376045 0.936433 0.545073 0.204745
C9    C     C_R   0.623336 0.934188 0.455155 0.322616
C10   C     C_R   0.376663 0.065812 0.544845 0.322617
C11   C     C_R   0.499519 0.871418 0.500353 -0.300389
C12   C     C_R   0.500481 0.128582 0.499647 -0.300390
C13   C     C_R   0.400456 0.427155 0.061575 0.040223
C14   C     C_R   0.599544 0.572845 0.938425 0.040224
C15   C     C_R   0.400556 0.427136 0.912745 0.069504
C16   C     C_R   0.599444 0.572864 0.087255 0.069503
Cu1   Cu    Cu3+1 0.500000 0.500020 0.640660 1.066334
Cu2   Cu    Cu3+1 0.500000 0.499980 0.359340 1.066334
H1    H     H_    0.320840 0.368706 0.107407 0.166123
H2    H     H_    0.679160 0.631294 0.892593 0.166123
H3    H     H_    0.321030 0.368634 0.846377 0.181165
H4    H     H_    0.678970 0.631366 0.153623 0.181164
N1    N     N_R   0.500040 0.500030 0.852080 -0.188022
N2    N     N_R   0.499960 0.499970 0.147920 -0.188022
O1    O     O_R   0.499990 0.319660 0.618740 -0.569614
O2    O     O_R   0.500010 0.680340 0.381260 -0.569614
O3    O     O_R   0.499990 0.319630 0.381170 -0.566997
O4    O     O_R   0.500010 0.680370 0.618830 -0.566997
O5    O     O_R   0.274840 0.500010 0.591370 -0.549840
O6    O     O_R   0.725160 0.499990 0.408630 -0.549840
O7    O     O_R   0.274830 0.499980 0.353800 -0.562222
O8    O     O_R   0.725170 0.500020 0.646200 -0.562222
Cl1   Cl    Cl    0.961613 0.434365 0.274305 -0.512309
Cl2   Cl    Cl    0.038387 0.565634 0.725695 -0.512309
Br1   Br    Br    0.797042 0.150798 0.399965 -0.270917
Br2   Br    Br    0.202955 0.849201 0.600034 -0.270915
Cl3   Cl    Cl    0.780440 0.850721 0.403790 -0.492652
Cl4   Cl    Cl    0.219560 0.149279 0.596212 -0.492653

loop_
_geom_bond_atom_site_label_1
_geom_bond_atom_site_label_2
_ccdc_geom_bond_type
C14   N1    A    
C3    O7    A    
Cu2   O6    S    
Cu1   O5    S    
Cu2   O2    S    
C10   Cl4   S    
Cu1   O1    S    
C9    Cl3   S    
Cu1   Cu2   S    
C16   N2    A    
Cu1   N1    S    
C1    O1    A    
C9    C11   A    
C3    O5    A    
C4    O8    A    
C1    C12   S    
C10   C12   A    
C8    C11   A    
Cu2   N2    S    
C2    C11   S    
C15   N1    A    
C7    C9    A    
C13   C15   A    
C5    C6    D    
C14   C16   A    
C7    C12   A    
C4    C6    S    
C2    O4    A    
C13   H1    S    
C14   H2    S    
C15   H3    S    
C2    O2    A    
C8    Br2   S    
C1    O3    A    
Cu1   O8    S    
C16   H4    S    
Cu2   O7    S    
Cu1   O4    S    
C7    Br1   S    
C8    C10   A    
C4    O6    A    
Cu2   O3    S    
C6    Cl2   S    
C13   N2    A    
C3    C5    S    
C5    Cl1   S    
