data_mof_unit_45188.cif
_audit_creation_date              2013-03-05T15:51:27-0500
_audit_creation_method            fapswitch 2.2
_symmetry_space_group_name_H-M    P1
_symmetry_Int_Tables_number       1
_space_group_crystal_system       triclinic
_cell_length_a                    6.928923
_cell_length_b                    23.198033
_cell_length_c                    25.757145
_cell_angle_alpha                 104.476025
_cell_angle_beta                  89.553451
_cell_angle_gamma                 90.539545
_cell_volume                      4008.45541803

loop_
_atom_site_label
_atom_site_type_symbol
_atom_site_description
_atom_site_fract_x
_atom_site_fract_y
_atom_site_fract_z
_atom_type_partial_charge
O1    O     O_R   0.494330 0.439230 0.438150 -0.597070
O2    O     O_R   0.820190 0.446230 0.546380 -0.599139
O3    O     O_R   0.994320 0.560770 0.561850 -0.598646
C1    C     C_R   0.650771 0.433826 0.562808 0.921250
O4    O     O_R   0.823790 0.432220 0.437600 -0.599303
O5    O     O_R   0.997940 0.546660 0.452300 -0.594825
C2    C     C_R   0.654932 0.415547 0.417482 0.950020
O6    O     O_R   0.490700 0.453340 0.547700 -0.597821
O7    O     O_3   0.662060 0.537560 0.504950 -0.264339
V1    V     V_3+5 0.935420 0.493030 0.499080 1.152068
O8    O     O_R   0.327880 0.553770 0.453620 -0.594182
C3    C     C_R   0.159941 0.566118 0.437118 0.938736
O9    O     O_R   0.324280 0.567780 0.562400 -0.583861
C4    C     C_R   0.155231 0.584498 0.582448 0.955952
V2    V     V_3+5 0.435890 0.506970 0.500920 1.164502
O10   O     O_3   0.159380 0.462440 0.495050 -0.278682
C5    C     C_R   0.942456 0.861036 0.828239 -0.118232
C6    C     C_R   0.083399 0.866355 0.868101 -0.183106
C7    C     C_R   0.235672 0.825606 0.860039 -0.149012
C8    C     C_R   0.246740 0.779504 0.812991 0.233177
C9    C     C_R   0.104239 0.774156 0.772929 0.014938
C10   C     C_R   0.951004 0.815347 0.780283 -0.064501
C11   C     C_R   0.400890 0.739406 0.804933 -0.169487
C12   C     C_R   0.414603 0.694135 0.757783 -0.227274
C13   C     C_R   0.273927 0.687872 0.717867 0.237377
C14   C     C_R   0.118044 0.728217 0.725187 0.031660
C15   C     C_R   0.977788 0.722771 0.684646 -0.059093
C16   C     C_R   0.828796 0.765429 0.690944 0.198170
C17   C     C_R   0.815302 0.811510 0.738657 0.214873
C18   C     C_R   0.287912 0.642128 0.670608 -0.191515
C19   C     C_R   0.144664 0.634514 0.631232 -0.172542
C20   C     C_R   0.989617 0.674459 0.638779 -0.112829
H1    H     H_    0.829769 0.894024 0.834565 0.170175
H2    H     H_    0.345606 0.829762 0.890524 0.131700
H3    H     H_    0.512074 0.743371 0.835009 0.141567
H4    H     H_    0.535772 0.663980 0.752494 0.131082
H5    H     H_    0.407861 0.611449 0.665051 0.118221
H6    H     H_    0.879338 0.667628 0.608294 0.169371
C21   C     C_R   0.228546 0.897060 0.134600 -0.140069
H7    H     H_    0.338688 0.930938 0.136336 0.123651
C22   C     C_R   0.241046 0.860399 0.170029 -0.094379
H8    H     H_    0.359314 0.867439 0.198230 0.141215
C23   C     C_R   0.100722 0.816530 0.170481 -0.061955
C24   C     C_R   0.948799 0.808272 0.132727 0.365244
C25   C     C_R   0.935076 0.845592 0.096734 -0.218195
C26   C     C_R   0.075035 0.891409 0.098271 -0.236587
N1    N     N_R   0.948131 0.761728 0.231574 -0.036666
N2    N     N_R   0.956890 0.729584 0.267741 -0.061167
C27   C     C_R   0.129509 0.715608 0.285913 0.102006
N3    N     N_R   0.293143 0.735907 0.266607 -0.061499
N4    N     N_R   0.284333 0.768111 0.230366 -0.034855
C28   C     C_R   0.111464 0.781190 0.211583 0.194698
C29   C     C_R   0.316066 0.663301 0.344357 -0.118702
H9    H     H_    0.450309 0.679134 0.330920 0.119656
C30   C     C_R   0.323264 0.627309 0.380711 -0.139623
H10   H     H_    0.462962 0.616536 0.394148 0.129677
C31   C     C_R   0.152712 0.605281 0.399155 -0.134615
C32   C     C_R   0.974874 0.620615 0.380437 -0.143449
H11   H     H_    0.840453 0.604604 0.393621 0.130734
C33   C     C_R   0.967712 0.656589 0.344161 -0.117804
H12   H     H_    0.827916 0.667075 0.330587 0.117058
C34   C     C_R   0.138148 0.678317 0.325430 0.120805
C35   C     C_R   0.465436 0.383544 0.624240 -0.162953
H13   H     H_    0.333052 0.403422 0.615225 0.127807
C36   C     C_R   0.458563 0.347326 0.660441 -0.131386
H14   H     H_    0.320820 0.340224 0.678091 0.116456
C37   C     C_R   0.627027 0.320678 0.673616 0.122150
C38   C     C_R   0.802289 0.331118 0.649481 -0.133996
H15   H     H_    0.935011 0.311545 0.658651 0.117945
C39   C     C_R   0.809395 0.367568 0.613596 -0.159288
H16   H     H_    0.947494 0.374715 0.596145 0.130683
C40   C     C_R   0.641197 0.394390 0.600488 -0.129160
N5    N     N_R   0.777695 0.251454 0.720719 -0.071417
N6    N     N_R   0.772480 0.218149 0.756125 -0.066691
C41   C     C_R   0.610085 0.214896 0.785253 0.132990
N7    N     N_R   0.453063 0.246190 0.777098 -0.071692
N8    N     N_R   0.458053 0.279297 0.741586 -0.072644
C42   C     C_R   0.620614 0.282824 0.712657 0.104609
C43   C     C_R   0.450056 0.184458 0.862226 -0.107811
H17   H     H_    0.338109 0.216564 0.861589 0.160439
C44   C     C_R   0.441782 0.151342 0.901227 -0.053516
C45   C     C_R   0.588122 0.108887 0.902195 -0.246186
C46   C     C_R   0.743480 0.103954 0.865808 -0.042687
H18   H     H_    0.857797 0.072370 0.865648 0.131278
C47   C     C_R   0.751919 0.138434 0.828275 -0.074928
H19   H     H_    0.873343 0.132929 0.800801 0.127578
C48   C     C_R   0.603986 0.178520 0.825519 0.052631
C49   C     C_R   0.430111 0.144566 0.168689 -0.256082
C50   C     C_R   0.584201 0.134141 0.131651 -0.142028
C51   C     C_R   0.749981 0.170685 0.142230 -0.244191
C52   C     C_R   0.761889 0.217403 0.188875 0.145043
C53   C     C_R   0.608048 0.226944 0.226204 0.029922
C54   C     C_R   0.442066 0.190168 0.216187 0.151645
C55   C     C_R   0.925015 0.254784 0.198902 -0.206887
C56   C     C_R   0.936979 0.300736 0.245833 -0.199663
C57   C     C_R   0.786353 0.310046 0.283697 0.147780
C58   C     C_R   0.620347 0.273282 0.273671 0.029862
C59   C     C_R   0.466511 0.282820 0.311001 0.149891
C60   C     C_R   0.303360 0.245450 0.300965 -0.214915
C61   C     C_R   0.291411 0.199491 0.254041 -0.207325
C62   C     C_R   0.798390 0.355607 0.331226 -0.249395
C63   C     C_R   0.644350 0.366008 0.368284 -0.143971
C64   C     C_R   0.478480 0.329508 0.357668 -0.249121
H20   H     H_    0.302473 0.116381 0.161068 0.135655
H21   H     H_    0.869007 0.163180 0.113812 0.144112
H22   H     H_    0.044202 0.248233 0.170593 0.146433
H23   H     H_    0.064962 0.328755 0.252693 0.145861
H24   H     H_    0.926082 0.383766 0.338865 0.136488
H25   H     H_    0.359459 0.337004 0.386086 0.141086
H26   H     H_    0.184166 0.252003 0.329272 0.143596
H27   H     H_    0.163437 0.171467 0.247184 0.142979
O11   O     O_R   0.738220 0.046730 0.952360 -0.579592
O12   O     O_R   0.404950 0.067790 0.062410 -0.605305
O13   O     O_R   0.230980 0.953320 0.047680 -0.588391
C65   C     C_R   0.573764 0.084534 0.082517 0.937483
O14   O     O_R   0.408720 0.053790 0.953630 -0.606217
O15   O     O_R   0.234780 0.939210 0.938130 -0.579317
C66   C     C_R   0.578274 0.067849 0.938662 0.929052
O16   O     O_R   0.734430 0.060840 0.061910 -0.594764
O17   O     O_3   0.566930 0.962480 0.995080 -0.274092
V3    V     V_3+5 0.293490 0.006960 0.000910 1.163433
O18   O     O_R   0.904820 0.932150 0.937550 -0.597791
C67   C     C_R   0.073816 0.915572 0.917464 0.956118
O19   O     O_R   0.901050 0.946150 0.046320 -0.621557
C68   C     C_R   0.068748 0.932511 0.061732 0.935329
V4    V     V_3+5 0.793050 0.992940 0.999010 1.162362
O20   O     O_3   0.069480 0.037520 0.004920 -0.273953
N9    N     N_R   0.810178 0.761167 0.129956 0.248317
O21   O     O_R   0.866857 0.706162 0.120255 -0.333939
O22   O     O_R   0.626748 0.772890 0.135180 -0.396331
C69   C     C_2   0.780721 0.833376 0.055713 0.617756
H28   H     H_    0.682854 0.868106 0.051681 0.028488
O23   O     O_2   0.760047 0.783536 0.026352 -0.527358
C70   C     C_2   0.285193 0.164799 0.942138 0.530132
H29   H     H_    0.302936 0.155558 0.981041 0.022543
O24   O     O_2   0.134880 0.187607 0.933198 -0.591166
N10   N     N_R   0.693646 0.763396 0.648429 0.255825
O25   O     O_R   0.755625 0.765729 0.601174 -0.352457
O26   O     O_R   0.509261 0.766960 0.658455 -0.345874
N11   N     N_R   0.671762 0.856718 0.742717 0.259586
O27   O     O_R   0.539378 0.864420 0.779810 -0.411981
O28   O     O_R   0.666262 0.887906 0.707218 -0.307886

loop_
_geom_bond_atom_site_label_1
_geom_bond_atom_site_label_2
_geom_bond_distance
_ccdc_geom_bond_type
C9    C14   1.414889 A    
C35   C36   1.402794 A    
C62   C63   1.407955 A    
C10   C17   1.417034 A    
C22   H8    1.083179 S    
C26   C68   1.498921 S    
C56   C57   1.403612 A    
C4    C19   1.483817 S    
C1    O6    1.300280 A    
N9    O21   1.301279 A    
C50   C65   1.484235 S    
C58   C59   1.411290 A    
C51   C52   1.404889 A    
C44   C70   1.486319 S    
C21   C22   1.397895 A    
C29   H9    1.082593 S    
O17   V3    2.152175 S    
N10   O26   1.300739 A    
C14   C15   1.413631 A    
V4    O20   2.156345 S    
C46   H18   1.083336 S    
O19   V4    1.978349 S    
C16   C17   1.416008 A    
N11   O28   1.301019 A    
V3    O20   1.704122 S    
O5    C3    1.299428 A    
C18   C19   1.402801 A    
O17   V4    1.705922 S    
C23   C28   1.494897 S    
C32   C33   1.401164 A    
C59   C64   1.404899 A    
C59   C60   1.403694 A    
C33   C34   1.408164 A    
C6    C7    1.402553 A    
N5    N6    1.334571 A    
O15   V3    1.994505 S    
O9    C4    1.299263 A    
O13   V3    1.979479 S    
O8    V2    1.978347 S    
C55   H22   1.083676 S    
C7    C8    1.403687 A    
C38   H15   1.082828 S    
C36   C37   1.408712 A    
C2    C63   1.484458 S    
C5    C6    1.404674 A    
N5    C42   1.360630 A    
C39   H16   1.082912 S    
O1    V2    1.994722 S    
C20   H6    1.081846 S    
O7    V1    2.152173 S    
O11   V4    1.977576 S    
C6    C67   1.482880 S    
C49   C50   1.407887 A    
C62   H24   1.084347 S    
C47   C48   1.404478 A    
O15   C67   1.296046 A    
C57   C62   1.405628 A    
C22   C23   1.402957 A    
C55   C56   1.400046 A    
C37   C42   1.491438 S    
C5    H1    1.081083 S    
C43   C48   1.404417 A    
C49   H20   1.084358 S    
C53   C58   1.414365 A    
C44   C45   1.424851 A    
N7    N8    1.333371 A    
C29   C30   1.403135 A    
N6    C41   1.359503 A    
C37   C38   1.406327 A    
C12   C13   1.402338 A    
O14   V3    1.982579 S    
C52   C53   1.411302 A    
C43   C44   1.409510 A    
O13   C68   1.303235 A    
C70   O24   1.221764 D    
C13   C14   1.416247 A    
N8    C42   1.358789 A    
C60   H26   1.083666 S    
N4    C28   1.360182 A    
C18   H5    1.084486 S    
C33   H12   1.082549 S    
O18   V4    1.994947 S    
O2    C1    1.298700 A    
C41   N7    1.359985 A    
C29   C34   1.407526 A    
N1    N2    1.332870 A    
C8    C11   1.402817 A    
C11   C12   1.396151 A    
C57   C58   1.411789 A    
C8    C9    1.415871 A    
C30   H10   1.082668 S    
N3    N4    1.335528 A    
C12   H4    1.083709 S    
N11   O27   1.300096 A    
C54   C61   1.403580 A    
C47   H19   1.082823 S    
C70   H29   1.083957 S    
O3    C4    1.295849 A    
C56   H23   1.083633 S    
C21   C26   1.405608 A    
C3    C31   1.493254 S    
C41   C48   1.491882 S    
N2    C27   1.358913 A    
C46   C47   1.400935 A    
C45   C46   1.408271 A    
O6    V2    1.977208 S    
C65   O16   1.295995 A    
C30   C31   1.408741 A    
C23   C24   1.417556 A    
C43   H17   1.083438 S    
C45   C66   1.496029 S    
C69   H28   1.083008 S    
O2    V1    1.982476 S    
C1    C40   1.491676 S    
C24   C25   1.422047 A    
O4    C2    1.299131 A    
C13   C18   1.404089 A    
C17   N11   1.436384 S    
C49   C54   1.405564 A    
C24   N9    1.436681 S    
C27   C34   1.493354 S    
C15   C20   1.413056 A    
O1    C2    1.296000 A    
C19   C20   1.405722 A    
C16   N10   1.437927 S    
C51   H21   1.084355 S    
C69   O23   1.220930 D    
C7    H2    1.084511 S    
N9    O22   1.301151 A    
O5    V1    1.979513 S    
O8    C3    1.300616 A    
C25   C69   1.484170 S    
N1    C28   1.359148 A    
N10   O25   1.301229 A    
C11   H3    1.083717 S    
C5    C10   1.413560 A    
C60   C61   1.400017 A    
C64   H25   1.084327 S    
O9    V2    1.995071 S    
C32   H11   1.082757 S    
O4    V1    1.994395 S    
O3    V1    1.994477 S    
V1    O10   1.704064 S    
C52   C55   1.403692 A    
O11   C66   1.302097 A    
C31   C32   1.407346 A    
C53   C54   1.411801 A    
O14   C66   1.297612 A    
C36   H14   1.082785 S    
O7    V2    1.707326 S    
C63   C64   1.408347 A    
C35   H13   1.082954 S    
C21   H7    1.083403 S    
O16   V4    1.999206 S    
C25   C26   1.425430 A    
O12   V3    1.994491 S    
C35   C40   1.407214 A    
C61   H27   1.083636 S    
C38   C39   1.400354 A    
C27   N3    1.361157 A    
C15   C16   1.416940 A    
O18   C67   1.298567 A    
C39   C40   1.408605 A    
C50   C51   1.408335 A    
C9    C10   1.414840 A    
V2    O10   2.156352 S    
O19   C68   1.297992 A    
O12   C65   1.299073 A    
