data_mof_unit_19815.cif
_audit_creation_date              2012-12-10T20:40:53-0500
_audit_creation_method            fapswitch 2.2
_symmetry_space_group_name_H-M    P1
_symmetry_Int_Tables_number       1
_space_group_crystal_system       triclinic
_cell_length_a                    27.643806
_cell_length_b                    10.682172
_cell_length_c                    9.882922
_cell_angle_alpha                 89.827149
_cell_angle_beta                  88.979158
_cell_angle_gamma                 90.537949
_cell_volume                      2917.77963939

loop_
_atom_site_label
_atom_site_type_symbol
_atom_type_description
_atom_site_fract_x
_atom_site_fract_y
_atom_site_fract_z
_atom_type_partial_charge
C1    C     C_R   0.500848 0.260219 0.499841 0.868579
C2    C     C_R   0.277470 0.417799 0.582724 -0.065190
C3    C     C_R   0.253294 0.496820 0.493424 0.262821
C4    C     C_R   0.101796 0.484225 0.459769 -0.062657
C5    C     C_R   0.128802 0.374358 0.447020 -0.099523
C6    C     C_R   0.105041 0.260162 0.430482 -0.214542
C7    C     C_R   0.125594 0.597350 0.491798 -0.005397
C8    C     C_R   0.353884 0.502084 0.501774 -0.044879
C9    C     C_R   0.646924 0.498885 0.492570 -0.152280
C10   C     C_R   0.974718 0.365647 0.414674 -0.019649
C11   C     C_R   0.975849 0.596606 0.415814 0.002178
C12   C     C_R   0.406245 0.500640 0.500879 0.890190
C13   C     C_R   0.949961 0.481701 0.418409 0.068660
C14   C     C_R   0.946392 0.256385 0.397095 -0.269132
C15   C     C_R   0.896173 0.256406 0.413578 0.521273
C16   C     C_R   0.871857 0.370702 0.428614 -0.142160
C17   C     C_R   0.898764 0.483539 0.423547 -0.116178
C18   C     C_R   0.874452 0.598802 0.424679 -0.014136
C19   C     C_R   0.824238 0.600015 0.441973 0.526448
C20   C     C_R   0.821241 0.376695 0.444792 0.546578
C21   C     C_R   0.724997 0.454882 0.589030 -0.201603
C22   C     C_R   0.674555 0.455139 0.601553 0.500430
C23   C     C_R   0.500444 0.739836 0.499627 0.883367
C24   C     C_R   0.670260 0.538430 0.372213 -0.290033
C25   C     C_R   0.720200 0.535375 0.360012 -0.089385
C26   C     C_R   0.747606 0.493820 0.468104 0.236679
C27   C     C_R   0.026345 0.364426 0.425029 -0.053082
C28   C     C_R   0.051063 0.481111 0.441975 0.014189
C29   C     C_R   0.025505 0.595440 0.445419 0.101666
C30   C     C_R   0.054669 0.252672 0.429967 0.505903
C31   C     C_R   0.098779 0.705923 0.511404 -0.123238
C32   C     C_R   0.950543 0.708658 0.385898 -0.089012
C33   C     C_R   0.900290 0.709774 0.400782 -0.202288
C34   C     C_R   0.594019 0.499789 0.498657 0.881340
C35   C     C_R   0.049426 0.704411 0.490650 -0.153992
C36   C     C_R   0.525959 0.064125 0.603517 0.009569
C37   C     C_R   0.505837 0.128711 0.495997 -0.044051
C38   C     C_R   0.493254 0.064707 0.377787 -0.220339
C39   C     C_R   0.492996 0.935858 0.377732 -0.224934
C40   C     C_R   0.504936 0.871670 0.496200 -0.040931
C41   C     C_R   0.524696 0.936424 0.604508 0.031587
C42   C     C_3   0.515868 0.929476 0.754271 0.370332
C43   C     C_3   0.517845 0.072172 0.753097 -0.514758
C44   C     C_R   0.457612 0.501754 0.073591 0.079074
C45   C     C_R   0.179249 0.380638 0.455931 0.541178
C46   C     C_R   0.542115 0.506410 0.069682 -0.145039
C47   C     C_R   0.542131 0.505631 0.926064 -0.129687
C48   C     C_R   0.457475 0.507015 0.931527 0.087245
C49   C     C_3   0.414037 0.422200 0.923695 0.303074
C50   C     C_3   0.418475 0.404222 0.077996 0.181298
C51   C     C_R   0.175768 0.598456 0.507155 0.518692
C52   C     C_R   0.279734 0.579318 0.409174 -0.114270
C53   C     C_R   0.329894 0.582711 0.414187 -0.164323
C54   C     C_R   0.327691 0.419028 0.585078 -0.220935
H1    H     H_    0.346153 0.353568 0.649428 0.175055
H2    H     H_    0.261400 0.639625 0.338733 0.168060
H3    H     H_    0.115762 0.792706 0.542670 0.190227
H4    H     H_    0.649891 0.572001 0.287019 0.179656
H5    H     H_    0.881060 0.796479 0.385472 0.216948
H6    H     H_    0.737748 0.565133 0.266319 0.159202
H7    H     H_    0.030054 0.789223 0.513808 0.133722
H8    H     H_    0.480488 0.113176 0.288953 0.159433
H9    H     H_    0.480317 0.887450 0.288687 0.162487
H10   H     H_    0.257366 0.354006 0.648444 0.170004
H11   H     H_    0.546359 0.883303 0.806804 0.066320
H12   H     H_    0.483132 0.116991 0.781100 0.261737
H13   H     H_    0.549952 0.110752 0.805309 0.157489
H14   H     H_    0.576178 0.509962 0.121574 0.160603
H15   H     H_    0.576227 0.508383 0.871136 0.201409
H16   H     H_    0.433803 0.313043 0.111433 0.091840
H17   H     H_    0.125303 0.173802 0.427086 0.214072
H18   H     H_    0.746580 0.423251 0.672685 0.158104
H19   H     H_    0.961300 0.168527 0.367231 0.272535
H20   H     H_    0.350021 0.646482 0.348362 0.174987
N1    N     N_R   0.201671 0.491685 0.485827 -0.348745
N2    N     N_R   0.798991 0.490081 0.453709 -0.349960
N3    N     N_R   0.499670 0.499140 0.142800 -0.116546
N4    N     N_R   0.499670 0.499180 0.857150 -0.080368
O1    O     O_R   0.500010 0.316790 0.614690 -0.575303
O2    O     O_2   0.794210 0.270933 0.450889 -0.508429
O3    O     O_2   0.198541 0.705250 0.543412 -0.555937
O4    O     O_2   0.800702 0.710123 0.447964 -0.558997
O5    O     O_R   0.500000 0.316760 0.385350 -0.635853
O6    O     O_R   0.428760 0.500040 0.614660 -0.563662
O7    O     O_R   0.428750 0.500000 0.385310 -0.585040
O8    O     O_R   0.500000 0.683240 0.614650 -0.579331
O9    O     O_R   0.499990 0.683210 0.385310 -0.637085
O10   O     O_R   0.571250 0.500000 0.614690 -0.594054
O11   O     O_R   0.571240 0.499960 0.385340 -0.637310
O12   O     O_2   0.205710 0.276886 0.433697 -0.571555
Zn1   Zn    Zn3+2 0.500000 0.500020 0.653130 1.032453
Zn2   Zn    Zn3+2 0.500000 0.499980 0.346870 0.957345
C55   C     C_2   0.974222 0.818930 0.319032 0.912616
O13   O     O_2   0.956750 0.923050 0.331433 -0.629689
O14   O     O_R   0.015513 0.802875 0.237272 -0.780523
H21   H     H_    0.028105 0.884604 0.197143 0.359840
O15   O     O_3   0.469040 0.882350 0.785806 -0.553965
C56   C     C_3   0.464934 0.861556 0.926453 -0.252211
H22   H     H_    0.471677 0.949146 0.984182 0.133152
H23   H     H_    0.489918 0.786664 0.959136 0.154423
H24   H     H_    0.427499 0.829535 0.950921 0.210163
C57   C     C_2   0.369987 0.495998 0.879897 0.945158
O16   O     O_2   0.329242 0.453634 0.899923 -0.641244
O17   O     O_R   0.375808 0.614928 0.821633 -0.797585
H25   H     H_    0.343851 0.654397 0.797716 0.353161
O18   O     O_3   0.424821 0.316503 0.841998 -0.613922
C58   C     C_3   0.393656 0.213809 0.870524 -0.382334
H26   H     H_    0.397619 0.144798 0.787558 0.215885
H27   H     H_    0.354941 0.239457 0.874227 0.198628
H28   H     H_    0.403996 0.166082 0.965445 0.158415
O19   O     O_3   0.377621 0.445892 0.152621 -0.590428
C59   C     C_3   0.349969 0.341362 0.196883 -0.194720
H29   H     H_    0.369367 0.288720 0.276265 0.144549
H30   H     H_    0.340552 0.278375 0.111928 0.155755
H31   H     H_    0.315401 0.374496 0.241731 0.210911
O20   O     O_3   0.652815 0.416531 0.721719 -0.614959
C60   C     C_3   0.645880 0.285704 0.716762 -0.290654
H32   H     H_    0.681017 0.236050 0.708021 0.176419
H33   H     H_    0.621843 0.258415 0.632327 0.156178
H34   H     H_    0.627894 0.254841 0.812550 0.185862
O21   O     O_3   0.870930 0.144515 0.402708 -0.539538
C61   C     C_3   0.875170 0.077420 0.525093 -0.159345
H35   H     H_    0.913159 0.048810 0.542228 0.150188
H36   H     H_    0.852821 0.990912 0.519082 0.208793
H37   H     H_    0.861346 0.132524 0.612870 0.146023
O22   O     O_3   0.034794 0.133915 0.437401 -0.611348
C62   C     C_3   0.029120 0.100439 0.575045 -0.327720
H38   H     H_    0.006297 0.168847 0.631396 0.162549
H39   H     H_    0.064823 0.090692 0.624058 0.175697
H40   H     H_    0.010388 0.008327 0.581355 0.195579

loop_
_geom_bond_atom_site_label_1
_geom_bond_atom_site_label_2
_ccdc_geom_bond_type
C10   C27   A    
C44   C48   A    
C21   C26   A    
C30   O22   S    
N3    Zn2   S    
C55   O13   D    
C41   C42   S    
O19   C59   S    
C59   H30   S    
O15   C56   S    
O5    Zn2   S    
C28   C29   A    
O22   C62   S    
C12   O7    A    
C19   N2    A    
C51   N1    A    
O8    Zn1   S    
C60   H33   S    
C5    C6    A    
C9    C22   A    
O18   C58   S    
C15   C16   A    
O20   C60   S    
C20   N2    A    
C18   C19   A    
C48   N4    A    
C55   O14   S    
C59   H29   S    
C54   H1    S    
C47   H15   S    
O14   H21   S    
C16   C17   A    
C23   O8    A    
C42   H11   S    
C26   N2    S    
C58   H26   S    
C25   H6    S    
C19   O4    S    
C3    N1    S    
C51   O3    S    
O1    Zn1   S    
C16   C20   A    
C22   O20   S    
C32   C55   S    
C24   H4    S    
C33   H5    S    
C23   O9    A    
C21   C22   A    
C27   C30   A    
C58   H27   S    
C36   C41   A    
C4    C7    A    
O17   H25   S    
C4    C28   A    
O7    Zn2   S    
C2    H10   S    
C6    H17   S    
C7    C31   A    
C20   O2    S    
C21   H18   S    
C14   H19   S    
C24   C25   A    
C10   C14   A    
C42   O15   S    
C8    C54   A    
C49   C57   S    
C12   O6    A    
C25   C26   A    
C5    C45   A    
C62   H39   S    
C46   H14   S    
C37   C38   A    
O10   Zn1   S    
C8    C12   S    
C17   C18   A    
C35   H7    S    
C34   O10   A    
O11   Zn2   S    
C57   O17   S    
C45   O12   S    
O21   C61   S    
C43   H13   S    
C40   C41   A    
O6    Zn1   S    
C11   C32   A    
C56   H22   S    
C56   H23   S    
C2    C54   A    
C9    C34   S    
C1    O1    A    
C58   H28   S    
C31   C35   A    
C60   H34   S    
C42   C43   S    
C61   H36   S    
C62   H38   S    
C39   C40   A    
C39   H9    S    
C52   C53   A    
C44   C50   S    
C46   C47   A    
C48   C49   S    
C15   O21   S    
C6    C30   A    
C4    C5    A    
C10   C13   A    
C8    C53   A    
C46   N3    A    
C3    C52   A    
C9    C24   A    
C49   O18   S    
C1    C37   S    
N4    Zn1   S    
C1    O5    A    
C56   H24   S    
C44   N3    A    
C29   C35   A    
C13   C17   A    
C45   N1    A    
C32   C33   A    
C31   H3    S    
C61   H37   S    
C2    C3    A    
C50   H16   S    
C34   O11   A    
C7    C51   A    
C60   H32   S    
C11   C13   A    
C38   C39   A    
C43   H12   S    
C50   O19   S    
C57   O16   D    
C18   C33   A    
C62   H40   S    
C52   H2    S    
C11   C29   A    
C36   C37   A    
C49   C50   S    
C27   C28   A    
C14   C15   A    
C36   C43   S    
C47   N4    A    
C61   H35   S    
O9    Zn2   S    
C59   H31   S    
C23   C40   S    
C38   H8    S    
C53   H20   S    
