data_mof_unit_65076.cif
_audit_creation_date              2012-12-10T19:31:20-0500
_audit_creation_method            fapswitch 2.2
_symmetry_space_group_name_H-M    P1
_symmetry_Int_Tables_number       1
_space_group_crystal_system       triclinic
_cell_length_a                    36.095535
_cell_length_b                    43.178991
_cell_length_c                    28.106565
_cell_angle_alpha                 89.928835
_cell_angle_beta                  129.89993
_cell_angle_gamma                 90.084716
_cell_volume                      33606.4430874

loop_
_atom_site_label
_atom_site_type_symbol
_atom_type_description
_atom_site_fract_x
_atom_site_fract_y
_atom_site_fract_z
_atom_type_partial_charge
C1    C     C_R   0.599698 0.250049 0.999952 0.832969
C2    C     C_R   0.458592 0.016546 0.950786 0.025400
C3    C     C_R   0.840361 0.775187 0.662822 0.067221
C4    C     C_R   0.339930 0.777689 0.665513 0.046624
C5    C     C_R   0.700578 0.257865 0.333591 0.032272
C6    C     C_R   0.679188 0.774245 0.337845 0.041953
C7    C     C_R   0.340248 0.275239 0.662851 0.067684
C8    C     C_R   0.818037 0.249572 0.633824 0.056952
C9    C     C_R   0.183973 0.750832 0.366193 0.084848
C10   C     C_R   0.182618 0.246726 0.367182 0.053377
C11   C     C_R   0.816427 0.747100 0.632977 0.035659
C12   C     C_R   0.318038 0.749572 0.633823 0.056960
C13   C     C_R   0.458824 0.983878 0.950420 0.023426
C14   C     C_R   0.683974 0.250832 0.366194 0.084711
C15   C     C_R   0.682588 0.746731 0.367188 0.053298
C16   C     C_R   0.316486 0.247115 0.632987 0.035699
C17   C     C_R   0.828375 0.222331 0.667458 -0.220939
C18   C     C_R   0.134960 0.744118 0.333148 -0.167944
C19   C     C_R   0.154139 0.221167 0.331946 -0.230773
C20   C     C_R   0.824429 0.721053 0.667985 -0.181471
C21   C     C_R   0.328385 0.722330 0.667457 -0.221141
C22   C     C_R   0.634958 0.244128 0.333149 -0.167765
C23   C     C_R   0.654003 0.721205 0.331954 -0.230926
C24   C     C_R   0.541492 0.016591 0.048710 0.025233
C25   C     C_R   0.324614 0.221029 0.667983 -0.181572
C26   C     C_R   0.861047 0.222695 0.731981 -0.248977
C27   C     C_R   0.102619 0.744523 0.268622 -0.267774
C28   C     C_R   0.122174 0.222772 0.267533 -0.240658
C29   C     C_R   0.856515 0.722535 0.732426 -0.251262
C30   C     C_R   0.361056 0.722694 0.731981 -0.249133
C31   C     C_R   0.602617 0.244534 0.268622 -0.267523
C32   C     C_R   0.622056 0.722808 0.267541 -0.240859
C33   C     C_R   0.356674 0.222506 0.732425 -0.250979
C34   C     C_R   0.882614 0.250495 0.763982 -0.086608
C35   C     C_R   0.041282 0.483924 0.049157 0.022042
C36   C     C_R   0.118910 0.750724 0.235920 -0.085976
C37   C     C_R   0.118169 0.249951 0.236997 -0.107827
C38   C     C_R   0.881338 0.750098 0.763143 -0.138521
C39   C     C_R   0.382615 0.750495 0.763981 -0.086632
C40   C     C_R   0.618911 0.250724 0.235920 -0.086365
C41   C     C_R   0.618168 0.749955 0.237004 -0.108086
C42   C     C_R   0.381346 0.250101 0.763152 -0.138205
C43   C     C_R   0.792737 0.231342 0.531414 0.094498
C44   C     C_R   0.208507 0.767560 0.468714 0.093081
C45   C     C_R   0.199459 0.247765 0.468712 0.109443
C46   C     C_R   0.958613 0.516547 0.950747 0.025378
C47   C     C_R   0.798618 0.740778 0.531760 0.101033
C48   C     C_R   0.292745 0.731349 0.531413 0.094455
C49   C     C_R   0.708514 0.267568 0.468714 0.093111
C50   C     C_R   0.699431 0.748118 0.468695 0.109834
C51   C     C_R   0.298747 0.241123 0.531751 0.100686
C52   C     C_R   0.759469 0.231893 0.466702 -0.174981
C53   C     C_R   0.241178 0.766422 0.533580 -0.223919
C54   C     C_R   0.232726 0.247798 0.533440 -0.214799
C55   C     C_R   0.765379 0.740758 0.466879 -0.234134
C56   C     C_R   0.259476 0.731900 0.466701 -0.175134
C57   C     C_R   0.958845 0.483880 0.950384 0.023430
C58   C     C_R   0.741184 0.266429 0.533580 -0.223716
C59   C     C_R   0.732687 0.748134 0.533423 -0.215145
C60   C     C_R   0.265499 0.241092 0.466871 -0.233556
C61   C     C_R   0.717606 0.250122 0.434837 0.091039
C62   C     C_R   0.283442 0.748669 0.565371 0.078463
C63   C     C_R   0.282220 0.244917 0.565033 0.055723
C64   C     C_R   0.716002 0.744657 0.435187 0.082498
C65   C     C_R   0.217606 0.750122 0.434836 0.091018
C66   C     C_R   0.783440 0.248669 0.565372 0.078446
C67   C     C_R   0.782136 0.744901 0.565027 0.055744
C68   C     C_R   0.041467 0.516593 0.048759 0.025204
C69   C     C_R   0.216066 0.244646 0.435187 0.082344
C70   C     C_R   0.520126 0.615010 0.055255 0.041313
C71   C     C_R   0.479747 0.384965 0.944618 0.021265
C72   C     C_R   0.479637 0.615062 0.944692 0.040008
C73   C     C_R   0.520273 0.384965 0.055189 0.040800
C74   C     C_R   0.020130 0.115010 0.055254 0.041276
C75   C     C_R   0.979744 0.884964 0.944613 0.021321
C76   C     C_R   0.979628 0.115063 0.944687 0.039967
C77   C     C_R   0.020266 0.884966 0.055183 0.040853
C78   C     C_R   0.500003 0.334227 0.999973 0.854368
C79   C     C_R   0.500025 0.032844 0.999750 0.058352
C80   C     C_R   0.499983 0.665773 0.000012 0.839078
C81   C     C_R   0.000002 0.834227 0.999972 0.854252
C82   C     C_R   0.999983 0.165773 0.000011 0.839107
C83   C     C_R   0.519887 0.582603 0.054705 -0.131342
C84   C     C_R   0.479933 0.417371 0.945096 -0.129461
C85   C     C_R   0.479839 0.582658 0.945200 -0.130444
C86   C     C_R   0.520019 0.417369 0.054612 -0.129209
C87   C     C_R   0.019890 0.082603 0.054702 -0.131366
C88   C     C_R   0.979929 0.917370 0.945088 -0.129414
C89   C     C_R   0.979828 0.082659 0.945193 -0.130498
C90   C     C_R   0.500072 0.967625 0.999783 0.058727
C91   C     C_R   0.020011 0.917370 0.054604 -0.129154
C92   C     C_R   0.499866 0.566486 0.999943 0.223721
C93   C     C_R   0.499951 0.433514 0.999830 0.226861
C94   C     C_R   0.999862 0.066486 0.999938 0.223759
C95   C     C_R   0.999943 0.933514 0.999820 0.226807
C96   C     C_R   0.499982 0.166009 0.999978 0.763846
C97   C     C_R   0.500017 0.834115 0.000008 0.860402
C98   C     C_R   0.999982 0.666009 0.999979 0.763720
C99   C     C_R   0.000017 0.334115 0.000008 0.860620
C100  C     C_R   0.464848 0.884640 0.997020 0.049467
C101  C     C_R   0.000023 0.532845 0.999754 0.058343
C102  C     C_R   0.509417 0.115657 0.050122 0.059933
C103  C     C_R   0.535269 0.884663 0.002891 0.055920
C104  C     C_R   0.490465 0.115786 0.949583 0.059131
C105  C     C_R   0.964819 0.384641 0.996962 0.049612
C106  C     C_R   0.009335 0.615658 0.050074 0.060134
C107  C     C_R   0.035297 0.384666 0.002954 0.056087
C108  C     C_R   0.990545 0.615787 0.949634 0.059294
C109  C     C_R   0.465335 0.917059 0.997405 -0.190562
C110  C     C_R   0.508958 0.083331 0.049395 -0.120254
C111  C     C_R   0.534797 0.917083 0.002368 -0.189991
C112  C     C_R   0.400312 0.749963 0.000070 0.818353
C113  C     C_R   0.000070 0.467626 0.999788 0.058749
C114  C     C_R   0.490963 0.083459 0.950204 -0.120627
C115  C     C_R   0.965305 0.417061 0.997347 -0.190608
C116  C     C_R   0.008877 0.583333 0.049349 -0.120149
C117  C     C_R   0.034826 0.417086 0.002434 -0.190063
C118  C     C_R   0.991040 0.583459 0.950256 -0.120538
C119  C     C_R   0.500068 0.933376 0.999847 0.150469
C120  C     C_R   0.499981 0.067092 0.999781 0.085541
C121  C     C_R   0.000067 0.433378 0.999852 0.150497
C122  C     C_R   0.999979 0.567094 0.999784 0.085559
C123  C     C_R   0.499896 0.467536 0.999794 -0.249662
C124  C     C_R   0.532485 0.516301 0.997493 0.315841
C125  C     C_R   0.499888 0.532464 0.999917 -0.248093
C126  C     C_R   0.999888 0.967536 0.999783 -0.249697
C127  C     C_R   0.999882 0.032464 0.999909 -0.248059
C128  C     C_R   0.500053 0.868215 0.999989 0.010843
C129  C     C_R   0.499946 0.132110 0.999889 -0.061727
C130  C     C_R   0.000053 0.368217 0.999991 0.010737
C131  C     C_R   0.999946 0.632111 0.999891 -0.061462
C132  C     C_R   0.467294 0.483699 0.002207 0.316920
C133  C     C_R   0.467289 0.516165 0.002268 0.316272
C134  C     C_R   0.532489 0.483834 0.997432 0.317217
C135  C     C_R   0.032477 0.016301 0.997481 0.315830
C136  C     C_R   0.967287 0.983699 0.002199 0.316921
C137  C     C_R   0.967284 0.016166 0.002261 0.316261
C138  C     C_R   0.032480 0.983835 0.997418 0.317240
C139  C     C_R   0.499910 0.631569 0.999990 -0.008177
C140  C     C_R   0.400293 0.250022 0.000024 0.820096
C141  C     C_R   0.500014 0.368431 0.999925 -0.009487
C142  C     C_R   0.999908 0.131569 0.999988 -0.008205
C143  C     C_R   0.000011 0.868431 0.999921 -0.009433
C144  C     C_3   0.752285 0.723680 0.029077 -0.319052
C145  C     C_3   0.254983 0.279212 0.985437 -0.316182
C146  C     C_3   0.249100 0.722966 0.973935 -0.320919
C147  C     C_3   0.745064 0.279283 0.014393 -0.309525
C148  C     C_3   0.245006 0.220839 0.014547 -0.317628
C149  C     C_3   0.747702 0.776373 0.970904 -0.316904
C150  C     C_3   0.755048 0.220832 0.985844 -0.320252
C151  C     C_R   0.599706 0.749982 0.999975 0.823058
C152  C     C_3   0.251013 0.777148 0.026303 -0.309109
C153  C     C_3   0.290027 0.242069 0.055328 0.123206
C154  C     C_3   0.708836 0.750606 0.942421 0.122405
C155  C     C_3   0.710043 0.242011 0.944833 0.120769
C156  C     C_3   0.291127 0.752152 0.057564 0.121796
C157  C     C_3   0.791150 0.749447 0.057560 0.123681
C158  C     C_3   0.209961 0.257981 0.944656 0.121972
C159  C     C_3   0.208988 0.747962 0.942674 0.120813
C160  C     C_3   0.790072 0.258103 0.055405 0.121534
C161  C     C_1   0.360637 0.250151 0.999844 -0.130781
C162  C     C_R   0.099700 0.750049 0.999955 0.832433
C163  C     C_1   0.639378 0.749865 0.000190 -0.125270
C164  C     C_1   0.639335 0.250231 0.000100 -0.113496
C165  C     C_1   0.360697 0.749819 0.999970 -0.128622
C166  C     C_1   0.860611 0.750155 0.999793 -0.130728
C167  C     C_1   0.139353 0.249868 0.000139 -0.125308
C168  C     C_1   0.139357 0.750235 0.000143 -0.113358
C169  C     C_1   0.860718 0.249823 0.000013 -0.128623
C170  C     C_3   0.241599 0.230062 0.958521 0.122748
C171  C     C_3   0.752542 0.774637 0.029784 0.122364
C172  C     C_3   0.758406 0.230184 0.041746 0.123615
C173  C     C_R   0.900313 0.249963 0.000073 0.818904
C174  C     C_3   0.246347 0.773831 0.967733 0.120308
C175  C     C_3   0.747443 0.725415 0.970197 0.122668
C176  C     C_3   0.258389 0.269988 0.041463 0.121668
C177  C     C_3   0.253768 0.726283 0.032504 0.123626
C178  C     C_3   0.741707 0.269931 0.958492 0.120445
C179  C     C_3   0.286835 0.250578 0.999655 0.117376
C180  C     C_3   0.713285 0.749514 0.000591 0.117084
C181  C     C_3   0.713184 0.250649 0.000385 0.115191
C182  C     C_3   0.286820 0.749495 0.999633 0.116899
C183  C     C_3   0.786702 0.750538 0.999390 0.117343
C184  C     C_R   0.900291 0.750022 0.000021 0.819412
C185  C     C_3   0.213154 0.249471 0.000328 0.116799
C186  C     C_3   0.213293 0.750618 0.000603 0.115176
C187  C     C_3   0.786929 0.249465 0.999851 0.116759
C188  C     C_1   0.327301 0.250338 0.999732 -0.024861
C189  C     C_1   0.672756 0.749710 0.000388 -0.023095
C190  C     C_1   0.672685 0.250430 0.000240 -0.015013
C191  C     C_1   0.327345 0.749666 0.999828 -0.024765
C192  C     C_1   0.827231 0.750327 0.999592 -0.024894
C193  C     C_1   0.172687 0.249698 0.000250 -0.023117
C194  C     C_1   0.172743 0.750422 0.000356 -0.014793
C195  C     C_R   0.099704 0.249982 0.999972 0.823665
C196  C     C_1   0.827403 0.249659 0.999944 -0.024730
C197  C     C_R   0.415505 0.250306 0.831553 0.846557
C198  C     C_R   0.583982 0.750217 0.168502 0.843396
C199  C     C_R   0.584216 0.250156 0.168099 0.863230
C200  C     C_R   0.416101 0.750115 0.831869 0.860153
C201  C     C_R   0.915504 0.750306 0.831550 0.846037
C202  C     C_R   0.083980 0.250217 0.168500 0.843870
C203  C     C_R   0.084215 0.750156 0.168099 0.863011
C204  C     C_R   0.916101 0.250115 0.831869 0.860478
C205  C     C_R   0.871975 0.278208 0.730854 0.330931
C206  C     C_R   0.541307 0.983923 0.049110 0.022020
C207  C     C_R   0.168018 0.757385 0.268237 0.334813
C208  C     C_R   0.146670 0.276069 0.272534 0.338559
C209  C     C_R   0.872805 0.776719 0.727888 0.397769
C210  C     C_R   0.371968 0.778210 0.730854 0.330726
C211  C     C_R   0.668022 0.257374 0.268238 0.334697
C212  C     C_R   0.646777 0.776042 0.272549 0.338395
C213  C     C_R   0.372675 0.276760 0.727918 0.397827
C214  C     C_R   0.839936 0.277687 0.665514 0.046695
C215  C     C_R   0.200573 0.757876 0.333591 0.032407
C216  C     C_R   0.179094 0.274274 0.337831 0.042175
Cl1   Cl    Cl    0.574160 0.536748 0.995878 -0.520526
Cl2   Cl    Cl    0.188663 0.766423 0.227327 -0.628554
Cl3   Cl    Cl    0.140983 0.311673 0.237119 -0.615473
Cl4   Cl    Cl    0.900044 0.812772 0.763395 -0.580406
Cl5   Cl    Cl    0.400098 0.813359 0.770603 -0.636195
Cl6   Cl    Cl    0.688673 0.266398 0.227329 -0.627472
Cl7   Cl    Cl    0.641255 0.811614 0.237153 -0.615199
Cl8   Cl    Cl    0.399718 0.312842 0.763464 -0.580753
Cl9   Cl    Cl    0.425622 0.463251 0.003828 -0.518622
Cl10  Cl    Cl    0.425606 0.536443 0.003951 -0.521809
Cl11  Cl    Cl    0.574171 0.463556 0.995747 -0.513539
Cl12  Cl    Cl    0.074151 0.036748 0.995864 -0.520748
Cl13  Cl    Cl    0.925616 0.963251 0.003820 -0.518395
Cl14  Cl    Cl    0.925603 0.036444 0.003949 -0.521934
Cl15  Cl    Cl    0.074161 0.963556 0.995731 -0.513364
Cl16  Cl    Cl    0.900114 0.313356 0.770604 -0.635812
H1    H     H_    0.810810 0.200756 0.643680 0.153890
H2    H     H_    0.064903 0.739317 0.244056 0.159411
H3    H     H_    0.407330 0.027777 0.859864 0.185234
H4    H     H_    0.410705 0.973443 0.858720 0.196046
H5    H     H_    0.387745 0.972578 0.895895 0.184451
H6    H     H_    0.612421 0.027097 0.098542 0.194375
H7    H     H_    0.592744 0.027827 0.139621 0.186041
H8    H     H_    0.089343 0.473486 0.140874 0.196163
H9    H     H_    0.112381 0.472752 0.103794 0.185909
H10   H     H_    0.887654 0.526915 0.900772 0.193325
H11   H     H_    0.907430 0.527778 0.859810 0.185239
H12   H     H_    0.910804 0.473443 0.858679 0.196036
H13   H     H_    0.100818 0.202487 0.241434 0.183695
H14   H     H_    0.887761 0.472580 0.895753 0.184404
H15   H     H_    0.112409 0.527100 0.098713 0.194443
H16   H     H_    0.092641 0.527829 0.139685 0.186046
H17   H     H_    0.325433 0.229000 0.144404 0.199612
H18   H     H_    0.347698 0.213829 0.112411 0.180390
H19   H     H_    0.671555 0.751810 0.849622 0.200815
H20   H     H_    0.644835 0.770555 0.872719 0.186050
H21   H     H_    0.674692 0.228772 0.855889 0.200013
H22   H     H_    0.652367 0.213695 0.887949 0.181460
H23   H     H_    0.328228 0.755819 0.150086 0.207640
H24   H     H_    0.862391 0.701886 0.758418 0.179270
H25   H     H_    0.354089 0.773895 0.125064 0.183696
H26   H     H_    0.828430 0.748245 0.150359 0.199766
H27   H     H_    0.855151 0.729498 0.127265 0.179798
H28   H     H_    0.174554 0.271054 0.855582 0.201405
H29   H     H_    0.152288 0.286222 0.887578 0.185988
H30   H     H_    0.171885 0.744295 0.850151 0.199967
H31   H     H_    0.146025 0.726220 0.875173 0.181512
H32   H     H_    0.825423 0.271342 0.144349 0.207918
H33   H     H_    0.847746 0.286420 0.112287 0.183468
H34   H     H_    0.785447 0.814449 0.077288 0.203421
H35   H     H_    0.368779 0.701323 0.757100 0.163649
H36   H     H_    0.725147 0.814713 0.033294 0.186415
H37   H     H_    0.199217 0.197706 0.892102 0.202634
H38   H     H_    0.258693 0.191765 0.934482 0.185629
H39   H     H_    0.211538 0.812333 0.915987 0.205275
H40   H     H_    0.271802 0.813732 0.959952 0.185176
H41   H     H_    0.800733 0.197938 0.108467 0.202186
H42   H     H_    0.741245 0.191965 0.066079 0.187077
H43   H     H_    0.300757 0.302353 0.107869 0.202229
H44   H     H_    0.241278 0.308279 0.065499 0.187897
H45   H     H_    0.714519 0.685612 0.922670 0.203481
H46   H     H_    0.564899 0.239336 0.244056 0.159986
H47   H     H_    0.774820 0.685330 0.966691 0.184419
H48   H     H_    0.699387 0.302183 0.891784 0.204424
H49   H     H_    0.758875 0.308149 0.934165 0.186192
H50   H     H_    0.288589 0.687788 0.084272 0.202975
H51   H     H_    0.228325 0.686377 0.040287 0.185303
H52   H     H_    0.815617 0.321847 0.642306 0.223488
H53   H     H_    0.862560 0.313936 0.644139 0.230141
H54   H     H_    0.265340 0.750811 0.355333 0.225309
H55   H     H_    0.251315 0.788532 0.353444 0.234636
H56   H     H_    0.229409 0.306724 0.363285 0.226597
H57   H     H_    0.600616 0.702546 0.241444 0.183891
H58   H     H_    0.185303 0.318850 0.364527 0.227237
H59   H     H_    0.794424 0.807368 0.598492 0.195442
H60   H     H_    0.840822 0.797984 0.600124 0.202426
H61   H     H_    0.315598 0.821846 0.642305 0.223572
H62   H     H_    0.362543 0.813944 0.644138 0.229885
H63   H     H_    0.765341 0.250782 0.355334 0.225500
H64   H     H_    0.751334 0.288508 0.353444 0.234796
H65   H     H_    0.729653 0.806577 0.363313 0.226683
H66   H     H_    0.685603 0.818841 0.364558 0.227083
H67   H     H_    0.294088 0.307352 0.598517 0.195494
H68   H     H_    0.362655 0.201829 0.758411 0.178990
H69   H     H_    0.340590 0.298224 0.600212 0.202489
H70   H     H_    0.766617 0.218216 0.441065 0.167649
H71   H     H_    0.233944 0.779896 0.559345 0.154740
H72   H     H_    0.220103 0.250769 0.559253 0.167555
H73   H     H_    0.121743 0.738327 0.357439 0.160515
H74   H     H_    0.778116 0.738137 0.441134 0.151806
H75   H     H_    0.266629 0.718229 0.441064 0.167652
H76   H     H_    0.733955 0.279909 0.559345 0.154778
H77   H     H_    0.720102 0.751366 0.559227 0.167356
H78   H     H_    0.278266 0.238728 0.441119 0.152013
H79   H     H_    0.535613 0.569962 0.097172 0.154635
H80   H     H_    0.464173 0.429991 0.902597 0.157995
H81   H     H_    0.464100 0.570059 0.902715 0.155381
H82   H     H_    0.535753 0.429988 0.097075 0.154703
H83   H     H_    0.035620 0.069961 0.097170 0.154628
H84   H     H_    0.156810 0.199904 0.354481 0.158757
H85   H     H_    0.964168 0.929989 0.902588 0.158002
H86   H     H_    0.964084 0.070061 0.902706 0.155361
H87   H     H_    0.035743 0.929990 0.097065 0.154731
H88   H     H_    0.438693 0.929535 0.996164 0.146037
H89   H     H_    0.515497 0.070807 0.087592 0.157677
H90   H     H_    0.561446 0.929577 0.003558 0.146486
H91   H     H_    0.484433 0.071035 0.911964 0.157718
H92   H     H_    0.938639 0.429536 0.996057 0.145998
H93   H     H_    0.015357 0.570809 0.087509 0.157639
H94   H     H_    0.061498 0.429581 0.003674 0.146416
H95   H     H_    0.805875 0.699493 0.645261 0.159043
H96   H     H_    0.984571 0.571035 0.912054 0.157679
H97   H     H_    0.754597 0.702257 0.052728 0.159295
H98   H     H_    0.258590 0.302943 0.973601 0.162041
H99   H     H_    0.247874 0.700937 0.952647 0.159900
H100  H     H_    0.741451 0.303045 0.026000 0.164770
H101  H     H_    0.241398 0.197107 0.026383 0.160487
H102  H     H_    0.745390 0.797795 0.947253 0.161341
H103  H     H_    0.758660 0.197068 0.974239 0.160917
H104  H     H_    0.252236 0.799176 0.047592 0.165053
H105  H     H_    0.837278 0.196058 0.586632 0.187074
H106  H     H_    0.310828 0.700754 0.643680 0.153845
H107  H     H_    0.865802 0.228788 0.591715 0.205916
H108  H     H_    0.146769 0.780367 0.450511 0.181323
H109  H     H_    0.178829 0.809861 0.453048 0.200760
H110  H     H_    0.130397 0.232558 0.409979 0.192070
H111  H     H_    0.136905 0.271409 0.409626 0.200910
H112  H     H_    0.853801 0.715854 0.550318 0.190842
H113  H     H_    0.859836 0.754611 0.549472 0.186976
H114  H     H_    0.337299 0.696071 0.586632 0.187131
H115  H     H_    0.365811 0.728807 0.591712 0.205680
H116  H     H_    0.646781 0.280390 0.450510 0.181531
H117  H     H_    0.621738 0.238345 0.357438 0.160813
H118  H     H_    0.678854 0.309875 0.453049 0.200715
H119  H     H_    0.630149 0.733331 0.409875 0.192101
H120  H     H_    0.637242 0.772116 0.409641 0.200636
H121  H     H_    0.354262 0.216639 0.550293 0.191223
H122  H     H_    0.359760 0.255452 0.549427 0.187060
H123  H     H_    0.524416 0.624182 0.129098 0.206704
H124  H     H_    0.578031 0.623849 0.144513 0.183639
H125  H     H_    0.475409 0.375755 0.870743 0.229261
H126  H     H_    0.421819 0.376067 0.855397 0.214859
H127  H     H_    0.475304 0.624342 0.870815 0.209189
H128  H     H_    0.656570 0.699971 0.354490 0.158895
H129  H     H_    0.421711 0.623938 0.855461 0.182503
H130  H     H_    0.524643 0.375712 0.129100 0.208185
H131  H     H_    0.578226 0.376147 0.144427 0.195837
H132  H     H_    0.024433 0.124182 0.129107 0.206526
H133  H     H_    0.078043 0.123848 0.144509 0.183714
H134  H     H_    0.975410 0.875753 0.870741 0.229536
H135  H     H_    0.921819 0.876063 0.855391 0.214551
H136  H     H_    0.975282 0.124344 0.870800 0.208955
H137  H     H_    0.921695 0.123940 0.855460 0.182588
H138  H     H_    0.024634 0.875714 0.129093 0.208427
H139  H     H_    0.306182 0.199442 0.645247 0.159038
H140  H     H_    0.078218 0.876150 0.144424 0.195793
H141  H     H_    0.395189 0.875266 0.955257 0.205093
H142  H     H_    0.432783 0.875419 0.033598 0.182461
H143  H     H_    0.489483 0.145748 0.085196 0.174866
H144  H     H_    0.549518 0.145057 0.122911 0.204776
H145  H     H_    0.604919 0.875345 0.044679 0.207381
H146  H     H_    0.567315 0.875448 0.966336 0.187305
H147  H     H_    0.450308 0.145261 0.876894 0.199862
H148  H     H_    0.510336 0.146083 0.914568 0.176910
H149  H     H_    0.895145 0.375267 0.955115 0.204588
H150  H     H_    0.868763 0.201325 0.757100 0.163652
H151  H     H_    0.932688 0.375421 0.033453 0.182587
H152  H     H_    0.989303 0.645748 0.085031 0.174802
H153  H     H_    0.049358 0.645064 0.122865 0.204678
H154  H     H_    0.104963 0.375349 0.044827 0.206739
H155  H     H_    0.067410 0.375455 0.966486 0.187368
H156  H     H_    0.950468 0.645266 0.876941 0.199821
H157  H     H_    0.010516 0.646080 0.914734 0.176839
H158  H     H_    0.589445 0.973486 0.140823 0.196165
H159  H     H_    0.612400 0.972750 0.103640 0.186003
H160  H     H_    0.387646 0.026913 0.900933 0.193216
N1    N     N_3   0.836471 0.214095 0.561226 -0.452604
N2    N     N_3   0.457821 0.368957 0.887492 -0.381612
N3    N     N_3   0.457711 0.631093 0.887544 -0.432228
N4    N     N_3   0.542239 0.368962 0.112373 -0.419700
N5    N     N_3   0.042057 0.130990 0.112413 -0.433336
N6    N     N_3   0.957821 0.868954 0.887489 -0.381688
N7    N     N_3   0.957695 0.131095 0.887538 -0.432304
N8    N     N_3   0.042232 0.868965 0.112368 -0.419591
N9    N     N_3   0.429333 0.868442 0.995306 -0.438827
N10   N     N_3   0.518762 0.131278 0.101825 -0.459293
N11   N     N_3   0.570769 0.868487 0.004662 -0.431287
N12   N     N_3   0.166940 0.787187 0.437458 -0.455795
N13   N     N_3   0.481076 0.131544 0.897914 -0.459971
N14   N     N_3   0.929275 0.368443 0.995189 -0.438967
N15   N     N_3   0.018599 0.631282 0.101725 -0.459429
N16   N     N_3   0.070826 0.368492 0.004784 -0.431569
N17   N     N_3   0.981238 0.631544 0.898016 -0.460068
N18   N     N_3   0.582511 0.967013 0.099954 -0.454340
N19   N     N_3   0.416156 0.033452 0.902205 -0.459737
N20   N     N_3   0.417645 0.966926 0.899594 -0.454646
N21   N     N_3   0.583904 0.033547 0.097271 -0.457895
N22   N     N_3   0.082461 0.467015 0.100038 -0.454402
N23   N     N_3   0.149293 0.251854 0.438083 -0.452852
N24   N     N_3   0.916200 0.533453 0.902118 -0.459596
N25   N     N_3   0.917691 0.466927 0.899520 -0.454702
N26   N     N_3   0.083857 0.533549 0.097368 -0.457781
N27   N     N_3   0.334563 0.234238 0.116749 -0.445552
N28   N     N_3   0.663309 0.750282 0.879036 -0.439505
N29   N     N_3   0.665528 0.234082 0.883458 -0.441418
N30   N     N_3   0.336604 0.753496 0.120916 -0.439939
N31   N     N_3   0.836676 0.749771 0.120946 -0.443186
N32   N     N_3   0.165424 0.265814 0.883237 -0.440004
N33   N     N_3   0.163510 0.746618 0.879322 -0.439132
N34   N     N_3   0.849094 0.737001 0.563906 -0.453103
N35   N     N_3   0.834587 0.266033 0.116780 -0.440619
N36   N     N_3   0.755948 0.801219 0.064215 -0.438127
N37   N     N_3   0.231911 0.208789 0.911551 -0.440895
N38   N     N_3   0.241689 0.799450 0.930506 -0.439853
N39   N     N_3   0.768040 0.209013 0.088883 -0.429522
N40   N     N_3   0.268071 0.291261 0.088431 -0.438900
N41   N     N_3   0.744032 0.698833 0.935764 -0.440708
N42   N     N_3   0.732075 0.291104 0.911359 -0.440530
N43   N     N_3   0.258429 0.700665 0.069735 -0.431836
N44   N     N_3   0.830013 0.305395 0.630897 -0.447167
N45   N     N_3   0.336485 0.714110 0.561225 -0.452702
N46   N     N_3   0.250157 0.766286 0.367167 -0.448122
N47   N     N_3   0.208179 0.300399 0.374995 -0.448658
N48   N     N_3   0.831375 0.802486 0.627652 -0.390265
N49   N     N_3   0.329998 0.805398 0.630896 -0.447239
N50   N     N_3   0.750166 0.266264 0.367168 -0.447924
N51   N     N_3   0.708394 0.800335 0.375019 -0.448654
N52   N     N_3   0.331076 0.302589 0.627706 -0.390300
N53   N     N_3   0.666955 0.287202 0.437458 -0.455792
N54   N     N_3   0.649323 0.752560 0.438043 -0.453215
N55   N     N_3   0.349271 0.237676 0.563879 -0.452873
N56   N     N_3   0.542045 0.630991 0.112411 -0.433265
O1    O     O_3   0.500000 0.250020 0.000000 -0.500948
O2    O     O_R   0.899640 0.268150 0.963690 -0.634947
O3    O     O_R   0.899640 0.731850 0.963690 -0.633881
O4    O     O_R   0.100360 0.268150 0.036310 -0.628170
O5    O     O_R   0.452240 0.268200 0.861400 -0.585267
O6    O     O_R   0.547760 0.731800 0.138600 -0.652954
O7    O     O_R   0.547760 0.268200 0.138600 -0.638619
O8    O     O_R   0.452240 0.731800 0.861400 -0.642229
O9    O     O_R   0.952240 0.768200 0.861400 -0.585186
O10   O     O_R   0.047760 0.231800 0.138600 -0.652869
O11   O     O_R   0.047760 0.768200 0.138600 -0.638648
O12   O     O_3   0.500000 0.749980 0.000000 -0.506981
O13   O     O_R   0.952240 0.231800 0.861400 -0.642146
O14   O     O_R   0.503360 0.319320 0.963650 -0.606376
O15   O     O_R   0.496640 0.680680 0.036350 -0.625842
O16   O     O_R   0.496640 0.319320 0.036350 -0.622291
O17   O     O_R   0.503360 0.680680 0.963650 -0.625784
O18   O     O_R   0.003360 0.819320 0.963650 -0.606278
O19   O     O_R   0.996640 0.180680 0.036350 -0.625951
O20   O     O_R   0.996640 0.819320 0.036350 -0.622148
O21   O     O_R   0.003360 0.180680 0.963650 -0.625929
O22   O     O_R   0.539730 0.180720 0.036330 -0.642558
O23   O     O_3   0.000000 0.750020 0.000000 -0.501111
O24   O     O_R   0.460270 0.819280 0.963670 -0.611113
O25   O     O_R   0.460270 0.180720 0.963670 -0.644109
O26   O     O_R   0.539730 0.819280 0.036330 -0.610262
O27   O     O_R   0.039730 0.680720 0.036330 -0.642392
O28   O     O_R   0.960270 0.319280 0.963670 -0.611225
O29   O     O_R   0.960270 0.680720 0.963670 -0.643891
O30   O     O_R   0.039730 0.319280 0.036330 -0.610350
O31   O     O_R   0.409160 0.231870 0.861420 -0.653824
O32   O     O_R   0.590840 0.768130 0.138580 -0.581964
O33   O     O_R   0.590840 0.231870 0.138580 -0.605288
O34   O     O_3   0.000000 0.249980 0.000000 -0.506868
O35   O     O_R   0.409160 0.768130 0.861420 -0.599775
O36   O     O_R   0.909160 0.731870 0.861420 -0.653884
O37   O     O_R   0.090840 0.268130 0.138580 -0.582062
O38   O     O_R   0.090840 0.731870 0.138580 -0.605214
O39   O     O_R   0.909160 0.268130 0.861420 -0.599840
O40   O     O_R   0.564010 0.268190 0.963640 -0.632332
O41   O     O_R   0.435990 0.731810 0.036360 -0.633874
O42   O     O_R   0.435990 0.268190 0.036360 -0.635849
O43   O     O_R   0.564010 0.731810 0.963640 -0.631976
O44   O     O_R   0.064010 0.768190 0.963640 -0.632180
O45   O     O_R   0.600360 0.231850 0.036310 -0.616595
O46   O     O_R   0.935990 0.231810 0.036360 -0.633963
O47   O     O_R   0.935990 0.768190 0.036360 -0.635710
O48   O     O_R   0.064010 0.231810 0.963640 -0.632068
O49   O     O_R   0.399640 0.768150 0.963690 -0.634524
O50   O     O_R   0.399640 0.231850 0.963690 -0.634368
O51   O     O_R   0.600360 0.768150 0.036310 -0.627585
O52   O     O_R   0.100360 0.731850 0.036310 -0.616056
Zn1   Zn    Zn3+2 0.443260 0.224070 0.948090 0.964409
Zn2   Zn    Zn3+2 0.495180 0.724020 0.051930 0.982659
Zn3   Zn    Zn3+2 0.495180 0.275980 0.051930 1.002058
Zn4   Zn    Zn3+2 0.504820 0.724020 0.948070 0.994589
Zn5   Zn    Zn3+2 0.004820 0.775980 0.948070 1.039776
Zn6   Zn    Zn3+2 0.995180 0.224020 0.051930 0.982783
Zn7   Zn    Zn3+2 0.995180 0.775980 0.051930 1.002030
Zn8   Zn    Zn3+2 0.004820 0.224020 0.948070 0.994650
Zn9   Zn    Zn3+2 0.556740 0.775930 0.051910 1.038701
Zn10  Zn    Zn3+2 0.556740 0.224070 0.051910 1.005693
Zn11  Zn    Zn3+2 0.443260 0.775930 0.948090 1.025574
Zn12  Zn    Zn3+2 0.943260 0.724070 0.948090 0.964533
Zn13  Zn    Zn3+2 0.056740 0.275930 0.051910 1.038496
Zn14  Zn    Zn3+2 0.056740 0.724070 0.051910 1.006007
Zn15  Zn    Zn3+2 0.943260 0.275930 0.948090 1.025471
Zn16  Zn    Zn3+2 0.504820 0.275980 0.948070 1.039776

loop_
_geom_bond_atom_site_label_1
_geom_bond_atom_site_label_2
_ccdc_geom_bond_type
C198  O32   A    
C39   C200  S    
H147  N13   S    
C13   N20   S    
H9    N22   S    
O22   Zn10  S    
C82   O21   A    
C167  C193  T    
O44   Zn5   S    
C151  O43   A    
C78   O14   A    
O31   Zn1   S    
C202  O37   A    
C50   C59   A    
C159  C186  S    
C74   N5    S    
H51   N43   S    
H113  N34   S    
C8    C214  A    
C52   C61   A    
C60   H78   S    
C13   C90   A    
C54   C63   A    
C162  O52   A    
C87   C94   A    
H12   N25   S    
H141  N9    S    
C89   C94   A    
C206  N18   S    
C216  N47   S    
H119  N54   S    
C44   C53   A    
C85   C92   A    
C72   C139  A    
C150  C172  S    
C117  H94   S    
C152  C156  S    
C11   C67   S    
H53   N44   S    
C98   C131  S    
C203  O38   A    
O49   Zn11  S    
C4    C12   A    
C147  C181  S    
C35   N22   S    
C126  C136  A    
C100  C109  A    
C1    O40   A    
H155  N16   S    
O34   Zn13  S    
O32   Zn9   S    
H108  N12   S    
C50   N54   S    
C11   C20   A    
C123  C134  A    
C45   C69   A    
C76   N7    S    
O52   Zn14  S    
C21   H106  S    
C22   C31   A    
C78   C141  S    
C59   H77   S    
O12   Zn11  S    
O35   Zn11  S    
C179  C188  S    
H59   N48   S    
C151  O51   A    
C177  C186  S    
C89   H86   S    
C42   C197  S    
C2    N19   S    
C12   C62   S    
C181  C190  S    
C79   C120  S    
C145  C179  S    
H7    N21   S    
C105  N14   S    
O12   Zn4   S    
C75   C143  A    
H23   N30   S    
O10   Zn6   S    
C205  C214  A    
O48   Zn8   S    
C104  C129  A    
C25   H139  S    
C48   N45   S    
C37   C208  A    
C148  C153  S    
C110  C120  A    
C96   O25   A    
H62   N49   S    
C158  C185  S    
H15   N26   S    
C175  C183  S    
C16   C25   A    
O14   Zn16  S    
C77   C91   A    
C87   H83   S    
C167  C195  S    
C93   C123  S    
O25   Zn1   S    
C137  Cl14  S    
C176  N40   S    
H125  N2    S    
H14   N25   S    
C88   C95   A    
C40   C199  S    
C80   C139  S    
C136  Cl13  S    
C101  C122  S    
C162  O44   A    
C134  Cl11  S    
C215  N46   S    
C81   O18   A    
H118  N53   S    
C98   O27   A    
C157  C171  S    
C8    C17   A    
C211  Cl6   S    
H8    N22   S    
H67   N52   S    
O6    Zn2   S    
C43   C66   A    
C112  C165  S    
O26   Zn9   S    
C35   C113  A    
C71   N2    S    
C84   C93   A    
O4    Zn13  S    
C9    C65   S    
C3    C11   A    
H149  N14   S    
C10   C69   S    
C173  O46   A    
C30   H35   S    
H34   N36   S    
C6    N51   S    
C96   C129  S    
H30   N33   S    
O37   Zn13  S    
C4    N49   S    
C174  N38   S    
C115  C121  A    
C75   N6    S    
C123  C132  A    
C23   H128  S    
C48   C56   A    
C92   C125  S    
C174  C182  S    
C72   C85   A    
H36   N36   S    
C94   C127  S    
C9    C215  A    
H37   N37   S    
C199  O33   A    
C40   C211  A    
H157  N17   S    
C33   C42   A    
O23   Zn14  S    
C112  O49   A    
C161  C188  T    
C180  C189  S    
C213  Cl8   S    
C43   C52   A    
C35   C68   A    
H65   N51   S    
C111  C119  A    
O2    Zn15  S    
H126  N2    S    
H131  N4    S    
H134  N6    S    
C106  N15   S    
C159  N33   S    
C59   C67   A    
O36   Zn12  S    
H130  N4    S    
C172  C181  S    
H61   N49   S    
C144  C180  S    
C1    C164  S    
C34   C204  S    
O33   Zn10  S    
C108  C131  A    
C29   C38   A    
C37   C202  S    
H145  N11   S    
C146  H99   S    
H60   N48   S    
C68   N26   S    
C19   H84   S    
O18   Zn5   S    
H4    N20   S    
C155  C178  S    
O7    Zn3   S    
C76   C89   A    
C71   C141  A    
H42   N39   S    
C204  O39   A    
C214  N44   S    
C77   N8    S    
C90   C206  A    
O3    Zn12  S    
C102  N10   S    
H54   N46   S    
C44   C65   A    
C148  H101  S    
C97   C128  S    
C164  C190  T    
C147  C160  S    
C147  H100  S    
C44   N12   S    
C160  N35   S    
C43   N1    S    
C140  O50   A    
C34   C205  A    
C46   C101  A    
H18   N27   S    
O47   Zn7   S    
O45   Zn10  S    
C81   O20   A    
C152  C186  S    
C156  C182  S    
C158  C170  S    
C57   C113  A    
O39   Zn15  S    
H28   N32   S    
C80   O17   A    
C170  N37   S    
C149  H102  S    
C201  O36   A    
C171  N36   S    
C77   C143  A    
C19   C28   A    
C86   C93   A    
H127  N3    S    
C24   C79   A    
C48   C62   A    
H156  N17   S    
C51   N55   S    
C70   N56   S    
O20   Zn7   S    
H19   N28   S    
C162  C168  S    
C16   C63   S    
C150  C155  S    
C49   N53   S    
C114  H91   S    
C111  H90   S    
O15   Zn2   S    
C149  C183  S    
C26   H150  S    
C124  Cl1   S    
C100  C128  A    
C186  C194  S    
C136  C137  A    
H20   N28   S    
C56   H75   S    
C155  C181  S    
H69   N52   S    
C105  C130  A    
C3    N48   S    
C184  O47   A    
O51   Zn9   S    
C172  N39   S    
C124  C134  A    
C170  C179  S    
C14   C22   A    
H115  N45   S    
O16   Zn3   S    
H55   N46   S    
C42   C213  A    
C95   C126  S    
C10   C216  A    
C28   C37   A    
C24   C206  A    
O23   Zn12  S    
C178  N42   S    
H111  N23   S    
C30   C39   A    
H47   N41   S    
C91   C95   A    
H17   N27   S    
C7    N52   S    
C113  C121  S    
O40   Zn16  S    
C169  C173  S    
C51   C60   A    
C160  C187  S    
C144  C157  S    
H26   N31   S    
C25   C33   A    
C200  O35   A    
C3    C209  A    
H148  N13   S    
C153  C179  S    
H144  N10   S    
C154  C180  S    
C187  C196  S    
H109  N12   S    
C156  N30   S    
C82   C142  S    
C183  C192  S    
O8    Zn4   S    
C176  C185  S    
C73   C141  A    
H107  N1    S    
C116  C122  A    
C107  N16   S    
C127  C135  A    
H38   N37   S    
H151  N14   S    
C85   H81   S    
H123  N56   S    
C22   H117  S    
H64   N50   S    
C125  C133  A    
C47   N34   S    
C31   C40   A    
O21   Zn8   S    
C103  C111  A    
C82   O19   A    
H120  N54   S    
C31   H46   S    
H43   N40   S    
C2    C79   A    
H135  N6    S    
H140  N8    S    
C41   C212  A    
C91   H87   S    
O38   Zn14  S    
C159  C174  S    
C15   C64   S    
C73   N4    S    
C83   H79   S    
C70   C139  A    
C149  C171  S    
O46   Zn6   S    
O23   Zn7   S    
H10   N24   S    
H6    N21   S    
C155  N29   S    
C107  C130  A    
C105  C115  A    
C150  H103  S    
O34   Zn8   S    
C106  C131  A    
C5    C211  A    
O50   Zn1   S    
C49   C61   A    
C146  C182  S    
C52   H70   S    
O28   Zn15  S    
C51   C63   A    
C133  Cl10  S    
C53   H71   S    
C173  O2    A    
H160  N19   S    
H49   N42   S    
H152  N15   S    
C109  H88   S    
C148  C185  S    
C39   C210  A    
C106  C116  A    
C197  O5    A    
C149  C154  S    
O42   Zn3   S    
C156  C177  S    
C68   C101  A    
H114  N45   S    
C10   C19   A    
C80   O15   A    
C207  C215  A    
C166  C184  S    
C175  N41   S    
O27   Zn14  S    
C204  O13   A    
C116  H93   S    
H52   N44   S    
C5    C14   A    
H29   N32   S    
O11   Zn7   S    
C178  C187  S    
C7    C16   A    
O24   Zn11  S    
O9    Zn5   S    
H154  N16   S    
C102  C110  A    
C182  C191  S    
C112  O41   A    
C98   O29   A    
O43   Zn4   S    
C96   O22   A    
H116  N53   S    
C109  C119  A    
C207  Cl2   S    
C99   C130  S    
C72   N3    S    
C108  N17   S    
H122  N55   S    
C115  H92   S    
C20   H95   S    
C17   H1    S    
C27   C36   A    
C21   C30   A    
C36   C203  S    
H22   N29   S    
C23   C32   A    
C99   O30   A    
O1    Zn10  S    
C145  C158  S    
H44   N40   S    
C5    N50   S    
C165  C191  T    
C166  C192  T    
O41   Zn2   S    
O30   Zn13  S    
H121  N55   S    
C18   H73   S    
O23   Zn5   S    
H5    N20   S    
C24   N21   S    
C157  C183  S    
C1    O45   A    
C107  C117  A    
C114  C120  A    
H41   N39   S    
H66   N51   S    
C135  C138  A    
C140  O42   A    
C8    C66   S    
C50   C64   A    
H56   N47   S    
C102  C129  A    
H16   N26   S    
C100  N9    S    
C46   N24   S    
C9    C18   A    
H27   N31   S    
C198  O6    A    
H50   N43   S    
H143  N10   S    
H105  N1    S    
C83   C92   A    
C153  C176  S    
H159  N18   S    
C154  C175  S    
C17   C26   A    
C60   C69   A    
H136  N7    S    
C138  Cl15  S    
H153  N15   S    
C118  C122  A    
C27   H2    S    
C6    C212  A    
C200  O8    A    
C56   C65   A    
O1    Zn16  S    
C4    C210  A    
C29   H24   S    
C2    C13   A    
C203  O11   A    
C117  C121  A    
C6    C15   A    
H63   N50   S    
C201  O9    A    
C58   C66   A    
C132  C133  A    
C197  O31   A    
C38   C201  S    
C148  C170  S    
C145  C176  S    
C184  O3    A    
C202  O10   A    
H110  N23   S    
H32   N35   S    
C118  H96   S    
C15   C23   A    
C74   C142  A    
C208  C216  A    
C210  Cl5   S    
C168  C194  T    
C33   H68   S    
H124  N56   S    
O5    Zn16  S    
C47   C67   A    
H132  N5    S    
C26   C34   A    
C86   H82   S    
C169  C196  T    
C20   C29   A    
O1    Zn3   S    
C78   O16   A    
H112  N34   S    
C135  Cl12  S    
C103  N11   S    
C195  O4    A    
C108  C118  A    
C57   N25   S    
C99   O28   A    
C163  C189  T    
C54   H72   S    
C150  C187  S    
C97   O26   A    
C146  C159  S    
C140  C161  S    
C14   C61   S    
C12   C21   A    
C152  H104  S    
C49   C58   A    
H137  N7    S    
C146  C177  S    
C36   C207  A    
H138  N8    S    
C199  O7    A    
C70   C83   A    
H129  N3    S    
C53   C62   A    
C195  O48   A    
H21   N29   S    
C45   N23   S    
H11   N24   S    
C32   C41   A    
C55   C64   A    
C157  N31   S    
C158  N32   S    
H58   N47   S    
H146  N11   S    
C103  C128  A    
O17   Zn4   S    
C7    C213  A    
C153  N27   S    
C104  C114  A    
C154  N28   S    
C45   C54   A    
C151  C163  S    
H31   N33   S    
C46   C57   A    
C88   H85   S    
C74   C87   A    
C171  C180  S    
C144  H97   S    
C84   H80   S    
C47   C55   A    
C71   C84   A    
H40   N38   S    
C38   C209  A    
O34   Zn6   S    
C126  C138  A    
H39   N38   S    
C209  Cl4   S    
H142  N9    S    
H3    N19   S    
C18   C27   A    
C185  C193  S    
C41   C198  S    
C177  N43   S    
C97   O24   A    
O34   Zn15  S    
C58   H76   S    
C90   C119  S    
C110  H89   S    
C152  C174  S    
O13   Zn8   S    
C132  Cl9   S    
C32   H57   S    
H48   N42   S    
O12   Zn9   S    
C147  C178  S    
H158  N18   S    
H25   N30   S    
C208  Cl3   S    
C144  C175  S    
H45   N41   S    
C28   H13   S    
O19   Zn6   S    
C145  H98   S    
C55   H74   S    
C73   C86   A    
O29   Zn12  S    
H33   N35   S    
C104  N13   S    
C75   C88   A    
C81   C143  S    
O1    Zn1   S    
C160  C172  S    
C205  Cl16  S    
H133  N5    S    
C127  C137  A    
O12   Zn2   S    
C124  C125  A    
C212  Cl7   S    
C76   C142  A    
