data_mof_unit_13952.cif
_audit_creation_date              2012-12-11T15:41:27-0500
_audit_creation_method            fapswitch 2.2
_symmetry_space_group_name_H-M    P1
_symmetry_Int_Tables_number       1
_space_group_crystal_system       triclinic
_cell_length_a                    19.092488
_cell_length_b                    11.024331
_cell_length_c                    18.824976
_cell_angle_alpha                 89.923005
_cell_angle_beta                  90.265057
_cell_angle_gamma                 89.74472
_cell_volume                      3962.23143887

loop_
_atom_site_label
_atom_site_type_symbol
_atom_type_description
_atom_site_fract_x
_atom_site_fract_y
_atom_site_fract_z
_atom_type_partial_charge
C1    C     C_R   0.724806 0.962083 0.855901 0.568114
C2    C     C_R   0.307524 0.455906 0.038304 0.008639
C3    C     C_R   0.761214 0.859194 0.354738 0.547917
C4    C     C_2   0.499163 0.165316 0.922318 -0.128426
C5    C     C_2   0.503881 0.168223 0.079402 -0.120941
C6    C     C_2   0.999163 0.665316 0.922318 -0.128426
C7    C     C_2   0.003881 0.668223 0.079402 -0.120941
C8    C     C_2   0.505047 0.063746 0.041511 -0.071760
C9    C     C_2   0.505316 0.062472 0.961876 -0.065746
C10   C     C_2   0.005047 0.563746 0.041511 -0.071760
C11   C     C_2   0.005316 0.562472 0.961876 -0.065746
C12   C     C_R   0.775427 0.472275 0.064790 0.032711
C13   C     C_R   0.194131 0.940978 0.966819 0.000208
C14   C     C_R   0.239393 0.432812 0.929759 0.025392
C15   C     C_R   0.275427 0.972275 0.064790 0.032711
C16   C     C_R   0.739393 0.932812 0.929759 0.025392
C17   C     C_1   0.508213 0.947788 0.078487 0.210481
C18   C     C_1   0.505707 0.944771 0.927068 0.213421
C19   C     C_1   0.008213 0.447788 0.078487 0.210481
C20   C     C_1   0.005707 0.444771 0.927068 0.213421
C21   C     C_1   0.569533 0.500463 0.947725 0.243456
C22   C     C_1   0.411300 0.574310 0.072921 0.251235
C23   C     C_1   0.069533 0.000463 0.947725 0.243456
C24   C     C_R   0.807524 0.955906 0.038304 0.008639
C25   C     C_1   0.911300 0.074310 0.072920 0.251235
C26   C     C_1   0.662574 0.624284 0.899762 0.203610
C27   C     C_1   0.293710 0.660370 0.087705 0.206019
C28   C     C_1   0.162574 0.124284 0.899762 0.203610
C29   C     C_1   0.793710 0.160370 0.087705 0.206019
C30   C     C_R   0.818690 0.409581 0.950457 -0.164661
C31   C     C_R   0.187167 0.390708 0.043717 -0.172568
C32   C     C_R   0.318690 0.909581 0.950457 -0.164661
C33   C     C_R   0.687167 0.890708 0.043717 -0.172568
C34   C     C_R   0.830448 0.436036 0.021229 -0.156187
C35   C     C_R   0.182865 0.393681 0.970860 -0.154680
C36   C     C_R   0.330448 0.936036 0.021229 -0.156187
C37   C     C_R   0.290127 0.999876 0.138776 0.563404
C38   C     C_R   0.682865 0.893681 0.970860 -0.154680
C39   C     C_3   0.658751 0.580355 0.032505 -0.259135
C40   C     C_3   0.332428 0.592944 0.965904 -0.246846
C41   C     C_3   0.158751 0.080355 0.032505 -0.259135
C42   C     C_3   0.832428 0.092944 0.965904 -0.246846
C43   C     C_3   0.641991 0.541426 0.956979 -0.036182
C44   C     C_3   0.339031 0.579191 0.045850 -0.043345
C45   C     C_3   0.141991 0.041426 0.956979 -0.036182
C46   C     C_3   0.839031 0.079190 0.045850 -0.043345
C47   C     C_R   0.750574 0.413444 0.922274 0.004718
C48   C     C_R   0.224806 0.462083 0.855901 0.568114
C49   C     C_R   0.250602 0.413973 0.077787 0.011767
C50   C     C_R   0.250574 0.913444 0.922274 0.004719
C51   C     C_R   0.750602 0.913973 0.077787 0.011767
C52   C     C_R   0.508533 0.170285 0.420862 0.022435
C53   C     C_R   0.516621 0.170773 0.568488 0.022026
C54   C     C_R   0.008534 0.670283 0.420861 0.022434
C55   C     C_R   0.016618 0.670773 0.568489 0.022027
C56   C     C_R   0.522133 0.278209 0.457671 0.030377
C57   C     C_R   0.525443 0.277360 0.530006 0.042289
C58   C     C_R   0.022140 0.778205 0.457670 0.030384
C59   C     C_R   0.790127 0.499876 0.138776 0.563404
C60   C     C_R   0.025445 0.777358 0.530004 0.042297
C61   C     C_R   0.515597 0.060047 0.531739 -0.167842
C62   C     C_R   0.513693 0.059738 0.457548 -0.171637
C63   C     C_R   0.015588 0.560047 0.531741 -0.167848
C64   C     C_R   0.013687 0.559736 0.457549 -0.171640
C65   C     C_R   0.529672 0.176963 0.850759 0.553572
C66   C     C_R   0.471124 0.177292 0.149882 0.545991
C67   C     C_R   0.029672 0.676963 0.850759 0.553571
C68   C     C_R   0.971124 0.677292 0.149882 0.545990
C69   C     C_3   0.485229 0.399379 0.458192 -0.266723
C70   C     C_R   0.707253 0.474290 0.036980 0.015987
C71   C     C_3   0.488779 0.396055 0.538170 -0.277745
C72   C     C_3   0.985255 0.899393 0.458187 -0.266723
C73   C     C_3   0.988795 0.896065 0.538166 -0.277744
C74   C     C_R   0.750806 0.401624 0.419659 0.018154
C75   C     C_R   0.250272 0.412553 0.578221 0.015266
C76   C     C_R   0.250807 0.901629 0.419661 0.018154
C77   C     C_R   0.750274 0.912550 0.578222 0.015270
C78   C     C_R   0.798658 0.329600 0.457770 0.023583
C79   C     C_R   0.214532 0.318478 0.544312 0.021246
C80   C     C_R   0.298657 0.829601 0.457770 0.023582
C81   C     C_R   0.301157 0.468598 0.964537 -0.013935
C82   C     C_R   0.714538 0.818470 0.544314 0.021246
C83   C     C_R   0.794211 0.319549 0.530260 0.030776
C84   C     C_R   0.216138 0.308525 0.471562 0.041116
C85   C     C_R   0.294212 0.819553 0.530261 0.030780
C86   C     C_R   0.716143 0.808517 0.471564 0.041113
C87   C     C_R   0.686689 0.433099 0.529329 -0.151952
C88   C     C_R   0.298526 0.471972 0.463477 -0.171525
C89   C     C_R   0.186695 0.933119 0.529333 -0.151948
C90   C     C_R   0.798529 0.971967 0.463479 -0.171516
C91   C     C_R   0.690583 0.442454 0.454999 -0.154137
C92   C     C_R   0.207253 0.974290 0.036980 0.015987
C93   C     C_R   0.296843 0.483316 0.537592 -0.165852
C94   C     C_R   0.190587 0.942471 0.455002 -0.154132
C95   C     C_R   0.796846 0.983314 0.537593 -0.165851
C96   C     C_3   0.877037 0.333276 0.461285 -0.269284
C97   C     C_3   0.139332 0.280607 0.546875 -0.267662
C98   C     C_3   0.377037 0.833265 0.461284 -0.269282
C99   C     C_3   0.639340 0.780587 0.546879 -0.267666
C100  C     C_3   0.871526 0.321943 0.541012 -0.278182
C101  C     C_3   0.140811 0.274432 0.466692 -0.267242
C102  C     C_3   0.371528 0.821939 0.541010 -0.278181
C103  C     C_R   0.801157 0.968598 0.964537 -0.013935
C104  C     C_3   0.640818 0.774413 0.466695 -0.267244
C105  C     C_R   0.742215 0.379888 0.568061 0.018566
C106  C     C_R   0.254246 0.388822 0.429499 0.021219
C107  C     C_R   0.242219 0.879899 0.568063 0.018567
C108  C     C_R   0.754249 0.888816 0.429500 0.021223
C109  C     C_R   0.738167 0.362947 0.852643 0.550093
C110  C     C_R   0.261589 0.364244 0.147896 0.544779
C111  C     C_R   0.238168 0.862947 0.852643 0.550092
C112  C     C_R   0.761589 0.864244 0.147896 0.544780
C113  C     C_R   0.727893 0.955892 0.647491 0.553368
C114  C     C_R   0.694131 0.440978 0.966819 0.000208
C115  C     C_R   0.271940 0.953665 0.351855 0.558314
C116  C     C_R   0.227893 0.455892 0.647490 0.553368
C117  C     C_R   0.771940 0.453664 0.351855 0.558313
C118  C     C_R   0.532346 0.176657 0.643156 0.542434
C119  C     C_R   0.471432 0.176563 0.354145 0.548030
C120  C     C_R   0.032345 0.676657 0.643156 0.542435
C121  C     C_R   0.971433 0.676563 0.354145 0.548032
C122  C     C_R   0.737448 0.355539 0.643810 0.549579
C123  C     C_R   0.261213 0.359196 0.354737 0.547914
C124  C     C_R   0.237449 0.855544 0.643812 0.549577
Cr1   Cr    Cr6+3 0.769260 0.163750 0.750730 1.025608
Cr2   Cr    Cr6+3 0.385810 0.322400 0.252290 1.037600
Cr3   Cr    Cr6+3 0.114190 0.822400 0.747710 1.045648
Cr4   Cr    Cr6+3 0.885810 0.822400 0.252290 1.037601
Cr5   Cr    Cr6+3 0.230740 0.163750 0.249270 1.032345
Cr6   Cr    Cr6+3 0.269260 0.663750 0.750730 1.025608
Cr7   Cr    Cr6+3 0.730740 0.663750 0.249270 1.032346
Cr8   Cr    Cr6+3 0.612640 0.009910 0.748780 1.052465
Cr9   Cr    Cr6+3 0.387360 0.009910 0.251220 1.044516
Cr10  Cr    Cr6+3 0.112640 0.509910 0.748780 1.052466
Cr11  Cr    Cr6+3 0.887360 0.509910 0.251220 1.044516
Cr12  Cr    Cr6+3 0.614190 0.322400 0.747710 1.045648
H1    H     H_    0.517504 0.472646 0.434596 0.125731
H2    H     H_    0.103622 0.351834 0.566530 0.162290
H3    H     H_    0.397346 0.922618 0.444704 0.166944
H4    H     H_    0.603626 0.851807 0.566535 0.162284
H5    H     H_    0.892783 0.234882 0.561767 0.135019
H6    H     H_    0.132730 0.182209 0.445629 0.137584
H7    H     H_    0.392781 0.734876 0.561768 0.135019
H8    H     H_    0.632742 0.682189 0.445632 0.137592
H9    H     H_    0.889117 0.404207 0.570035 0.141041
H10   H     H_    0.108624 0.345755 0.440433 0.138588
H11   H     H_    0.389123 0.904203 0.570032 0.141039
H12   H     H_    0.436716 0.386615 0.563757 0.143552
H13   H     H_    0.608627 0.845732 0.440437 0.138586
H14   H     H_    0.930542 0.895750 0.438678 0.173968
H15   H     H_    0.022523 0.967852 0.561092 0.134682
H16   H     H_    0.430515 0.395704 0.438689 0.173973
H17   H     H_    0.522502 0.467854 0.561092 0.134679
H18   H     H_    0.649455 0.488431 0.425957 0.118963
H19   H     H_    0.327312 0.554369 0.562091 0.138433
H20   H     H_    0.149461 0.988453 0.425962 0.118959
H21   H     H_    0.827313 0.054369 0.562092 0.138431
H22   H     H_    0.901831 0.253148 0.435687 0.132650
H23   H     H_    0.017546 0.972643 0.434595 0.125722
H24   H     H_    0.132809 0.190628 0.572555 0.131284
H25   H     H_    0.401825 0.753130 0.435686 0.132646
H26   H     H_    0.632824 0.690607 0.572559 0.131290
H27   H     H_    0.514697 0.254426 0.054218 0.120815
H28   H     H_    0.483408 0.249305 0.946780 0.130091
H29   H     H_    0.014697 0.754426 0.054218 0.120815
H30   H     H_    0.983408 0.749305 0.946780 0.130091
H31   H     H_    0.862713 0.382246 0.918202 0.166243
H32   H     H_    0.142430 0.358429 0.072888 0.171144
H33   H     H_    0.362713 0.882246 0.918202 0.166243
H34   H     H_    0.936729 0.886643 0.563746 0.143549
H35   H     H_    0.642430 0.858429 0.072888 0.171144
H36   H     H_    0.882490 0.427833 0.042053 0.152514
H37   H     H_    0.133855 0.367951 0.947100 0.179982
H38   H     H_    0.382491 0.927833 0.042053 0.152514
H39   H     H_    0.633855 0.867951 0.947100 0.179982
H40   H     H_    0.189001 0.164757 0.036450 0.138286
H41   H     H_    0.793923 0.163010 0.949004 0.154627
H42   H     H_    0.689001 0.664757 0.036450 0.138286
H43   H     H_    0.293923 0.663010 0.949004 0.154627
H44   H     H_    0.614778 0.572585 0.070739 0.175977
H45   H     H_    0.641891 0.470480 0.556453 0.125297
H46   H     H_    0.383105 0.596398 0.937139 0.170726
H47   H     H_    0.114778 0.072585 0.070739 0.175977
H48   H     H_    0.883105 0.096398 0.937139 0.170726
H49   H     H_    0.513204 0.975160 0.560205 0.119349
H50   H     H_    0.508769 0.974517 0.429700 0.118642
H51   H     H_    0.013188 0.475161 0.560207 0.119345
H52   H     H_    0.008760 0.474515 0.429703 0.118644
H53   H     H_    0.332371 0.530547 0.432861 0.124402
H54   H     H_    0.141900 0.970507 0.556458 0.125289
H55   H     H_    0.832373 0.030543 0.432862 0.124398
H56   H     H_    0.897340 0.422634 0.444708 0.166944
N1    N     N_1   0.510175 0.855575 0.107938 -0.285201
N2    N     N_1   0.256459 0.719755 0.121345 -0.264253
N3    N     N_1   0.179476 0.184763 0.852796 -0.271303
N4    N     N_1   0.756459 0.219755 0.121345 -0.264253
N5    N     N_1   0.505392 0.850986 0.899442 -0.301154
N6    N     N_1   0.010175 0.355575 0.107938 -0.285201
N7    N     N_1   0.005392 0.350986 0.899442 -0.301154
N8    N     N_1   0.511969 0.470897 0.940199 -0.312884
N9    N     N_1   0.468070 0.570299 0.094602 -0.273993
N10   N     N_1   0.011969 0.970897 0.940199 -0.312884
N11   N     N_1   0.968070 0.070299 0.094602 -0.273993
N12   N     N_1   0.679476 0.684763 0.852796 -0.271303
O1    O     O_R   0.784290 0.290360 0.830540 -0.530450
O2    O     O_R   0.456020 0.282110 0.333230 -0.523087
O3    O     O_R   0.043980 0.782110 0.666770 -0.519785
O4    O     O_R   0.956020 0.782110 0.333230 -0.523086
O5    O     O_R   0.679070 0.374030 0.674430 -0.505244
O6    O     O_R   0.320930 0.374030 0.325570 -0.507744
O7    O     O_R   0.179070 0.874030 0.674430 -0.505242
O8    O     O_R   0.820930 0.874030 0.325570 -0.507741
O9    O     O_3   0.665360 0.165350 0.749070 -0.268754
O10   O     O_3   0.334640 0.165350 0.250930 -0.283414
O11   O     O_3   0.165360 0.665350 0.749070 -0.268753
O12   O     O_R   0.215710 0.290360 0.169460 -0.528957
O13   O     O_3   0.834640 0.665350 0.250930 -0.283414
O14   O     O_R   0.762610 0.041070 0.825230 -0.506851
O15   O     O_R   0.237390 0.041070 0.174770 -0.491787
O16   O     O_R   0.262610 0.541070 0.825230 -0.506852
O17   O     O_R   0.737390 0.541070 0.174770 -0.491787
O18   O     O_R   0.667390 0.924160 0.829970 -0.483667
O19   O     O_R   0.332610 0.924160 0.170030 -0.479124
O20   O     O_R   0.167390 0.424160 0.829970 -0.483667
O21   O     O_R   0.832610 0.424160 0.170030 -0.479124
O22   O     O_R   0.553980 0.081420 0.821780 -0.485346
O23   O     O_R   0.284290 0.790360 0.830540 -0.530451
O24   O     O_R   0.446020 0.081420 0.178220 -0.500534
O25   O     O_R   0.053980 0.581420 0.821780 -0.485346
O26   O     O_R   0.946020 0.581420 0.178220 -0.500534
O27   O     O_R   0.543210 0.283170 0.826740 -0.492290
O28   O     O_R   0.456790 0.283170 0.173260 -0.494183
O29   O     O_R   0.043210 0.783170 0.826740 -0.492290
O30   O     O_R   0.956790 0.783170 0.173260 -0.494183
O31   O     O_R   0.678350 0.375000 0.822720 -0.487805
O32   O     O_R   0.321650 0.375000 0.177280 -0.492778
O33   O     O_R   0.178350 0.875000 0.822720 -0.487806
O34   O     O_R   0.715710 0.790360 0.169460 -0.528956
O35   O     O_R   0.821650 0.875000 0.177280 -0.492778
O36   O     O_R   0.785060 0.289300 0.670580 -0.516504
O37   O     O_R   0.214940 0.289300 0.329420 -0.513729
O38   O     O_R   0.285060 0.789300 0.670580 -0.516504
O39   O     O_R   0.714940 0.789300 0.329420 -0.513730
O40   O     O_R   0.763330 0.040090 0.676940 -0.509011
O41   O     O_R   0.236670 0.040090 0.323060 -0.499949
O42   O     O_R   0.263330 0.540090 0.676940 -0.509010
O43   O     O_R   0.736670 0.540090 0.323060 -0.499949
O44   O     O_R   0.668160 0.923110 0.670000 -0.515270
O45   O     O_R   0.554690 0.080440 0.673480 -0.510832
O46   O     O_R   0.331840 0.923110 0.330000 -0.515779
O47   O     O_R   0.168160 0.423110 0.670000 -0.515269
O48   O     O_R   0.831840 0.423110 0.330000 -0.515779
O49   O     O_R   0.445310 0.080440 0.326520 -0.511440
O50   O     O_R   0.054690 0.580440 0.673480 -0.510832
O51   O     O_R   0.945310 0.580440 0.326520 -0.511440
O52   O     O_R   0.543980 0.282110 0.666770 -0.519786

loop_
_geom_bond_atom_site_label_1
_geom_bond_atom_site_label_2
_ccdc_geom_bond_type
C74   C91   A    
C7    C10   D    
C96   H22   S    
C32   H33   S    
C123  O6    A    
C36   H38   S    
C51   C112  S    
C23   C45   S    
C87   C91   A    
C47   C114  A    
C82   C99   S    
C97   H2    S    
C17   N1    T    
Cr9   O24   S    
Cr11  O48   S    
C86   C104  S    
C42   C103  S    
C76   C115  S    
C6    H30   S    
C39   H44   S    
Cr6   O42   S    
C90   C95   A    
C115  O46   A    
Cr5   O41   S    
C70   C114  A    
Cr4   O35   S    
C111  O33   A    
C72   H23   S    
C54   C64   A    
Cr8   O18   S    
Cr9   O10   S    
C5    H27   S    
C63   H51   S    
C30   H31   S    
Cr6   O16   S    
C41   H47   S    
C100  H5    S    
C43   C114  S    
C48   O16   A    
C79   C84   A    
C25   C46   S    
C65   O27   A    
C42   H41   S    
C58   C60   A    
C71   H17   S    
Cr12  O31   S    
C66   O28   A    
C60   C73   S    
C89   C94   A    
C28   N3    T    
C56   C57   A    
Cr1   O40   S    
C55   C120  S    
C42   C46   S    
Cr10  O25   S    
Cr5   O10   S    
C69   C71   S    
Cr3   O3    S    
C15   C37   S    
C59   O17   A    
C76   C94   A    
C15   C92   A    
C21   C43   S    
C12   C59   S    
C53   C61   A    
C78   C83   A    
C22   C44   S    
C78   C96   S    
C8    C9    S    
Cr11  O26   S    
C55   C63   A    
C106  C123  S    
Cr8   O45   S    
C84   C106  A    
C89   H54   S    
C4    H28   S    
C1    O14   A    
Cr2   O32   S    
C100  H9    S    
C40   H46   S    
C94   H20   S    
C62   H50   S    
Cr1   O14   S    
C113  O40   A    
C24   C51   A    
C99   C104  S    
C7    C68   S    
C1    C16   S    
C55   C60   A    
C73   H15   S    
C69   H1    S    
C84   C101  S    
C69   H16   S    
Cr2   O10   S    
Cr1   O9    S    
C107  C124  S    
C31   C49   A    
C77   C113  S    
C119  O49   A    
C117  O48   A    
C110  O32   A    
C26   C43   S    
C121  O51   A    
Cr10  O47   S    
C90   H55   S    
C117  O43   A    
Cr4   O30   S    
C88   H53   S    
C11   C20   S    
Cr12  O27   S    
C122  O36   A    
C101  H10   S    
Cr3   O29   S    
C30   C34   A    
C23   N10   T    
C35   H37   S    
C97   H24   S    
C30   C47   A    
C93   H19   S    
Cr10  O50   S    
C91   H18   S    
Cr2   O6    S    
Cr9   O49   S    
C14   C35   A    
C119  O2    A    
C28   C45   S    
C53   C57   A    
C53   C118  S    
Cr8   O44   S    
C14   C48   S    
C48   O20   A    
Cr9   O46   S    
C42   H48   S    
C82   C86   A    
C68   O26   A    
C65   O22   A    
C77   C95   A    
Cr10  O11   S    
C63   C64   A    
C1    O18   A    
C104  H13   S    
C26   N12   T    
Cr2   O28   S    
C13   C50   A    
C20   N7    T    
C80   C85   A    
C2    C49   A    
Cr8   O22   S    
C102  H11   S    
C99   H26   S    
C88   C106  A    
C101  H6    S    
C16   C103  A    
C87   C105  A    
C10   C19   S    
C112  O35   A    
C97   C101  S    
C89   C107  A    
C18   N5    T    
C61   H49   S    
C122  O5    A    
Cr6   O11   S    
Cr7   O17   S    
C27   N2    T    
C3    O39   A    
C57   C71   S    
C109  O1    A    
C32   C50   A    
C64   H52   S    
Cr1   O36   S    
C68   O30   A    
C109  O31   A    
Cr3   O7    S    
C6    C67   S    
C116  O47   A    
C54   C121  S    
C116  O42   A    
Cr6   O23   S    
Cr3   O33   S    
C37   O19   A    
Cr10  O20   S    
C83   C100  S    
C6    C11   D    
C47   C109  S    
C41   H40   S    
C31   C35   A    
C99   H4    S    
C75   C79   A    
C102  H7    S    
C37   O15   A    
C40   H43   S    
C12   C34   A    
C33   H35   S    
C32   C36   A    
C15   C36   A    
C123  O37   A    
C98   H25   S    
C34   H36   S    
C2    C44   S    
C75   C93   A    
C85   C107  A    
Cr12  O9    S    
C54   C58   A    
C3    O8    A    
C74   C117  S    
C12   C70   A    
C88   C93   A    
C67   O29   A    
C19   N6    T    
Cr7   O39   S    
Cr11  O21   S    
C22   N9    T    
C80   C98   S    
C95   H21   S    
C120  O3    A    
C40   C81   S    
Cr12  O52   S    
C86   C108  A    
C76   C80   A    
C21   N8    T    
C5    C66   S    
C25   N11   T    
C118  O45   A    
C87   H45   S    
C5    C8    D    
C39   C43   S    
C79   C97   S    
C110  O12   A    
C75   C116  S    
C124  O7    A    
C3    C108  S    
C33   C51   A    
C29   N4    T    
Cr4   O4    S    
C98   H3    S    
C112  O34   A    
C33   C38   A    
C14   C81   A    
C29   C46   S    
Cr7   O13   S    
C24   C103  A    
C24   C46   S    
C96   H56   S    
Cr5   O12   S    
C73   H34   S    
C111  O23   A    
C13   C92   A    
C98   C102  S    
Cr7   O43   S    
C8    C17   S    
C13   C45   S    
Cr6   O38   S    
C58   C72   S    
C38   H39   S    
C4    C65   S    
Cr5   O37   S    
C77   C82   A    
Cr2   O2    S    
C72   C73   S    
C96   C100  S    
C72   H14   S    
Cr1   O1    S    
C50   C111  S    
Cr9   O19   S    
C39   C70   S    
C105  C122  S    
C71   H12   S    
C113  O44   A    
C7    H29   S    
C61   C62   A    
C59   O21   A    
C120  O50   A    
C39   H42   S    
C10   C11   S    
C90   C108  A    
Cr12  O5    S    
Cr3   O11   S    
C52   C119  S    
C83   C105  A    
C9    C18   S    
C40   C44   S    
C41   C92   S    
C31   H32   S    
C67   O25   A    
Cr5   O15   S    
C56   C69   S    
C74   C78   A    
C66   O24   A    
C41   C45   S    
C118  O52   A    
C2    C81   A    
C52   C62   A    
Cr8   O9    S    
Cr7   O34   S    
C121  O4    A    
Cr11  O51   S    
C4    C9    D    
C27   C44   S    
C104  H8    S    
C124  O38   A    
Cr4   O13   S    
Cr4   O8    S    
C85   C102  S    
C52   C56   A    
C16   C38   A    
C49   C110  S    
C115  O41   A    
Cr11  O13   S    
