data_mof_unit_48194.cif
_audit_creation_date              2012-12-11T15:15:44-0500
_audit_creation_method            fapswitch 2.2
_symmetry_space_group_name_H-M    P1
_symmetry_Int_Tables_number       1
_space_group_crystal_system       triclinic
_cell_length_a                    20.619273
_cell_length_b                    22.750809
_cell_length_c                    6.937153
_cell_angle_alpha                 89.99991
_cell_angle_beta                  86.606141
_cell_angle_gamma                 90.000013
_cell_volume                      3248.54676107

loop_
_atom_site_label
_atom_site_type_symbol
_atom_type_description
_atom_site_fract_x
_atom_site_fract_y
_atom_site_fract_z
_atom_type_partial_charge
O1    O     O_R   0.387100 0.552640 0.378490 -0.537523
O2    O     O_R   0.612900 0.052640 0.621510 -0.537523
O3    O     O_R   0.249610 0.559600 0.072250 -0.544242
O4    O     O_R   0.750390 0.059600 0.927750 -0.544240
O5    O     O_R   0.249120 0.447360 0.902040 -0.535160
O6    O     O_R   0.750880 0.947360 0.097960 -0.535157
C1    C     C_R   0.227031 0.573444 0.244896 0.689027
C2    C     C_R   0.772969 0.073444 0.755104 0.689036
O7    O     O_R   0.386610 0.559560 0.048860 -0.537285
O8    O     O_R   0.613390 0.059560 0.951140 -0.537286
O9    O     O_R   0.387100 0.447320 0.878470 -0.538572
O10   O     O_R   0.612900 0.947320 0.121530 -0.538572
C3    C     C_R   0.407857 0.574835 0.213853 0.688158
C4    C     C_R   0.592143 0.074835 0.786146 0.688159
O11   O     O_R   0.249120 0.552680 0.402050 -0.545402
O12   O     O_R   0.750880 0.052680 0.597950 -0.545398
O13   O     O_3   0.318110 0.463180 0.223790 -0.362870
O14   O     O_3   0.681890 0.963180 0.776210 -0.362877
V1    V     V_3+5 0.318110 0.506830 0.948930 1.438166
V2    V     V_3+5 0.681890 0.006830 0.051070 1.438166
O15   O     O_R   0.386610 0.440400 0.548840 -0.537349
O16   O     O_R   0.613390 0.940400 0.451160 -0.537350
C5    C     C_R   0.407877 0.425133 0.713890 0.709575
C6    C     C_R   0.592123 0.925133 0.286110 0.709576
O17   O     O_R   0.249610 0.440440 0.572240 -0.536210
O18   O     O_R   0.750390 0.940440 0.427760 -0.536215
C7    C     C_R   0.227855 0.425606 0.745010 0.690304
C8    C     C_R   0.772145 0.925606 0.254990 0.690318
V3    V     V_3+5 0.318110 0.493170 0.448930 1.447537
V4    V     V_3+5 0.681890 0.993170 0.551070 1.447526
O19   O     O_3   0.318110 0.536820 0.723940 -0.372409
O20   O     O_3   0.681890 0.036820 0.276060 -0.372407
C9    C     C_R   0.173147 0.383273 0.762104 -0.152726
C10   C     C_R   0.826854 0.883272 0.237897 -0.152746
C11   C     C_R   0.132413 0.378424 0.607036 -0.177120
C12   C     C_R   0.867569 0.878403 0.393004 -0.177126
C13   C     C_R   0.077688 0.342456 0.620472 -0.105806
C14   C     C_R   0.922294 0.842435 0.379577 -0.105800
C15   C     C_R   0.062064 0.310775 0.789910 0.020468
C16   C     C_R   0.937937 0.810775 0.210108 0.020491
C17   C     C_R   0.101622 0.315698 0.946197 -0.109773
C18   C     C_R   0.898398 0.815717 0.053784 -0.109786
C19   C     C_R   0.158204 0.349769 0.932304 0.327257
C20   C     C_R   0.841814 0.849787 0.067666 0.327250
C21   C     C_R   0.918850 0.164221 0.874456 -0.065155
C22   C     C_R   0.081158 0.664228 0.125518 -0.065139
C23   C     C_R   0.865429 0.126614 0.894265 -0.174328
C24   C     C_R   0.134582 0.626625 0.105713 -0.174324
C25   C     C_R   0.843733 0.143221 0.559039 -0.167544
C26   C     C_R   0.156248 0.643203 0.440978 -0.167525
C27   C     C_R   0.896683 0.181445 0.540092 -0.156049
C28   C     C_R   0.103294 0.681423 0.459924 -0.156050
C29   C     C_R   0.934740 0.192259 0.697420 0.101718
C30   C     C_R   0.065251 0.692249 0.302574 0.101745
C31   C     C_2   0.004147 0.272553 0.806912 0.544171
C32   C     C_2   0.995856 0.772555 0.193117 0.544176
C33   C     C_2   0.992576 0.231322 0.672943 0.173777
C34   C     C_2   0.007410 0.731305 0.327041 0.173764
C35   C     C_R   0.827610 0.115380 0.736359 -0.047524
C36   C     C_R   0.172387 0.615378 0.263640 -0.047532
H1    H     H_    0.142049 0.403487 0.475673 0.168741
H2    H     H_    0.857920 0.903451 0.524394 0.168811
H3    H     H_    0.854722 0.105262 0.032056 0.121521
H4    H     H_    0.145301 0.605286 0.967907 0.121513
H5    H     H_    0.815408 0.135548 0.434854 0.129476
H6    H     H_    0.184562 0.635520 0.565180 0.129469
H7    H     H_    0.089992 0.290889 0.077147 0.171804
H8    H     H_    0.910043 0.790924 0.922811 0.171767
H9    H     H_    0.948489 0.170414 0.996602 0.142732
H10   H     H_    0.051530 0.670433 0.003353 0.142700
H11   H     H_    0.046808 0.340268 0.499658 0.164260
H12   H     H_    0.953159 0.840230 0.500424 0.164238
H13   H     H_    0.907949 0.202629 0.402283 0.152792
H14   H     H_    0.092014 0.702593 0.597748 0.152740
C37   C     C_R   0.577509 0.362869 0.663267 0.362315
C38   C     C_R   0.422491 0.862868 0.336749 0.362317
H15   H     H_    0.533971 0.447991 0.639988 0.131912
H16   H     H_    0.466030 0.947990 0.360029 0.131913
H17   H     H_    0.666870 0.274944 0.625219 0.143897
H18   H     H_    0.333131 0.774942 0.374805 0.143903
C39   C     C_R   0.461907 0.382219 0.711687 -0.117186
C40   C     C_R   0.538093 0.882219 0.288314 -0.117188
C41   C     C_R   0.475512 0.096395 0.840103 -0.157734
C42   C     C_R   0.524487 0.596396 0.159886 -0.157733
C43   C     C_R   0.422575 0.134275 0.855249 -0.107726
C44   C     C_R   0.577424 0.634276 0.144735 -0.107728
C45   C     C_R   0.430570 0.194350 0.822272 -0.155640
C46   C     C_R   0.569429 0.694351 0.177717 -0.155643
C47   C     C_R   0.492495 0.218530 0.771522 0.099568
C48   C     C_R   0.507505 0.718530 0.228476 0.099570
C49   C     C_R   0.546692 0.179010 0.753897 0.069845
C50   C     C_R   0.453308 0.679009 0.246106 0.069843
C51   C     C_R   0.502338 0.280494 0.739083 0.043051
C52   C     C_R   0.497662 0.780494 0.260919 0.043052
C53   C     C_R   0.566551 0.301612 0.692630 0.033147
C54   C     C_R   0.433449 0.801611 0.307381 0.033145
C55   C     C_R   0.618146 0.261204 0.670534 -0.182132
C56   C     C_R   0.381855 0.761203 0.329483 -0.182127
C57   C     C_R   0.608524 0.201450 0.701983 -0.187666
C58   C     C_R   0.391477 0.701449 0.298029 -0.187665
C59   C     C_R   0.450603 0.322262 0.749271 -0.220421
C60   C     C_R   0.549397 0.822262 0.250726 -0.220425
C61   C     C_R   0.525054 0.401688 0.667423 -0.161799
C62   C     C_R   0.474946 0.901688 0.332589 -0.161796
C63   C     C_R   0.537759 0.117686 0.789365 -0.092239
C64   C     C_R   0.462241 0.617686 0.210633 -0.092240
H19   H     H_    0.400813 0.309665 0.782013 0.105161
H20   H     H_    0.599187 0.809665 0.217975 0.105160
H21   H     H_    0.467912 0.050014 0.869103 0.117170
H22   H     H_    0.532087 0.550015 0.130882 0.117169
H23   H     H_    0.387199 0.220633 0.839163 0.113662
H24   H     H_    0.612800 0.720634 0.160822 0.113658
H25   H     H_    0.374715 0.116938 0.894685 0.134923
H26   H     H_    0.625284 0.616939 0.105293 0.134920
H27   H     H_    0.650338 0.172725 0.684163 0.110473
H28   H     H_    0.349662 0.672724 0.315853 0.110478
O21   O     O_3   0.638535 0.386811 0.628570 -0.636978
H29   H     H_    0.669174 0.365510 0.708015 0.291715
O22   O     O_3   0.361466 0.886810 0.371456 -0.636974
H30   H     H_    0.330826 0.865509 0.292015 0.291720
O23   O     O_3   0.035802 0.225169 0.513738 -0.657224
H31   H     H_    0.023497 0.189950 0.440179 0.298171
O24   O     O_3   0.964160 0.725124 0.486174 -0.657240
H32   H     H_    0.976467 0.689904 0.559728 0.298154
O25   O     O_3   0.197739 0.347892 0.085628 -0.640005
H33   H     H_    0.243403 0.351226 0.034138 0.288572
O26   O     O_3   0.802297 0.847928 0.914300 -0.640027
H34   H     H_    0.756628 0.851243 0.965758 0.288582
F1    F     F_    0.963145 0.279023 0.966710 -0.705240
F2    F     F_    0.036881 0.779050 0.033379 -0.705221

loop_
_geom_bond_atom_site_label_1
_geom_bond_atom_site_label_2
_ccdc_geom_bond_type
C38   C62   A    
C18   H8    S    
C20   O26   S    
C59   H19   S    
C48   C52   A    
O6    C8    A    
O13   V3    S    
C49   C63   A    
C37   O21   S    
O4    C2    A    
V1    O19   S    
C19   O25   S    
C25   C27   A    
C37   C53   A    
O24   H32   S    
C17   H7    S    
C13   H11   S    
C39   C59   A    
C7    C9    S    
O9    V1    S    
C34   O24   S    
C25   H5    S    
C11   C13   A    
C42   C44   A    
O3    C1    A    
C2    C35   S    
C57   H27   S    
C44   C46   A    
C24   H4    S    
C45   H23   S    
O12   V4    S    
O7    C3    A    
C6    C40   S    
C9    C11   A    
O5    C7    A    
C48   C50   A    
O7    V1    S    
C4    C63   S    
C15   C31   S    
O8    V2    S    
C16   C32   S    
C58   H28   S    
C42   C64   A    
C41   H21   S    
C24   C36   A    
O14   V4    S    
V4    O20   S    
C5    C39   S    
C10   C12   A    
C16   C18   A    
C8    C10   S    
C2    O12   A    
C37   C61   A    
C17   C19   A    
O10   V2    S    
C18   C20   A    
V2    O20   S    
C12   H2    S    
C55   C57   A    
C28   C30   A    
O11   V3    S    
C22   C24   A    
C21   C23   A    
O17   V3    S    
C14   H12   S    
C60   H20   S    
C38   O22   S    
C43   C45   A    
H16   C62   S    
C9    C19   A    
C10   C20   A    
C15   C17   A    
O8    C4    A    
C51   C59   A    
C29   C33   S    
C1    O11   A    
C31   F1    S    
C21   H9    S    
C42   H22   S    
C41   C63   A    
C23   H3    S    
C54   C56   A    
C27   C29   A    
O4    V2    S    
C52   C54   A    
C26   C28   A    
C22   C30   A    
O1    V3    S    
C40   C60   A    
C11   H1    S    
O3    V1    S    
C26   H6    S    
O23   H31   S    
C50   C64   A    
C41   C43   A    
C46   C48   A    
O18   V4    S    
C23   C35   A    
C56   C58   A    
C43   H25   S    
O15   C5    A    
O25   H33   S    
C30   C34   S    
O16   C6    A    
H15   C61   S    
C47   C49   A    
O26   H34   S    
C1    C36   S    
C50   C58   A    
C39   C61   A    
O16   V4    S    
H18   C56   S    
O18   C8    A    
H17   C55   S    
C27   H13   S    
C3    C64   S    
C33   O23   S    
O22   H30   S    
C53   C55   A    
O5    V1    S    
O17   C7    A    
O6    V2    S    
O10   C6    A    
C28   H14   S    
C25   C35   A    
C44   H26   S    
O2    V4    S    
C26   C36   A    
C31   C33   D    
V3    O19   S    
O21   H29   S    
C38   C54   A    
C12   C14   A    
C14   C16   A    
C51   C53   A    
O15   V3    S    
O9    C5    A    
O13   V1    S    
C32   C34   D    
O14   V2    S    
C47   C51   A    
O2    C4    A    
C22   H10   S    
C21   C29   A    
C46   H24   S    
O1    C3    A    
C52   C60   A    
C13   C15   A    
C45   C47   A    
C40   C62   A    
C49   C57   A    
C32   F2    S    
