data_mof_unit_31900.cif
_audit_creation_date              2012-12-10T16:32:41-0500
_audit_creation_method            fapswitch 2.2
_symmetry_space_group_name_H-M    P1
_symmetry_Int_Tables_number       1
_space_group_crystal_system       triclinic
_cell_length_a                    16.894847
_cell_length_b                    16.894886
_cell_length_c                    16.89489
_cell_angle_alpha                 65.840452
_cell_angle_beta                  65.840461
_cell_angle_gamma                 65.840577
_cell_volume                      3841.59219838

loop_
_atom_site_label
_atom_site_type_symbol
_atom_type_description
_atom_site_fract_x
_atom_site_fract_y
_atom_site_fract_z
_atom_type_partial_charge
C1    C     C_R   0.593999 0.007796 0.602507 -0.094774
C2    C     C_R   0.821597 0.563477 0.034521 0.951553
C3    C     C_R   0.435669 0.966945 0.178914 0.932987
C4    C     C_R   0.563477 0.034520 0.821597 0.951535
C5    C     C_R   0.565418 0.821785 0.029686 0.950909
C6    C     C_R   0.434682 0.178737 0.968981 0.935754
C7    C     C_R   0.029686 0.565418 0.821785 0.950903
C8    C     C_R   0.968980 0.434683 0.178737 0.935760
C9    C     C_R   0.821785 0.029686 0.565418 0.950903
C10   C     C_R   0.178737 0.968980 0.434683 0.935752
C11   C     C_R   0.555616 0.961057 0.571467 -0.233652
C12   C     C_R   0.420931 0.934237 0.421112 -0.072339
C13   C     C_R   0.476753 0.919972 0.480706 -0.215127
C14   C     C_R   0.961061 0.571465 0.555616 -0.233659
C15   C     C_R   0.919975 0.480704 0.476753 -0.215126
C16   C     C_R   0.571463 0.555613 0.961069 -0.233677
C17   C     C_R   0.480707 0.476751 0.919979 -0.215127
C18   C     C_R   0.611948 0.916700 0.503048 0.382665
C19   C     C_R   0.436638 0.912153 0.574371 0.393689
C20   C     C_R   0.916706 0.503045 0.611948 0.382657
C21   C     C_R   0.912156 0.574369 0.436639 0.393688
C22   C     C_R   0.503046 0.611946 0.916710 0.382678
C23   C     C_R   0.007801 0.602505 0.593998 -0.094777
C24   C     C_R   0.574372 0.436635 0.912164 0.393699
C25   C     C_R   0.572166 0.903355 0.451347 0.380418
C26   C     C_R   0.470073 0.942908 0.617704 0.349469
C27   C     C_R   0.451348 0.572164 0.903360 0.380420
C28   C     C_R   0.617702 0.470071 0.942922 0.349404
C29   C     C_R   0.903360 0.451344 0.572166 0.380422
C30   C     C_R   0.942912 0.617702 0.470073 0.349465
C31   C     C_R   0.547351 0.039011 0.680089 0.541884
C32   C     C_R   0.456813 0.947720 0.326118 0.517040
C33   C     C_R   0.039015 0.680087 0.547350 0.541888
C34   C     C_R   0.934239 0.421112 0.420931 -0.072337
C35   C     C_R   0.947722 0.326118 0.456812 0.517040
C36   C     C_R   0.680083 0.547347 0.039027 0.541907
C37   C     C_R   0.326119 0.456812 0.947722 0.517041
C38   C     C_R   0.324935 0.954472 0.453407 0.502775
C39   C     C_R   0.679992 0.024097 0.554399 0.516601
C40   C     C_R   0.453407 0.324933 0.954476 0.502774
C41   C     C_R   0.554394 0.679990 0.024107 0.516620
C42   C     C_R   0.954472 0.453408 0.324934 0.502774
C43   C     C_R   0.024102 0.554397 0.679991 0.516610
C44   C     C_R   0.597713 0.043730 0.726526 -0.197923
C45   C     C_R   0.602501 0.593996 0.007811 -0.094786
C46   C     C_R   0.405865 0.946268 0.277119 -0.205348
C47   C     C_R   0.043731 0.726526 0.597713 -0.197920
C48   C     C_R   0.946269 0.277118 0.405864 -0.205352
C49   C     C_R   0.726526 0.597713 0.043732 -0.197888
C50   C     C_R   0.277119 0.405865 0.946269 -0.205346
C51   C     C_R   0.276731 0.949554 0.404129 -0.202982
C52   C     C_R   0.726848 0.035830 0.600596 -0.201980
C53   C     C_R   0.404129 0.276731 0.949555 -0.202985
C54   C     C_R   0.600595 0.726848 0.035832 -0.201986
C55   C     C_R   0.949554 0.404129 0.276731 -0.202980
C56   C     C_R   0.421113 0.420929 0.934241 -0.072340
C57   C     C_R   0.035832 0.600595 0.726848 -0.201978
C58   C     C_R   0.685829 0.043202 0.686320 -0.434896
C59   C     C_R   0.321021 0.934997 0.320740 -0.425849
C60   C     C_R   0.043201 0.686321 0.685830 -0.434898
C61   C     C_R   0.934998 0.320740 0.321021 -0.425835
C62   C     C_R   0.686322 0.685831 0.043197 -0.434908
C63   C     C_R   0.320740 0.321021 0.934998 -0.425848
C64   C     C_3   0.337480 0.975179 0.733128 -0.044314
C65   C     C_3   0.701475 0.883314 0.328211 -0.082257
C66   C     C_3   0.975181 0.733127 0.337481 -0.044311
C67   C     C_R   0.966945 0.178914 0.435669 0.932984
C68   C     C_3   0.883321 0.328206 0.701473 -0.082265
C69   C     C_3   0.733125 0.337477 0.975195 -0.044325
C70   C     C_3   0.328213 0.701472 0.883313 -0.082261
C71   C     C_3   0.410652 0.774296 0.632765 -0.255816
C72   C     C_3   0.715799 0.800466 0.569697 -0.269354
C73   C     C_3   0.632772 0.410643 0.774310 -0.255809
C74   C     C_3   0.569692 0.715798 0.800477 -0.269356
C75   C     C_3   0.774298 0.632764 0.410656 -0.255805
C76   C     C_3   0.800473 0.569686 0.715804 -0.269365
C77   C     C_3   0.427120 0.156522 0.643985 -0.388918
C78   C     C_R   0.034520 0.821597 0.563477 0.951537
C79   C     C_3   0.514939 0.066101 0.270253 -0.341029
C80   C     C_3   0.156521 0.643977 0.427117 -0.388898
C81   C     C_3   0.066107 0.270251 0.514933 -0.341033
C82   C     C_3   0.643913 0.427113 0.156501 -0.388871
C83   C     C_3   0.270251 0.514937 0.066104 -0.341034
C84   C     C_3   0.274728 0.082219 0.495722 -0.340950
C85   C     C_3   0.671968 0.114924 0.413254 -0.349571
C86   C     C_3   0.495715 0.274726 0.082226 -0.340959
C87   C     C_3   0.413252 0.671962 0.114938 -0.349576
C88   C     C_3   0.082219 0.495724 0.274725 -0.340951
C89   C     C_R   0.178914 0.435669 0.966945 0.932983
C90   C     C_3   0.114931 0.413255 0.671956 -0.349579
H1    H     H_    0.723119 0.047832 0.722710 0.235408
H2    H     H_    0.761803 0.838113 0.351916 0.199187
H3    H     H_    0.693047 0.955562 0.317734 0.149979
H4    H     H_    0.714983 0.876252 0.261047 0.162397
H5    H     H_    0.924601 0.756118 0.300857 0.161266
H6    H     H_    0.034269 0.677389 0.314847 0.121938
H7    H     H_    0.000588 0.791647 0.317397 0.163632
H8    H     H_    0.838121 0.351909 0.761803 0.199178
H9    H     H_    0.955570 0.317730 0.693043 0.149985
H10   H     H_    0.876260 0.261043 0.714981 0.162397
H11   H     H_    0.756128 0.300857 0.924608 0.161271
H12   H     H_    0.284138 0.930322 0.283998 0.227845
H13   H     H_    0.677383 0.314839 0.034273 0.121937
H14   H     H_    0.791637 0.317392 0.000615 0.163637
H15   H     H_    0.351919 0.761800 0.838113 0.199188
H16   H     H_    0.317732 0.693045 0.955562 0.149985
H17   H     H_    0.261051 0.714980 0.876249 0.162397
H18   H     H_    0.468732 0.744831 0.661545 0.159628
H19   H     H_    0.432472 0.762044 0.566079 0.155227
H20   H     H_    0.359083 0.738289 0.679414 0.209281
H21   H     H_    0.679822 0.752684 0.580815 0.115038
H22   H     H_    0.693718 0.821227 0.631731 0.139462
H23   H     H_    0.047828 0.722712 0.723120 0.235410
H24   H     H_    0.788983 0.763612 0.557420 0.224864
H25   H     H_    0.661550 0.468723 0.744844 0.159628
H26   H     H_    0.566086 0.432460 0.762055 0.155226
H27   H     H_    0.679422 0.359072 0.738306 0.209279
H28   H     H_    0.580806 0.679828 0.752691 0.115047
H29   H     H_    0.631730 0.693712 0.821236 0.139460
H30   H     H_    0.557417 0.788984 0.763628 0.224866
H31   H     H_    0.744834 0.661543 0.468735 0.159628
H32   H     H_    0.762045 0.566077 0.432475 0.155226
H33   H     H_    0.738290 0.679413 0.359087 0.209284
H34   H     H_    0.930322 0.283998 0.284138 0.227845
H35   H     H_    0.752688 0.580802 0.679831 0.115043
H36   H     H_    0.821230 0.631724 0.693721 0.139463
H37   H     H_    0.763622 0.557407 0.788990 0.224866
H38   H     H_    0.440104 0.147344 0.577757 0.149236
H39   H     H_    0.461155 0.205257 0.634680 0.157116
H40   H     H_    0.353031 0.186639 0.670052 0.181414
H41   H     H_    0.459275 0.109008 0.238384 0.147096
H42   H     H_    0.576343 0.088205 0.226037 0.176291
H43   H     H_    0.497082 0.077113 0.336740 0.128883
H44   H     H_    0.147335 0.577748 0.440109 0.149227
H45   H     H_    0.722716 0.723123 0.047817 0.235413
H46   H     H_    0.205265 0.634670 0.461144 0.157111
H47   H     H_    0.186633 0.670041 0.353027 0.181408
H48   H     H_    0.109012 0.238377 0.459273 0.147102
H49   H     H_    0.077122 0.336739 0.497069 0.128879
H50   H     H_    0.088212 0.226040 0.576337 0.176288
H51   H     H_    0.577762 0.439996 0.147219 0.149271
H52   H     H_    0.634439 0.461227 0.205241 0.157034
H53   H     H_    0.670021 0.353044 0.186678 0.181421
H54   H     H_    0.238382 0.459273 0.109009 0.147097
H55   H     H_    0.336737 0.497078 0.077118 0.128881
H56   H     H_    0.283999 0.284139 0.930321 0.227844
H57   H     H_    0.226035 0.576340 0.088208 0.176291
H58   H     H_    0.245874 0.121233 0.437499 0.137780
H59   H     H_    0.343232 0.089303 0.476892 0.126495
H60   H     H_    0.231110 0.112280 0.552202 0.173246
H61   H     H_    0.675483 0.172201 0.427199 0.148983
H62   H     H_    0.600164 0.119414 0.427254 0.133632
H63   H     H_    0.705497 0.121791 0.339941 0.182403
H64   H     H_    0.437495 0.245867 0.121238 0.137788
H65   H     H_    0.476881 0.343229 0.089312 0.126480
H66   H     H_    0.552194 0.231109 0.112290 0.173243
H67   H     H_    0.300854 0.924600 0.756118 0.161266
H68   H     H_    0.427200 0.675471 0.172215 0.148975
H69   H     H_    0.427249 0.600159 0.119424 0.133640
H70   H     H_    0.339937 0.705493 0.121808 0.182405
H71   H     H_    0.121233 0.437504 0.245867 0.137784
H72   H     H_    0.089306 0.476892 0.343228 0.126493
H73   H     H_    0.112279 0.552205 0.231108 0.173244
H74   H     H_    0.172211 0.427218 0.675441 0.148964
H75   H     H_    0.119400 0.427241 0.600163 0.133647
H76   H     H_    0.121813 0.339941 0.705497 0.182405
H77   H     H_    0.314847 0.034267 0.677390 0.121943
H78   H     H_    0.317396 0.000586 0.791648 0.163633
O1    O     O_R   0.982940 0.138950 0.510160 -0.577625
O2    O     O_R   0.982940 0.510160 0.138950 -0.572910
O3    O     O_R   0.861050 0.017060 0.489840 -0.569526
O4    O     O_R   0.138950 0.982940 0.510160 -0.572909
O5    O     O_R   0.867700 0.025880 0.612340 -0.645649
O6    O     O_R   0.132300 0.974120 0.387660 -0.646557
O7    O     O_R   0.025880 0.612340 0.867700 -0.645650
O8    O     O_R   0.974120 0.387660 0.132300 -0.646553
O9    O     O_R   0.612340 0.867700 0.025880 -0.645650
O10   O     O_R   0.387660 0.132300 0.974120 -0.646557
O11   O     O_R   0.387660 0.974120 0.132300 -0.647015
O12   O     O_R   0.017060 0.861050 0.489840 -0.572712
O13   O     O_R   0.612340 0.025880 0.867700 -0.645702
O14   O     O_R   0.132300 0.387660 0.974120 -0.647014
O15   O     O_R   0.867700 0.612340 0.025880 -0.645707
O16   O     O_R   0.974120 0.132300 0.387660 -0.647015
O17   O     O_R   0.025880 0.867700 0.612340 -0.645702
O18   O     O_3   0.432498 0.933960 0.710032 -0.558701
O19   O     O_3   0.623978 0.854771 0.388217 -0.587047
O20   O     O_3   0.933963 0.710031 0.432499 -0.558696
O21   O     O_3   0.854777 0.388213 0.623978 -0.587047
O22   O     O_3   0.710029 0.432496 0.933982 -0.558703
O23   O     O_R   0.138950 0.510160 0.982940 -0.577626
O24   O     O_3   0.388220 0.623975 0.854773 -0.587051
O25   O     O_3   0.370913 0.867428 0.625930 -0.559268
O26   O     O_3   0.703787 0.876554 0.493689 -0.534646
O27   O     O_3   0.625933 0.370907 0.867443 -0.559269
O28   O     O_3   0.493686 0.703785 0.876567 -0.534650
O29   O     O_3   0.867430 0.625929 0.370915 -0.559268
O30   O     O_3   0.876564 0.493682 0.703788 -0.534650
O31   O     O_3   0.454051 0.072751 0.707495 -0.546902
O32   O     O_3   0.535180 0.973682 0.278949 -0.548299
O33   O     O_3   0.072754 0.707495 0.454050 -0.546900
O34   O     O_R   0.861050 0.489840 0.017060 -0.572717
O35   O     O_3   0.973687 0.278948 0.535177 -0.548299
O36   O     O_3   0.707488 0.454047 0.072783 -0.546905
O37   O     O_3   0.278950 0.535178 0.973684 -0.548301
O38   O     O_3   0.276774 0.990365 0.525815 -0.525756
O39   O     O_3   0.717940 0.030559 0.463004 -0.522497
O40   O     O_3   0.525812 0.276772 0.990372 -0.525752
O41   O     O_3   0.462999 0.717938 0.030572 -0.522498
O42   O     O_3   0.990364 0.525816 0.276774 -0.525755
O43   O     O_3   0.030569 0.463001 0.717938 -0.522496
O44   O     O_R   0.510160 0.982940 0.138950 -0.577624
O45   O     O_R   0.489840 0.017060 0.861050 -0.572714
O46   O     O_R   0.489840 0.861050 0.017060 -0.569526
O47   O     O_R   0.510160 0.138950 0.982940 -0.572909
O48   O     O_R   0.017060 0.489840 0.861050 -0.569525
Zn1   Zn    Zn3+2 0.004880 0.004880 0.583590 0.993359
Zn2   Zn    Zn3+2 0.995120 0.995120 0.416410 1.001083
Zn3   Zn    Zn3+2 0.004880 0.583590 0.004880 0.993359
Zn4   Zn    Zn3+2 0.995120 0.416410 0.995120 1.001089
Zn5   Zn    Zn3+2 0.583590 0.004880 0.004880 0.993361
Zn6   Zn    Zn3+2 0.416410 0.995120 0.995120 1.001083

loop_
_geom_bond_atom_site_label_1
_geom_bond_atom_site_label_2
_ccdc_geom_bond_type
C26   O18   S    
C10   O6    A    
C65   H2    S    
O1    Zn1   S    
C72   H22   S    
C11   C18   A    
O14   Zn4   S    
C76   H35   S    
C66   O20   S    
C46   C59   A    
C81   H50   S    
C75   H32   S    
C76   H36   S    
O12   Zn2   S    
C2    O34   A    
C82   H52   S    
C13   C25   A    
C64   O18   S    
C40   O40   S    
C70   O24   S    
C81   O35   S    
C63   H56   S    
C80   H46   S    
C67   O1    A    
C74   H29   S    
C18   C25   A    
C73   H26   S    
O17   Zn1   S    
C61   H34   S    
C78   O12   A    
C49   C62   A    
C66   H7    S    
C66   H6    S    
C64   H77   S    
C70   H17   S    
C72   O26   S    
C83   H54   S    
C33   O33   S    
C71   O25   S    
C18   O26   S    
C32   C46   A    
C79   H42   S    
C10   O4    A    
C88   H71   S    
C71   H20   S    
C72   H24   S    
C1    C31   A    
C80   H44   S    
C87   H70   S    
C34   C35   A    
O34   Zn4   S    
C19   C26   A    
C86   H66   S    
C77   H40   S    
C3    O11   A    
O46   Zn6   S    
C47   C60   A    
C83   H55   S    
C37   C56   A    
C32   O32   S    
C6    O47   A    
C44   C58   A    
C34   C42   A    
C40   C56   A    
C7    O7    A    
C64   H67   S    
O15   Zn3   S    
C9    O5    A    
O6    Zn2   S    
C4    O13   A    
O5    Zn1   S    
C58   H1    S    
C15   C34   S    
C7    O48   A    
C42   O42   S    
C20   C29   A    
C41   O41   S    
C84   H59   S    
C65   H3    S    
C39   C52   A    
C72   H21   S    
C88   O42   S    
C71   H18   S    
C12   C32   A    
C50   C63   A    
C87   O41   S    
C22   O28   S    
C60   H23   S    
C9    C52   S    
C37   O37   S    
C14   C30   A    
C82   H51   S    
C74   H28   S    
C10   C51   S    
O47   Zn5   S    
C8    C55   S    
C31   O31   S    
C14   C23   S    
C8    O2    A    
C15   C29   A    
O44   Zn5   S    
C69   H13   S    
C81   H48   S    
C79   H43   S    
C74   O28   S    
C17   C24   A    
C73   H27   S    
C31   C44   A    
C13   C19   A    
O11   Zn6   S    
O13   Zn5   S    
C17   C27   A    
C14   C20   A    
C5    C54   S    
C70   H16   S    
C86   O40   S    
C43   C57   A    
C57   C60   A    
C77   H39   S    
C38   C51   A    
C4    C44   S    
C11   C26   A    
C23   C33   A    
C39   O39   S    
C30   O20   S    
C62   H45   S    
C16   C45   S    
C84   H58   S    
C86   H65   S    
C85   H61   S    
C2    C49   S    
C42   C55   A    
O48   Zn4   S    
O45   Zn6   S    
C50   C89   S    
C80   O33   S    
C79   H41   S    
C65   O19   S    
C89   O23   A    
C36   C45   A    
C78   O17   A    
C85   H63   S    
C77   O31   S    
C17   C56   S    
C5    O9    A    
C77   H38   S    
C52   C58   A    
C83   H57   S    
C65   H4    S    
C19   O25   S    
C20   O30   S    
C73   O27   S    
C90   H75   S    
C33   C47   A    
C75   H33   S    
C9    O3    A    
C51   C59   A    
C27   O24   S    
C55   C61   A    
C6    C53   S    
O23   Zn3   S    
C4    O45   A    
C43   O43   S    
C85   O39   S    
C25   O19   S    
O2    Zn3   S    
C69   H14   S    
C3    O44   A    
C81   H49   S    
C16   C22   A    
C79   O32   S    
C38   O38   S    
C75   H31   S    
C59   H12   S    
O7    Zn3   S    
C68   H10   S    
C24   C28   A    
C21   O29   S    
C82   H53   S    
C70   H15   S    
C28   O22   S    
C69   O22   S    
C75   O29   S    
C8    O8    A    
C69   H11   S    
C88   H73   S    
C54   C62   A    
C21   C30   A    
C3    C46   S    
O4    Zn1   S    
C24   O27   S    
C87   H68   S    
C22   C27   A    
C89   O14   A    
C86   H64   S    
C85   H62   S    
C64   H78   S    
C76   O30   S    
C73   H25   S    
C82   O36   S    
C37   C50   A    
C53   C63   A    
C35   O35   S    
C48   C61   A    
C90   O43   S    
C68   O21   S    
C88   H72   S    
C5    O46   A    
C71   H19   S    
O16   Zn2   S    
C87   H69   S    
C29   O21   S    
C2    O15   A    
C48   C67   S    
C12   C38   A    
C68   H8    S    
C41   C54   A    
C68   H9    S    
O3    Zn2   S    
C35   C48   A    
C67   O16   A    
C1    C39   A    
C74   H30   S    
C84   O38   S    
C15   C21   A    
C12   C13   S    
C83   O37   S    
C40   C53   A    
O8    Zn4   S    
C90   H74   S    
C76   H37   S    
C41   C45   A    
C16   C28   A    
O10   Zn6   S    
C1    C11   S    
C36   O36   S    
C47   C78   S    
O9    Zn5   S    
C23   C43   A    
C7    C57   S    
C90   H76   S    
C36   C49   A    
C80   H47   S    
C84   H60   S    
C66   H5    S    
C6    O10   A    
