data_mof_unit_26301.cif
_audit_creation_date              2012-12-11T14:42:15-0500
_audit_creation_method            fapswitch 2.2
_symmetry_space_group_name_H-M    P1
_symmetry_Int_Tables_number       1
_space_group_crystal_system       triclinic
_cell_length_a                    18.919727
_cell_length_b                    11.084589
_cell_length_c                    18.92575
_cell_angle_alpha                 90.042184
_cell_angle_beta                  90.70943
_cell_angle_gamma                 90.482093
_cell_volume                      3968.61290499

loop_
_atom_site_label
_atom_site_type_symbol
_atom_type_description
_atom_site_fract_x
_atom_site_fract_y
_atom_site_fract_z
_atom_type_partial_charge
C1    C     C_R   0.726873 0.957760 0.854488 0.576109
C2    C     C_R   0.242799 0.427103 0.927947 -0.009829
C3    C     C_3   0.931102 0.978253 0.434847 -0.216339
C4    C     C_R   0.257086 0.926979 0.072045 -0.009570
C5    C     C_R   0.742805 0.927094 0.927944 -0.009830
C6    C     C_R   0.812677 0.378942 0.033031 -0.165679
C7    C     C_R   0.186761 0.379778 0.967234 -0.164579
C8    C     C_R   0.312693 0.879018 0.033021 -0.165666
C9    C     C_R   0.686775 0.879730 0.967226 -0.164567
C10   C     C_R   0.808698 0.373106 0.960868 -0.168359
C11   C     C_R   0.191079 0.373896 0.039399 -0.165879
C12   C     C_R   0.308704 0.873177 0.960858 -0.168359
C13   C     C_R   0.273142 0.957953 0.145522 0.568922
C14   C     C_R   0.691087 0.873849 0.039391 -0.165872
C15   C     C_R   0.747587 0.409609 0.924860 -0.016760
C16   C     C_R   0.252891 0.409679 0.075093 -0.015095
C17   C     C_R   0.247577 0.909608 0.924862 -0.016757
C18   C     C_R   0.752890 0.909670 0.075091 -0.015102
C19   C     C_R   0.558843 0.229342 0.525801 -0.112172
C20   C     C_R   0.548643 0.223527 0.453783 -0.120889
C21   C     C_R   0.058840 0.729397 0.525797 -0.112188
C22   C     C_R   0.048647 0.723570 0.453778 -0.120917
C23   C     C_R   0.490444 0.160546 0.427660 0.065513
C24   C     C_R   0.226872 0.457761 0.854489 0.576099
C25   C     C_R   0.510776 0.174071 0.571763 0.046295
C26   C     C_R   0.990467 0.660539 0.427652 0.065560
C27   C     C_R   0.010789 0.674077 0.571756 0.046298
C28   C     C_R   0.443362 0.100367 0.473362 -0.142534
C29   C     C_R   0.453024 0.108476 0.545959 -0.166409
C30   C     C_R   0.943406 0.600309 0.473352 -0.142449
C31   C     C_R   0.953066 0.608416 0.545948 -0.166410
C32   C     C_R   0.787124 0.292503 0.523503 0.170341
C33   C     C_R   0.188671 0.408219 0.456257 0.211812
C34   C     C_R   0.287160 0.792602 0.523520 0.170376
C35   C     C_R   0.773141 0.457953 0.145522 0.568903
C36   C     C_R   0.688669 0.908257 0.456247 0.211777
C37   C     C_R   0.792098 0.315536 0.451754 0.093860
C38   C     C_R   0.181154 0.394162 0.528516 0.087514
C39   C     C_R   0.292119 0.815598 0.451769 0.093840
C40   C     C_R   0.681140 0.894216 0.528507 0.087415
C41   C     C_R   0.530787 0.177690 0.851004 0.562628
C42   C     C_R   0.469147 0.178094 0.148955 0.563261
C43   C     C_R   0.030786 0.677690 0.851003 0.562667
C44   C     C_R   0.969146 0.678094 0.148954 0.563262
C45   C     C_R   0.749891 0.406190 0.420486 -0.007620
C46   C     C_R   0.695284 0.467131 0.036817 0.232374
C47   C     C_R   0.239654 0.417782 0.574142 -0.001241
C48   C     C_R   0.249902 0.906228 0.420493 -0.007637
C49   C     C_R   0.739642 0.917797 0.574137 -0.001229
C50   C     C_R   0.699082 0.467062 0.461308 0.163402
C51   C     C_R   0.307642 0.416305 0.547359 0.221817
C52   C     C_R   0.199094 0.967114 0.461310 0.163435
C53   C     C_R   0.807631 0.916258 0.547361 0.221807
C54   C     C_R   0.697974 0.449055 0.534418 0.079382
C55   C     C_R   0.316787 0.405440 0.474053 0.081178
C56   C     C_R   0.197990 0.949138 0.534422 0.079390
C57   C     C_R   0.305293 0.466680 0.962853 0.231605
C58   C     C_R   0.816780 0.905398 0.474056 0.081177
C59   C     C_R   0.739239 0.357506 0.565029 -0.022831
C60   C     C_R   0.256310 0.403207 0.427829 -0.006860
C61   C     C_R   0.239270 0.857607 0.565041 -0.022843
C62   C     C_R   0.756309 0.903203 0.427828 -0.006847
C63   C     C_R   0.738284 0.363772 0.852901 0.557910
C64   C     C_R   0.261877 0.364021 0.147047 0.563534
C65   C     C_R   0.238281 0.863768 0.852903 0.557854
C66   C     C_R   0.761876 0.864020 0.147047 0.563549
C67   C     C_R   0.726617 0.955399 0.646919 0.596913
C68   C     C_R   0.195272 0.967063 0.036829 0.232379
C69   C     C_R   0.271287 0.953692 0.351642 0.582887
C70   C     C_R   0.226621 0.455392 0.646922 0.596862
C71   C     C_R   0.771286 0.453688 0.351642 0.582878
C72   C     C_R   0.529430 0.176896 0.645200 0.550862
C73   C     C_R   0.469060 0.175452 0.355494 0.570185
C74   C     C_R   0.029438 0.676898 0.645195 0.550885
C75   C     C_R   0.969066 0.675451 0.355490 0.570155
C76   C     C_R   0.728317 0.320985 0.638494 0.559863
C77   C     C_R   0.262281 0.360025 0.354973 0.599414
C78   C     C_R   0.228331 0.821036 0.638493 0.559771
C79   C     C_R   0.805290 0.966702 0.962856 0.231607
C80   C     C_R   0.762281 0.860024 0.354973 0.599433
C81   C     C_2   0.498759 0.169187 0.921029 -0.091940
C82   C     C_2   0.501158 0.170150 0.078921 -0.090245
C83   C     C_2   0.998754 0.669190 0.921026 -0.091919
C84   C     C_2   0.001153 0.670145 0.078919 -0.090239
C85   C     C_2   0.491466 0.071996 0.037967 -0.169221
C86   C     C_2   0.508814 0.071894 0.962269 -0.170528
C87   C     C_2   0.991444 0.571998 0.037961 -0.169220
C88   C     C_2   0.008795 0.571891 0.962264 -0.170527
C89   C     C_R   0.691435 0.462203 0.962819 0.236721
C90   C     C_R   0.757080 0.426976 0.072045 -0.009591
C91   C     C_R   0.309573 0.461488 0.036837 0.235942
C92   C     C_R   0.191412 0.962134 0.962832 0.236719
C93   C     C_R   0.809565 0.961509 0.036840 0.235942
C94   C     C_3   0.912310 0.271490 0.411851 -0.204568
C95   C     C_3   0.056916 0.385163 0.561109 -0.200359
C96   C     C_3   0.412326 0.771540 0.411849 -0.204510
C97   C     C_3   0.556883 0.885236 0.561031 -0.200382
C98   C     C_3   0.703123 0.616096 0.615494 -0.238338
C99   C     C_3   0.431104 0.478300 0.434824 -0.216364
C100  C     C_3   0.202928 0.115985 0.615716 -0.238115
Cl1   Cl    Cl    0.636292 0.566282 0.423194 -0.625780
Cl2   Cl    Cl    0.379796 0.518368 0.915333 -0.467246
Cl3   Cl    Cl    0.120998 0.019017 0.083883 -0.475078
Cl4   Cl    Cl    0.879787 0.018435 0.915344 -0.467268
Cl5   Cl    Cl    0.846838 0.187678 0.560219 -0.601420
Cl6   Cl    Cl    0.111556 0.417132 0.402209 -0.601145
Cl7   Cl    Cl    0.346877 0.687765 0.560230 -0.601321
Cl8   Cl    Cl    0.611565 0.917191 0.402183 -0.601195
Cl9   Cl    Cl    0.380931 0.409646 0.606795 -0.556222
Cl10  Cl    Cl    0.136280 0.066267 0.423174 -0.625751
Cl11  Cl    Cl    0.880913 0.909551 0.606804 -0.556300
Cl12  Cl    Cl    0.616443 0.524787 0.919872 -0.463648
Cl13  Cl    Cl    0.385876 0.522420 0.079388 -0.465170
Cl14  Cl    Cl    0.116388 0.024625 0.919903 -0.463628
Cl15  Cl    Cl    0.885853 0.022482 0.079399 -0.465210
Cl16  Cl    Cl    0.621018 0.519180 0.083853 -0.475073
Cr1   Cr    Cr6+3 0.769270 0.163730 0.750710 1.157504
Cr2   Cr    Cr6+3 0.385840 0.322500 0.252290 1.104366
Cr3   Cr    Cr6+3 0.114160 0.822500 0.747710 1.131175
Cr4   Cr    Cr6+3 0.885840 0.822500 0.252290 1.104389
Cr5   Cr    Cr6+3 0.230730 0.163730 0.249290 1.162454
Cr6   Cr    Cr6+3 0.269270 0.663730 0.750710 1.157537
Cr7   Cr    Cr6+3 0.730730 0.663730 0.249290 1.162446
Cr8   Cr    Cr6+3 0.612620 0.009790 0.748780 1.031622
Cr9   Cr    Cr6+3 0.387380 0.009790 0.251220 1.060880
Cr10  Cr    Cr6+3 0.112620 0.509790 0.748780 1.031517
Cr11  Cr    Cr6+3 0.887380 0.509790 0.251220 1.060892
Cr12  Cr    Cr6+3 0.614160 0.322500 0.747710 1.131309
H1    H     H_    0.469947 0.989234 0.059932 0.166267
H2    H     H_    0.137695 0.349845 0.942582 0.190876
H3    H     H_    0.361236 0.848544 0.057861 0.190790
H4    H     H_    0.637716 0.849768 0.942570 0.190945
H5    H     H_    0.853051 0.334012 0.933596 0.197709
H6    H     H_    0.146372 0.335350 0.066939 0.198784
H7    H     H_    0.353065 0.834138 0.933576 0.197653
H8    H     H_    0.646385 0.835276 0.066926 0.198846
H9    H     H_    0.604705 0.276021 0.546276 0.130693
H10   H     H_    0.584421 0.270708 0.418854 0.148033
H11   H     H_    0.104683 0.776127 0.546272 0.130794
H12   H     H_    0.530643 0.989751 0.940548 0.165769
H13   H     H_    0.084407 0.770793 0.418851 0.148045
H14   H     H_    0.395706 0.057214 0.453215 0.124377
H15   H     H_    0.416427 0.064332 0.581343 0.136698
H16   H     H_    0.895763 0.557119 0.453206 0.124367
H17   H     H_    0.916484 0.564228 0.581330 0.136668
H18   H     H_    0.825345 0.152007 0.412706 0.267195
H19   H     H_    0.938836 0.230423 0.457913 0.166106
H20   H     H_    0.922154 0.369669 0.415064 0.188583
H21   H     H_    0.937360 0.237503 0.363102 0.169955
H22   H     H_    0.115497 0.246515 0.523190 0.306077
H23   H     H_    0.969908 0.489244 0.059923 0.166278
H24   H     H_    0.016457 0.350606 0.523194 0.158662
H25   H     H_    0.065361 0.480889 0.550589 0.189758
H26   H     H_    0.037480 0.370760 0.615510 0.190353
H27   H     H_    0.325361 0.652047 0.412738 0.267195
H28   H     H_    0.438870 0.730436 0.457885 0.166065
H29   H     H_    0.422168 0.869721 0.415089 0.188566
H30   H     H_    0.437361 0.737594 0.363079 0.169972
H31   H     H_    0.615492 0.746569 0.523199 0.306031
H32   H     H_    0.516429 0.850522 0.523180 0.158602
H33   H     H_    0.565300 0.980900 0.550370 0.189766
H34   H     H_    0.030614 0.489742 0.940542 0.165755
H35   H     H_    0.537453 0.871021 0.615442 0.190452
H36   H     H_    0.611561 0.558451 0.559589 0.294698
H37   H     H_    0.731624 0.672928 0.576835 0.152478
H38   H     H_    0.743376 0.571644 0.649511 0.166898
H39   H     H_    0.669848 0.672523 0.650000 0.188643
H40   H     H_    0.410209 0.318735 0.482699 0.289192
H41   H     H_    0.435807 0.536865 0.481976 0.213924
H42   H     H_    0.412024 0.526812 0.387406 0.162140
H43   H     H_    0.485075 0.446350 0.423143 0.188827
H44   H     H_    0.111489 0.058411 0.559531 0.294686
H45   H     H_    0.524755 0.251516 0.057122 0.175334
H46   H     H_    0.169548 0.172343 0.650180 0.188492
H47   H     H_    0.231594 0.172909 0.577223 0.152463
H48   H     H_    0.243026 0.071430 0.649836 0.167006
H49   H     H_    0.910193 0.818666 0.482698 0.289174
H50   H     H_    0.935794 0.036815 0.482002 0.213929
H51   H     H_    0.912032 0.026770 0.387428 0.162154
H52   H     H_    0.985076 0.946305 0.423176 0.188796
H53   H     H_    0.474894 0.249870 0.942606 0.175201
H54   H     H_    0.024761 0.751503 0.057122 0.175364
H55   H     H_    0.974896 0.749880 0.942605 0.175213
H56   H     H_    0.861207 0.348409 0.057879 0.190846
N1    N     N_2   0.837068 0.242606 0.409715 -0.477647
N2    N     N_2   0.122699 0.323813 0.552454 -0.500351
N3    N     N_2   0.337083 0.742646 0.409734 -0.477643
N4    N     N_2   0.622674 0.823891 0.552441 -0.500345
N5    N     N_2   0.659323 0.527958 0.578590 -0.468039
N6    N     N_2   0.385183 0.377047 0.449184 -0.475843
N7    N     N_2   0.159235 0.027933 0.578573 -0.468117
N8    N     N_2   0.885176 0.877000 0.449191 -0.475852
O1    O     O_R   0.784320 0.290430 0.830510 -0.505424
O2    O     O_R   0.456080 0.282180 0.333210 -0.505812
O3    O     O_R   0.043920 0.782180 0.666790 -0.462669
O4    O     O_R   0.956080 0.782180 0.333210 -0.505808
O5    O     O_R   0.679040 0.374160 0.674430 -0.485283
O6    O     O_R   0.320960 0.374160 0.325570 -0.500603
O7    O     O_R   0.179040 0.874160 0.674430 -0.485505
O8    O     O_R   0.820960 0.874160 0.325570 -0.500607
O9    O     O_3   0.665350 0.165340 0.749070 -0.319541
O10   O     O_3   0.334650 0.165340 0.250930 -0.305999
O11   O     O_3   0.165350 0.665340 0.749070 -0.319467
O12   O     O_R   0.215680 0.290430 0.169490 -0.500018
O13   O     O_3   0.834650 0.665340 0.250930 -0.305995
O14   O     O_R   0.762640 0.040960 0.825200 -0.442675
O15   O     O_R   0.237360 0.040960 0.174800 -0.449568
O16   O     O_R   0.262640 0.540960 0.825200 -0.442662
O17   O     O_R   0.737360 0.540960 0.174800 -0.449572
O18   O     O_R   0.667400 0.923970 0.829950 -0.522346
O19   O     O_R   0.332600 0.923970 0.170050 -0.520203
O20   O     O_R   0.167400 0.423970 0.829950 -0.522388
O21   O     O_R   0.832600 0.423970 0.170050 -0.520198
O22   O     O_R   0.553960 0.081340 0.821780 -0.508046
O23   O     O_R   0.284320 0.790430 0.830510 -0.505405
O24   O     O_R   0.446040 0.081340 0.178220 -0.503239
O25   O     O_R   0.053960 0.581340 0.821780 -0.508043
O26   O     O_R   0.946040 0.581340 0.178220 -0.503243
O27   O     O_R   0.543180 0.283240 0.826740 -0.437267
O28   O     O_R   0.456820 0.283240 0.173260 -0.446511
O29   O     O_R   0.043180 0.783240 0.826740 -0.437234
O30   O     O_R   0.956820 0.783240 0.173260 -0.446495
O31   O     O_R   0.678360 0.375140 0.822710 -0.448027
O32   O     O_R   0.321640 0.375140 0.177290 -0.452094
O33   O     O_R   0.178360 0.875140 0.822710 -0.448072
O34   O     O_R   0.715680 0.790430 0.169490 -0.500004
O35   O     O_R   0.821640 0.875140 0.177290 -0.452089
O36   O     O_R   0.785050 0.289380 0.670560 -0.446975
O37   O     O_R   0.214950 0.289380 0.329440 -0.414455
O38   O     O_R   0.285050 0.789380 0.670560 -0.446950
O39   O     O_R   0.714950 0.789380 0.329440 -0.414452
O40   O     O_R   0.763320 0.039990 0.676930 -0.421845
O41   O     O_R   0.236680 0.039990 0.323070 -0.439650
O42   O     O_R   0.263320 0.539990 0.676930 -0.421834
O43   O     O_R   0.736680 0.539990 0.323070 -0.439655
O44   O     O_R   0.668130 0.922920 0.670000 -0.518614
O45   O     O_R   0.554640 0.080370 0.673500 -0.537868
O46   O     O_R   0.331870 0.922920 0.330000 -0.507094
O47   O     O_R   0.168130 0.422920 0.670000 -0.518688
O48   O     O_R   0.831870 0.422920 0.330000 -0.507093
O49   O     O_R   0.445360 0.080370 0.326500 -0.494973
O50   O     O_R   0.054640 0.580370 0.673500 -0.537907
O51   O     O_R   0.945360 0.580370 0.326500 -0.494981
O52   O     O_R   0.543920 0.282180 0.666790 -0.462699

loop_
_geom_bond_atom_site_label_1
_geom_bond_atom_site_label_2
_ccdc_geom_bond_type
C58   C62   A    
C97   N4    S    
C96   H30   S    
C87   C88   S    
C49   C53   A    
Cr1   O36   S    
Cr11  O26   S    
Cr8   O45   S    
C54   N5    S    
C45   C71   S    
C43   C83   S    
C14   C18   A    
H18   N1    S    
C2    C7    A    
C42   C82   S    
C68   Cl3   S    
C81   H53   S    
C48   C69   S    
C4    C8    A    
Cr9   O19   S    
C2    C57   A    
C30   H16   S    
C99   H42   S    
Cr8   O22   S    
C72   O52   A    
C94   H21   S    
C7    C11   A    
C57   Cl2   S    
C89   Cl12  S    
Cr7   O13   S    
C5    C9    A    
Cr4   O4    S    
Cr8   O18   S    
C1    C5    S    
C34   Cl7   S    
C62   C80   S    
C28   C29   A    
C43   O29   A    
C3    H50   S    
Cr5   O10   S    
C65   O23   A    
C48   C52   A    
C42   O28   A    
C76   O5    A    
C93   Cl15  S    
C30   C31   A    
Cr9   O24   S    
C36   C62   A    
C76   O36   A    
C63   O31   A    
C99   H43   S    
C40   C49   A    
C29   H15   S    
Cr3   O29   S    
H40   N6    S    
Cr6   O23   S    
C64   O32   A    
C70   O42   A    
C20   H10   S    
C4    C13   S    
C69   O41   A    
Cr12  O5    S    
C7    H2    S    
C3    H51   S    
Cr7   O43   S    
C85   H1    S    
C100  H46   S    
C37   N1    S    
C19   C20   A    
C97   H35   S    
C12   H7    S    
C66   O35   A    
C100  H48   S    
C10   H5    S    
Cr9   O49   S    
C71   O43   A    
C5    C79   A    
C27   C74   S    
C49   C67   S    
C69   O46   A    
C51   C55   A    
C98   H39   S    
Cr10  O25   S    
C86   H12   S    
C39   N3    S    
C75   O4    A    
C53   Cl11  S    
C83   C88   D    
C21   C27   A    
C56   N7    S    
Cr11  O48   S    
C51   Cl9   S    
H49   N8    S    
C87   H23   S    
C21   C22   A    
C94   H20   S    
C96   N3    S    
Cr2   O10   S    
C17   C92   A    
C23   C73   S    
C98   N5    S    
Cr1   O9    S    
Cr10  O47   S    
Cr12  O31   S    
C41   O27   A    
C18   C66   S    
C54   C59   A    
H44   N7    S    
C25   C29   A    
Cr6   O38   S    
Cr9   O10   S    
C31   H17   S    
Cr5   O37   S    
C27   C31   A    
C34   C39   A    
C55   N6    S    
Cr6   O16   S    
C36   C40   A    
C94   N1    S    
C44   O26   A    
Cr1   O14   S    
C11   H6    S    
C60   C77   S    
Cr7   O34   S    
Cr11  O21   S    
C68   C92   A    
C47   C51   A    
C6    C10   A    
C38   N2    S    
C20   C23   A    
Cr2   O32   S    
C24   O16   A    
C34   C61   A    
Cr4   O13   S    
C91   Cl13  S    
C6    H56   S    
C95   H25   S    
C74   O50   A    
H31   N4    S    
C12   C17   A    
C9    C14   A    
C97   H32   S    
C47   C70   S    
Cr10  O50   S    
C46   C89   A    
C19   H9    S    
C15   C89   A    
C11   C16   A    
Cr12  O27   S    
C82   H45   S    
C52   Cl10  S    
C61   C78   S    
C8    C12   A    
C41   C81   S    
C66   O34   A    
C100  H47   S    
C63   O1    A    
C26   C75   S    
C81   C86   D    
C65   O33   A    
C25   C72   S    
C50   C54   A    
C32   C37   A    
C64   O12   A    
C1    O14   A    
C35   O21   A    
Cr4   O35   S    
C38   C47   A    
C98   H38   S    
C16   C91   A    
C40   N4    S    
C43   O25   A    
Cr6   O42   S    
Cr5   O15   S    
C67   O40   A    
C26   C30   A    
C33   C60   A    
Cr5   O41   S    
C32   Cl5   S    
C75   O51   A    
C2    C24   S    
Cr12  O52   S    
Cr3   O7    S    
C79   Cl4   S    
Cr6   O11   S    
C28   H14   S    
C78   O7    A    
C21   H11   S    
C80   O39   A    
C37   C45   A    
H36   N5    S    
Cr2   O6    S    
Cr3   O11   S    
Cr3   O33   S    
C4    C68   A    
C77   O6    A    
C9    H4    S    
C100  N7    S    
C8    H3    S    
C73   O49   A    
C74   O3    A    
C83   H55   S    
Cr4   O30   S    
C57   C91   A    
C1    O18   A    
C72   O45   A    
Cr2   O28   S    
C17   C65   S    
C33   Cl6   S    
C94   H19   S    
Cr5   O12   S    
C44   C84   S    
C85   C86   S    
H22   N2    S    
C99   N6    S    
C53   C58   A    
C44   O30   A    
C46   C90   A    
C84   C87   D    
Cr10  O11   S    
C78   O38   A    
C82   C85   D    
Cr1   O40   S    
C77   O37   A    
C33   C38   A    
C46   Cl16  S    
Cr8   O9    S    
C10   C15   A    
C95   H26   S    
C71   O48   A    
C84   H54   S    
C35   O17   A    
C79   C93   A    
C13   O19   A    
C6    C90   A    
C3    N8    S    
C58   N8    S    
C41   O22   A    
C96   H28   S    
Cr11  O51   S    
C14   H8    S    
C45   C50   A    
C55   C60   A    
C88   H34   S    
Cr7   O17   S    
C22   H13   S    
Cr4   O8    S    
C96   H29   S    
Cr3   O3    S    
Cr12  O9    S    
Cr10  O20   S    
Cr11  O13   S    
Cr2   O2    S    
C98   H37   S    
C42   O24   A    
C13   O15   A    
C3    H52   S    
C19   C25   A    
C22   C26   A    
Cr8   O44   S    
C35   C90   S    
C99   H41   S    
Cr1   O1    S    
Cr7   O39   S    
C36   Cl8   S    
C95   N2    S    
C50   Cl1   S    
C70   O47   A    
C24   O20   A    
C18   C93   A    
C15   C63   S    
C56   C61   A    
C67   O44   A    
H27   N3    S    
C95   H24   S    
C16   C64   S    
C32   C59   A    
C73   O2    A    
C92   Cl14  S    
C59   C76   S    
C23   C28   A    
Cr9   O46   S    
C52   C56   A    
C97   H33   S    
C39   C48   A    
C80   O8    A    
