data_mof_unit_8359.cif
_audit_creation_date              2012-10-26T18:34:00-0400
_audit_creation_method            fapswitch 2.2
_symmetry_space_group_name_H-M    P1
_symmetry_Int_Tables_number       1
_space_group_crystal_system       triclinic
_cell_length_a                    10.973441
_cell_length_b                    10.812099
_cell_length_c                    9.510417
_cell_angle_alpha                 89.638228
_cell_angle_beta                  100.615677
_cell_angle_gamma                 89.945912
_cell_volume                      1109.03550378

loop_
_atom_site_label
_atom_site_type_symbol
_atom_type_description
_atom_site_fract_x
_atom_site_fract_y
_atom_site_fract_z
_atom_type_partial_charge
C1    C     C_R   0.504779 0.262281 0.501605 0.585815
C2    C     C_2   0.871911 0.521185 0.580697 -0.074658
C3    C     C_2   0.068818 0.576483 0.518817 0.228999
C4    C     C_2   0.933775 0.578905 0.488596 0.232915
C5    C     C_R   0.426959 0.068828 0.391692 -0.156633
C6    C     C_R   0.572964 0.931056 0.608369 -0.117916
C7    C     C_R   0.418708 0.940713 0.388032 0.196894
C8    C     C_R   0.581101 0.059205 0.612106 0.245998
C9    C     C_R   0.493979 0.871559 0.497262 -0.004683
C10   C     C_R   0.505948 0.128352 0.502790 -0.022813
C11   C     C_R   0.495365 0.737701 0.498427 0.615721
C12   C     C_R   0.262899 0.507022 0.445123 0.576944
C13   C     C_R   0.737057 0.508075 0.555245 0.593836
C14   C     C_R   0.445154 0.406240 0.063357 0.058417
C15   C     C_R   0.553638 0.594334 0.936295 0.073709
C16   C     C_R   0.444777 0.406528 0.914488 0.100362
C17   C     C_R   0.552389 0.594843 0.084616 0.119146
C18   C     C_2   0.128412 0.522375 0.422232 -0.060221
Cu1   Cu    Cu3+1 0.500000 0.500020 0.640660 1.103965
Cu2   Cu    Cu3+1 0.500000 0.499980 0.359340 1.115599
H1    H     H_    0.400678 0.331308 0.110177 0.121413
H2    H     H_    0.082236 0.782727 0.824044 0.399673
H3    H     H_    0.428019 0.887570 0.093456 0.339862
H4    H     H_    0.829205 0.271483 0.759819 0.370148
H5    H     H_    0.597365 0.669744 0.889387 0.127211
H6    H     H_    0.923656 0.480157 0.678369 0.110874
H7    H     H_    0.075150 0.486534 0.323144 0.124952
H8    H     H_    0.399828 0.331985 0.849547 0.141702
H9    H     H_    0.593524 0.671549 0.148189 0.189236
H10   H     H_    0.369284 0.123256 0.309051 0.164410
H11   H     H_    0.630846 0.876529 0.690721 0.173388
H12   H     H_    0.925615 0.803444 0.199470 0.389188
N1    N     N_R   0.500030 0.500030 0.852080 -0.224217
N2    N     N_R   0.499970 0.499970 0.147920 -0.231614
O1    O     O_R   0.499990 0.319660 0.618740 -0.467703
O2    O     O_2   0.756563 0.740328 0.370608 -0.293336
O3    O     O_3   0.968407 0.764125 0.289497 -0.428420
O4    O     O_2   0.194792 0.564797 0.789085 -0.289316
O5    O     O_2   0.243438 0.738004 0.640335 -0.227596
O6    O     O_3   0.036535 0.744950 0.735168 -0.478135
O7    O     O_2   0.243029 0.769059 0.310020 -0.188761
O8    O     O_2   0.214506 0.966725 0.182696 -0.251281
O9    O     O_3   0.381736 0.816451 0.123344 -0.496523
O10   O     O_2   0.625819 0.185225 0.857559 -0.282191
O11   O     O_2   0.781206 0.031764 0.821924 -0.245766
O12   O     O_R   0.500010 0.680340 0.381260 -0.446479
O13   O     O_3   0.770782 0.236981 0.677596 -0.514474
O14   O     O_R   0.499990 0.319630 0.381170 -0.532214
O15   O     O_R   0.500010 0.680370 0.618830 -0.509888
O16   O     O_R   0.320690 0.500020 0.575130 -0.458968
O17   O     O_R   0.679310 0.499980 0.424870 -0.440733
O18   O     O_R   0.320680 0.499990 0.337560 -0.479944
O19   O     O_R   0.679320 0.500010 0.662440 -0.490902
O20   O     O_2   0.819963 0.579764 0.215627 -0.318488
S1    S     S_3+6 0.863629 0.666575 0.337119 0.035998
S2    S     S_3+6 0.141834 0.656544 0.674624 0.073677
S3    S     S_3+6 0.308911 0.872740 0.249954 0.073045
S4    S     S_3+6 0.691580 0.127647 0.748938 0.050772

loop_
_geom_bond_atom_site_label_1
_geom_bond_atom_site_label_2
_ccdc_geom_bond_type
C14   N2    A    
C12   O16   A    
C5    C7    A    
C1    O14   A    
C16   H8    S    
C11   O15   A    
C16   N1    A    
C17   H9    S    
C3    S2    S    
Cu1   O15   S    
C2    C4    D    
O5    S2    D    
Cu2   N2    S    
Cu1   O19   S    
C6    C9    A    
C6    H11   S    
H2    O6    S    
C5    C10   A    
C2    H6    S    
O2    S1    D    
Cu1   O1    S    
H12   O3    S    
O13   S4    S    
C9    C11   S    
Cu1   O16   S    
Cu2   O14   S    
C14   H1    S    
O8    S3    D    
C8    C10   A    
C12   O18   A    
C7    S3    S    
Cu2   O17   S    
C13   O19   A    
C4    S1    S    
C14   C16   A    
O11   S4    D    
C15   H5    S    
C17   N2    A    
O9    S3    S    
O7    S3    D    
C3    C4    S    
O3    S1    S    
C7    C9    A    
H4    O13   S    
O4    S2    D    
C1    O1    A    
C3    C18   D    
Cu2   O18   S    
C5    H10   S    
Cu1   N1    S    
C12   C18   S    
C15   C17   A    
C2    C13   S    
O20   S1    D    
C11   O12   A    
C6    C8    A    
C8    S4    S    
C13   O17   A    
H3    O9    S    
C1    C10   S    
C15   N1    A    
Cu2   O12   S    
C18   H7    S    
Cu1   Cu2   S    
O10   S4    D    
O6    S2    S    
