data_mof_unit_67699.cif
_audit_creation_date              2013-03-05T16:49:09-0500
_audit_creation_method            fapswitch 2.2
_symmetry_space_group_name_H-M    P1
_symmetry_Int_Tables_number       1
_space_group_crystal_system       triclinic
_cell_length_a                    11.218803
_cell_length_b                    10.632151
_cell_length_c                    9.652072
_cell_angle_alpha                 89.479814
_cell_angle_beta                  90.637167
_cell_angle_gamma                 90.249949
_cell_volume                      1151.17013051

loop_
_atom_site_label
_atom_site_type_symbol
_atom_site_description
_atom_site_fract_x
_atom_site_fract_y
_atom_site_fract_z
_atom_type_partial_charge
O1    O     O_R   0.500060 0.316850 0.620870 -0.541194
O2    O     O_R   0.499940 0.683150 0.379130 -0.541116
O3    O     O_R   0.500000 0.316860 0.379090 -0.568253
O4    O     O_R   0.500000 0.683140 0.620910 -0.568299
C1    C     C_R   0.500330 0.260879 0.500734 0.945566
C2    C     C_R   0.499662 0.739120 0.499266 0.945544
O5    O     O_R   0.319670 0.500010 0.620890 -0.523259
O6    O     O_R   0.680330 0.499990 0.379110 -0.523324
O7    O     O_R   0.319620 0.500010 0.379110 -0.537023
O8    O     O_R   0.680380 0.499990 0.620890 -0.537144
C3    C     C_R   0.262418 0.493315 0.498949 0.910081
C4    C     C_R   0.737594 0.506696 0.501038 0.910157
Cu1   Cu    Cu3+1 0.500030 0.499990 0.643150 1.111585
Cu2   Cu    Cu3+1 0.499970 0.500010 0.356850 1.111666
H1    H     H_    0.130475 0.240688 0.925579 0.260890
H2    H     H_    0.869158 0.759108 0.074375 0.260827
C5    C     C_R   0.118123 0.427086 0.008259 -0.241690
C6    C     C_R   0.881765 0.572747 0.991640 -0.241604
H3    H     H_    0.136944 0.469770 0.910152 0.218743
H4    H     H_    0.862957 0.530010 0.089726 0.218691
C7    C     C_R   0.113449 0.499709 0.129018 0.342733
C8    C     C_R   0.886534 0.500175 0.870842 0.342672
C9    C     C_R   0.082825 0.439706 0.253744 -0.124365
C10   C     C_R   0.917187 0.560255 0.746180 -0.124656
C11   C     C_R   0.066178 0.306291 0.258435 0.354841
C12   C     C_R   0.933751 0.693685 0.741554 0.355078
C13   C     C_R   0.088336 0.233946 0.140427 0.399948
C14   C     C_R   0.911464 0.765968 0.859575 0.400141
C15   C     C_R   0.113539 0.295666 0.016032 -0.121465
C16   C     C_R   0.886227 0.704178 0.983923 -0.121340
C17   C     C_R   0.938673 0.554164 0.387672 0.223563
C18   C     C_R   0.061378 0.445847 0.612246 0.223861
C19   C     C_R   0.872990 0.513127 0.503003 -0.180549
C20   C     C_R   0.127047 0.486890 0.496929 -0.180633
C21   C     C_R   0.940757 0.484021 0.623071 -0.019654
C22   C     C_R   0.059301 0.516000 0.376836 -0.019633
C23   C     C_3   0.501929 0.037827 0.631628 0.273607
C24   C     C_3   0.498052 0.962172 0.368370 0.273532
C25   C     C_3   0.597926 0.957125 0.563835 0.218304
C26   C     C_3   0.402055 0.042875 0.436162 0.218505
C27   C     C_3   0.499511 0.875146 0.497453 -0.226423
C28   C     C_3   0.500471 0.124853 0.502545 -0.226431
C29   C     C_3   0.403485 0.956930 0.565071 0.244214
C30   C     C_3   0.596497 0.043069 0.434928 0.244077
C31   C     C_3   0.507638 0.612814 0.048998 -0.214259
C32   C     C_3   0.492355 0.387186 0.951000 -0.214310
C33   C     C_3   0.411412 0.562506 0.949176 0.318448
C34   C     C_3   0.588579 0.437485 0.050837 0.318186
H5    H     H_    0.517232 0.708483 0.092720 0.246714
H6    H     H_    0.482759 0.291518 0.907275 0.246747
N1    N     N_3   0.500090 0.499970 0.858290 -0.258520
N2    N     N_3   0.499910 0.500030 0.141710 -0.258507
C35   C     C_3   0.594549 0.549790 0.948366 0.390825
C36   C     C_3   0.405445 0.450206 0.051628 0.391240
N3    N     N_R   0.330205 0.658344 0.893095 0.184823
O9    O     O_R   0.351226 0.776692 0.917391 -0.272068
O10   O     O_R   0.244298 0.630220 0.807989 -0.337072
N4    N     N_R   0.669689 0.341604 0.107007 0.184933
O11   O     O_R   0.648555 0.223263 0.082828 -0.272416
O12   O     O_R   0.755564 0.369687 0.192163 -0.336918
O13   O     O_3   0.676718 0.626073 0.882294 -0.726000
H7    H     H_    0.632958 0.700931 0.847217 0.358797
O14   O     O_3   0.323229 0.373925 0.117630 -0.725917
H8    H     H_    0.366980 0.299097 0.152804 0.358847
N5    N     N_R   0.150192 0.629934 0.127208 0.167828
O15   O     O_R   0.123754 0.703088 0.023364 -0.285967
O16   O     O_R   0.216910 0.675253 0.226073 -0.273894
N6    N     N_R   0.850035 0.369869 0.872578 0.167639
O17   O     O_R   0.875833 0.296997 0.976811 -0.286184
O18   O     O_R   0.784045 0.324241 0.773318 -0.273835
O19   O     O_3   0.032164 0.244514 0.377602 -0.600408
H9    H     H_    0.965240 0.291923 0.417015 0.352043
O20   O     O_3   0.967802 0.755537 0.622444 -0.600383
H10   H     H_    0.034645 0.708070 0.582908 0.351953
N7    N     N_R   0.080365 0.098538 0.143490 0.174464
O21   O     O_R   0.135043 0.032406 0.051029 -0.258689
O22   O     O_R   0.014380 0.040288 0.233874 -0.190375
N8    N     N_R   0.919351 0.901383 0.856586 0.174429
O23   O     O_R   0.864596 0.967438 0.949051 -0.258914
O24   O     O_R   0.985352 0.959715 0.766283 -0.190359
N9    N     N_R   0.903561 0.668949 0.318201 0.117134
O25   O     O_R   0.984321 0.754304 0.294046 -0.241758
O26   O     O_R   0.792525 0.703491 0.312419 -0.354105
N10   N     N_R   0.096513 0.331055 0.681700 0.117150
O27   O     O_R   0.015840 0.245550 0.705533 -0.241513
O28   O     O_R   0.207574 0.296677 0.687785 -0.354148
O29   O     O_3   0.700006 0.910073 0.629942 -0.653875
H11   H     H_    0.746311 0.985367 0.658077 0.404192
O30   O     O_3   0.299976 0.089930 0.370054 -0.653824
H12   H     H_    0.253698 0.014634 0.341853 0.404144
O31   O     O_3   0.504210 0.077982 0.769093 -0.648451
H13   H     H_    0.506626 0.999978 0.826080 0.375864
O32   O     O_3   0.495756 0.922013 0.230906 -0.648483
H14   H     H_    0.493715 0.000017 0.173925 0.375934
O33   O     O_3   0.302674 0.909730 0.632056 -0.601212
H15   H     H_    0.259439 0.984700 0.664886 0.405213
O34   O     O_3   0.697310 0.090267 0.367948 -0.601164
H16   H     H_    0.740527 0.015297 0.335083 0.405206

loop_
_geom_bond_atom_site_label_1
_geom_bond_atom_site_label_2
_geom_bond_distance
_ccdc_geom_bond_type
O5    Cu1   2.032422 S    
O29   H11   0.990788 S    
O32   H14   0.991170 S    
C13   C15   1.394205 A    
C5    C15   1.399366 A    
O20   H10   0.987843 S    
O33   H15   0.991177 S    
C25   O29   1.397082 S    
N3    O9    1.302096 A    
N9    O25   1.300955 A    
C25   C27   1.541197 S    
O5    C3    1.336870 A    
O1    C1    1.308185 A    
N10   O28   1.300554 A    
N8    O24   1.301210 A    
C36   O14   1.382592 S    
N4    O12   1.295077 A    
O34   H16   0.991175 S    
O4    Cu1   1.957139 S    
C12   O20   1.376209 S    
C23   C28   1.545136 S    
C5    H3    1.069125 S    
Cu1   N1    2.076537 S    
C35   O13   1.382546 S    
C26   C29   1.537013 S    
Cu2   N2    2.076537 S    
N6    O17   1.295202 A    
N5    O16   1.300899 A    
C2    C27   1.446202 S    
C29   O33   1.397993 S    
C17   C19   1.406823 A    
C11   O19   1.376170 S    
C26   O30   1.397090 S    
C14   N8    1.442135 S    
C20   C22   1.411732 A    
C26   C28   1.541207 S    
C31   C35   1.543280 S    
Cu1   Cu2   2.763379 S    
C27   C29   1.541667 S    
O2    C2    1.308182 A    
C28   C30   1.541668 S    
C13   N7    1.442122 S    
N9    O26   1.300694 A    
N2    C36   1.463803 S    
H1    C15   1.074208 S    
C31   C33   1.536560 S    
C34   C35   1.545248 S    
C18   N10   1.441471 S    
C32   C34   1.536593 S    
C10   C21   1.471458 S    
C23   O31   1.397437 S    
C18   C21   1.419709 A    
N10   O27   1.300830 A    
C24   C27   1.545136 S    
O4    C2    1.311507 A    
O31   H13   0.991304 S    
O7    Cu2   2.037063 S    
N8    O23   1.301707 A    
C33   N1    1.495713 S    
C31   N2    1.492497 S    
N4    O11   1.302033 A    
C32   N1    1.492500 S    
C5    C7    1.405548 A    
N1    C35   1.463712 S    
C18   C20   1.406650 A    
C23   C29   1.535643 S    
N7    O21   1.301714 A    
C24   C30   1.535652 S    
N7    O22   1.301230 A    
C30   O34   1.397993 S    
C31   H5    1.109115 S    
O6    C4    1.336828 A    
C32   C36   1.543227 S    
O7    C3    1.330205 A    
C8    N6    1.442967 S    
O3    Cu2   1.957139 S    
O8    C4    1.330385 A    
C33   C36   1.545081 S    
C6    C16   1.399413 A    
C9    C22   1.471586 S    
N3    O10   1.295133 A    
C8    C10   1.402653 A    
O1    Cu1   1.960952 S    
C1    C28   1.446203 S    
C33   N3    1.465746 S    
O6    Cu2   2.032422 S    
C7    N5    1.442920 S    
C6    C8    1.405607 A    
C3    C20   1.519859 S    
C10   C12   1.430320 A    
O3    C1    1.311506 A    
O8    Cu1   2.037062 S    
C34   N4    1.465700 S    
C25   C30   1.537001 S    
C11   C13   1.405231 A    
C32   H6    1.109117 S    
C12   C14   1.405242 A    
C17   N9    1.441402 S    
C7    C9    1.402733 A    
C4    C19   1.520144 S    
O19   H9    0.987748 S    
C23   C25   1.535643 S    
C24   C26   1.535641 S    
C24   O32   1.397441 S    
C14   C16   1.394233 A    
C19   C21   1.411658 A    
C6    H4    1.069154 S    
C9    C11   1.430301 A    
O13   H7    0.991934 S    
O2    Cu2   1.960952 S    
O14   H8    0.991929 S    
C34   N2    1.495615 S    
N6    O18   1.300334 A    
N5    O15   1.295674 A    
C17   C22   1.419765 A    
O30   H12   0.990818 S    
H2    C16   1.074202 S    
