data_mof_unit_62307.cif
_audit_creation_date              2013-03-05T16:23:47-0500
_audit_creation_method            fapswitch 2.2
_symmetry_space_group_name_H-M    P1
_symmetry_Int_Tables_number       1
_space_group_crystal_system       triclinic
_cell_length_a                    18.717984
_cell_length_b                    18.919907
_cell_length_c                    18.810295
_cell_angle_alpha                 109.652659
_cell_angle_beta                  109.255718
_cell_angle_gamma                 109.454072
_cell_volume                      5131.23685738

loop_
_atom_site_label
_atom_site_type_symbol
_atom_site_description
_atom_site_fract_x
_atom_site_fract_y
_atom_site_fract_z
_atom_type_partial_charge
O1    O     O_R   0.090190 0.947810 0.538000 -0.587844
O2    O     O_R   0.090150 0.052180 0.642350 -0.588745
C1    C     C_R   0.119390 0.000742 0.618920 0.786181
O3    O     O_R   0.090200 0.037990 0.447830 -0.595327
O4    O     O_R   0.090160 0.142360 0.552180 -0.562127
C2    C     C_R   0.118123 0.118462 0.499197 0.803667
Cu1   Cu    Cu3+1 0.000020 0.938200 0.438220 0.949683
Cu2   Cu    Cu3+1 0.999980 0.061800 0.561780 0.982730
O5    O     O_R   0.909850 0.947820 0.357650 -0.580267
O6    O     O_R   0.909810 0.052190 0.462000 -0.583145
O7    O     O_R   0.909840 0.857640 0.447820 -0.586967
O8    O     O_R   0.909800 0.962010 0.552170 -0.585225
C3    C     C_R   0.881690 0.000489 0.381293 0.818541
C4    C     C_R   0.881506 0.881614 0.500437 0.797393
H1    H     H_    0.876073 0.949406 0.116065 0.133273
C5    C     C_R   0.005109 0.983790 0.205342 -0.116768
H2    H     H_    0.000498 0.924165 0.165052 0.132427
C6    C     C_R   0.081215 0.046383 0.284770 -0.158454
H3    H     H_    0.135225 0.034472 0.305124 0.142570
C7    C     C_R   0.087775 0.123664 0.338132 -0.029505
C8    C     C_R   0.016509 0.138567 0.310388 0.345912
C9    C     C_R   0.940890 0.074963 0.229340 -0.190994
H4    H     H_    0.885362 0.084162 0.206425 0.180302
C10   C     C_R   0.935102 0.998066 0.177689 -0.184830
C11   C     C_R   0.235236 0.253905 0.424320 -0.182790
H5    H     H_    0.225170 0.255379 0.364775 0.153737
C12   C     C_R   0.313163 0.317190 0.502875 -0.085928
C13   C     C_R   0.325621 0.315683 0.580722 0.012478
C14   C     C_R   0.260741 0.248876 0.577174 -0.225148
H6    H     H_    0.269246 0.247195 0.636395 0.138849
C15   C     C_R   0.184296 0.184918 0.498418 -0.028573
C16   C     C_R   0.170424 0.187728 0.421461 0.064340
C17   C     C_R   0.454553 0.364077 0.720317 -0.151913
H7    H     H_    0.439773 0.297544 0.697958 0.127527
C18   C     C_R   0.526192 0.429317 0.802441 -0.127374
H8    H     H_    0.566148 0.413014 0.842969 0.142666
C19   C     C_R   0.546179 0.515524 0.832329 -0.102748
H9    H     H_    0.601570 0.565915 0.895935 0.135260
C20   C     C_R   0.494450 0.536623 0.780231 -0.107873
H10   H     H_    0.509637 0.603304 0.803555 0.145673
C21   C     C_R   0.422906 0.471587 0.698078 -0.092212
H11   H     H_    0.383077 0.488504 0.658462 0.095890
C22   C     C_R   0.402706 0.384865 0.667170 0.124981
C23   C     C_R   0.172907 0.924674 0.687145 0.100427
C24   C     C_R   0.185179 0.001400 0.686974 -0.077334
C25   C     C_R   0.257463 0.080351 0.758812 -0.207786
H12   H     H_    0.265958 0.141334 0.762800 0.154751
C26   C     C_R   0.322066 0.080440 0.823281 -0.209523
H13   H     H_    0.379462 0.141441 0.876271 0.178415
C27   C     C_R   0.313045 0.001656 0.817568 -0.086785
C28   C     C_R   0.235425 0.924916 0.752018 0.143267
C29   C     C_3   0.222759 0.842054 0.689418 -0.497793
C30   C     C_3   0.153945 0.841788 0.618224 -0.443682
H14   H     H_    0.281458 0.850830 0.682605 0.192136
H15   H     H_    0.195307 0.788684 0.702018 0.205391
H16   H     H_    0.172594 0.849923 0.569965 0.212690
H17   H     H_    0.086763 0.788415 0.589934 0.201511
C31   C     C_R   0.747008 0.741366 0.426253 0.120178
C32   C     C_R   0.816138 0.816168 0.502266 -0.087452
C33   C     C_R   0.819874 0.825986 0.581467 -0.203584
H18   H     H_    0.872707 0.883079 0.642809 0.157641
C34   C     C_R   0.755613 0.760444 0.581492 -0.205286
H19   H     H_    0.759793 0.768346 0.642770 0.151105
C35   C     C_R   0.685714 0.686087 0.502146 -0.080214
C36   C     C_R   0.683938 0.680184 0.426084 0.117265
C37   C     C_3   0.635352 0.623860 0.329710 -0.460234
C38   C     C_3   0.706855 0.694321 0.329805 -0.447442
H20   H     H_    0.636428 0.562026 0.309401 0.201115
H21   H     H_    0.569962 0.617580 0.299131 0.212848
H22   H     H_    0.748391 0.672723 0.308657 0.212179
H23   H     H_    0.682962 0.729393 0.300040 0.199954
C39   C     C_R   0.759014 0.930544 0.232442 0.023310
C40   C     C_R   0.816296 0.002145 0.315328 -0.083237
C41   C     C_R   0.807914 0.076868 0.332909 -0.154248
H24   H     H_    0.851455 0.135089 0.396099 0.190104
C42   C     C_R   0.743472 0.076980 0.267684 -0.182447
H25   H     H_    0.738201 0.134870 0.281824 0.162526
C43   C     C_R   0.685565 0.001743 0.185259 -0.102535
C44   C     C_R   0.695837 0.929990 0.170875 0.043433
C45   C     C_3   0.662224 0.839419 0.104668 0.461135
C46   C     C_3   0.733826 0.839617 0.175190 -0.490873
H26   H     H_    0.670519 0.834097 0.047565 0.037867
H27   H     H_    0.708234 0.795767 0.198717 0.219660
H28   H     H_    0.785473 0.835866 0.160009 0.160877
O9    O     O_R   0.447790 0.590200 0.538040 -0.578154
O10   O     O_R   0.552160 0.590170 0.642390 -0.588837
C47   C     C_R   0.500177 0.619177 0.618927 0.784210
O11   O     O_R   0.357620 0.409850 0.447860 -0.580691
O12   O     O_R   0.461990 0.409820 0.552210 -0.577690
C48   C     C_R   0.380825 0.382405 0.501261 0.780304
Cu3   Cu    Cu3+1 0.438190 0.500040 0.438260 0.965788
Cu4   Cu    Cu3+1 0.561780 0.500000 0.561820 0.961519
O13   O     O_R   0.447810 0.409860 0.357690 -0.584982
O14   O     O_R   0.552180 0.409830 0.462050 -0.586943
O15   O     O_R   0.537970 0.590210 0.447870 -0.582884
O16   O     O_R   0.642350 0.590180 0.552220 -0.585474
C49   C     C_R   0.499741 0.380987 0.381343 0.802628
C50   C     C_R   0.618825 0.618673 0.500291 0.799371
O17   O     O_R   0.552210 0.142430 0.090170 -0.540878
O18   O     O_R   0.447820 0.038100 0.090220 -0.596263
C51   C     C_R   0.499680 0.118370 0.118461 0.787239
O19   O     O_R   0.462030 0.052220 0.909860 -0.574240
O20   O     O_R   0.357640 0.947890 0.909900 -0.588658
C52   C     C_R   0.380920 0.000014 0.881416 0.782231
Cu5   Cu    Cu3+1 0.561810 0.061820 0.000020 1.008936
Cu6   Cu    Cu3+1 0.438190 0.938280 0.000080 0.994029
O21   O     O_R   0.552180 0.962000 0.909880 -0.589048
O22   O     O_R   0.447790 0.857670 0.909930 -0.573391
O23   O     O_R   0.642360 0.052210 0.090200 -0.590201
O24   O     O_R   0.537970 0.947880 0.090240 -0.545441
C53   C     C_R   0.500798 0.881586 0.881894 0.784404
C54   C     C_R   0.618744 0.999967 0.118236 0.793798
C55   C     C_R   0.429750 0.699878 0.667814 0.139347
C56   C     C_R   0.502787 0.689152 0.685106 -0.098302
C57   C     C_R   0.579787 0.749919 0.765730 -0.222320
H29   H     H_    0.639035 0.746377 0.779545 0.159524
C58   C     C_R   0.579731 0.814405 0.830162 -0.205535
H30   H     H_    0.638804 0.859694 0.892714 0.136829
C59   C     C_R   0.502078 0.816640 0.815184 -0.054051
C60   C     C_R   0.429098 0.761925 0.732166 0.086145
C61   C     C_3   0.336702 0.703304 0.704089 -0.471728
C62   C     C_3   0.336949 0.635396 0.632614 -0.444375
H31   H     H_    0.330451 0.685648 0.753332 0.222230
H32   H     H_    0.292305 0.726252 0.678470 0.195318
H33   H     H_    0.329499 0.577939 0.639811 0.192948
H34   H     H_    0.293540 0.620425 0.566338 0.212644
C63   C     C_R   0.480430 0.306495 0.234795 0.017462
C64   C     C_R   0.498987 0.313304 0.315349 -0.063026
C65   C     C_R   0.518066 0.251834 0.330746 -0.194051
H35   H     H_    0.532451 0.253608 0.392214 0.159227
C66   C     C_R   0.517226 0.186446 0.265525 -0.197248
H36   H     H_    0.531215 0.139304 0.277916 0.149529
C67   C     C_R   0.499943 0.183695 0.185539 -0.084108
C68   C     C_R   0.482596 0.245704 0.173597 0.055703
C69   C     C_3   0.459267 0.275895 0.110357 0.458088
C70   C     C_3   0.457548 0.345917 0.180463 -0.490224
H37   H     H_    0.394989 0.227623 0.050305 0.049811
H38   H     H_    0.510497 0.412813 0.208424 0.218448
H39   H     H_    0.391297 0.337799 0.161988 0.166050
F1    F     F_    0.578899 0.784353 0.084042 -0.627699
F2    F     F_    0.527352 0.310035 0.095854 -0.631066
N1    N     N_R   0.019237 0.216618 0.362254 0.107859
O25   O     O_R   0.069160 0.261226 0.446412 -0.359286
O26   O     O_R   0.966047 0.239849 0.326028 -0.363473

loop_
_geom_bond_atom_site_label_1
_geom_bond_atom_site_label_2
_geom_bond_distance
_ccdc_geom_bond_type
C37   H20   1.111369 S    
C27   C52   1.449990 S    
C21   H11   1.080046 S    
C18   H8    1.082318 S    
C63   C68   1.349424 A    
C64   C65   1.413851 A    
C46   H28   1.111443 S    
C56   C57   1.407421 A    
O9    Cu3   1.970957 S    
O15   C50   1.291685 A    
C69   C70   1.541576 S    
C20   C21   1.397822 A    
C24   C25   1.406446 A    
C60   C61   1.491964 S    
Cu1   O7    1.969134 S    
C4    C32   1.441787 S    
Cu5   O21   1.972793 S    
C19   H9    1.082366 S    
C41   C42   1.409820 A    
O19   Cu5   1.968528 S    
C33   C34   1.411309 A    
C13   C14   1.394354 A    
C18   C19   1.397976 A    
C42   C43   1.408658 A    
C8    N1    1.443252 S    
C55   C56   1.397088 A    
C39   C44   1.349075 A    
C70   H39   1.111374 S    
C47   C56   1.453628 S    
O4    C2    1.292392 A    
O7    C4    1.292714 A    
C37   H21   1.111705 S    
C57   H29   1.083060 S    
Cu4   O16   1.972560 S    
C12   C48   1.461844 S    
C53   C59   1.444774 S    
C6    H3    1.083465 S    
C40   C41   1.414266 A    
O5    C3    1.294229 A    
C61   H32   1.108264 S    
C34   C35   1.411455 A    
Cu6   O24   1.968527 S    
C23   C30   1.491374 S    
C55   C62   1.493529 S    
C5    H2    1.082295 S    
C57   C58   1.401627 A    
O16   C50   1.291232 A    
C38   H23   1.111849 S    
C39   C46   1.490056 S    
C29   H15   1.111528 S    
C11   C16   1.393612 A    
C35   C50   1.439848 S    
C2    C15   1.449927 S    
C32   C33   1.412573 A    
C5    C10   1.393323 A    
O1    Cu1   1.970052 S    
C8    C9    1.408516 A    
C14   C15   1.396093 A    
C21   C22   1.404707 A    
O3    Cu1   1.973052 S    
C9    H4    1.082517 S    
C46   H27   1.111611 S    
C29   H14   1.112137 S    
C17   H7    1.083139 S    
O9    C47   1.293770 A    
O17   Cu5   1.969217 S    
C25   C26   1.401045 A    
C41   H24   1.082966 S    
C28   C29   1.492354 S    
C17   C22   1.405256 A    
Cu1   Cu2   2.686434 S    
C42   H25   1.083275 S    
C45   H26   1.111602 S    
O23   C54   1.289899 A    
Cu3   Cu4   2.685060 S    
C30   H17   1.111548 S    
C43   C44   1.383570 A    
C45   C46   1.541643 S    
O14   C49   1.291927 A    
C31   C32   1.385806 A    
C45   F1    1.383888 S    
C1    C24   1.447276 S    
C33   H18   1.083345 S    
O1    C1    1.296109 A    
C62   H34   1.111605 S    
C14   H6    1.085149 S    
Cu3   O13   1.971230 S    
C55   C60   1.380925 A    
C31   C36   1.348486 A    
C15   C16   1.406709 A    
O11   Cu3   1.972684 S    
Cu2   O8    1.973052 S    
C34   H19   1.083445 S    
Cu4   O14   1.970937 S    
C27   C28   1.395856 A    
C11   H5    1.084495 S    
C63   C70   1.490312 S    
O12   Cu4   1.969701 S    
O19   C52   1.294888 A    
C61   C62   1.518055 S    
C23   C28   1.381785 A    
O3    C2    1.293125 A    
H1    C10   1.082543 S    
O17   C51   1.291183 A    
O11   C48   1.296375 A    
C67   C68   1.383909 A    
C9    C10   1.395404 A    
C63   C64   1.387435 A    
O13   C49   1.293511 A    
C20   H10   1.082349 S    
N1    O26   1.301630 A    
C29   C30   1.518534 S    
C70   H38   1.110696 S    
C65   H35   1.083071 S    
C7    C16   1.480876 S    
C30   H16   1.112122 S    
C69   H37   1.111498 S    
Cu5   O23   1.971534 S    
C25   H12   1.083440 S    
C26   H13   1.083386 S    
O10   C47   1.295433 A    
O21   C53   1.292096 A    
Cu2   O6    1.970052 S    
O2    Cu2   1.970202 S    
C23   C24   1.393395 A    
C3    C40   1.445273 S    
C39   C40   1.387389 A    
C66   C67   1.409290 A    
O6    C3    1.292173 A    
O4    Cu2   1.969134 S    
C59   C60   1.392832 A    
C68   C69   1.487489 S    
C51   C67   1.436140 S    
C11   C12   1.403453 A    
Cu5   Cu6   2.686706 S    
C13   C22   1.483984 S    
O18   Cu6   1.972791 S    
O22   C53   1.293789 A    
C38   H22   1.111736 S    
C35   C36   1.385381 A    
C62   H33   1.109038 S    
C58   C59   1.404528 A    
O2    C1    1.290855 A    
O8    C4    1.291887 A    
C19   C20   1.397145 A    
O10   Cu4   1.971107 S    
C58   H30   1.083488 S    
C65   C66   1.410428 A    
Cu6   O22   1.969217 S    
C26   C27   1.405182 A    
O18   C51   1.290800 A    
C17   C18   1.398818 A    
C37   C38   1.541701 S    
O20   Cu6   1.971534 S    
C6    C7    1.404419 A    
O24   C54   1.291406 A    
C61   H31   1.112153 S    
Cu3   O15   1.969483 S    
C44   C45   1.487550 S    
Cu1   O5    1.970204 S    
C31   C38   1.489085 S    
C69   F2    1.383935 S    
C7    C8    1.421855 A    
C5    C6    1.395117 A    
C36   C37   1.488849 S    
O20   C52   1.293321 A    
N1    O25   1.300697 A    
C43   C54   1.434711 S    
C49   C64   1.445054 S    
O12   C48   1.294614 A    
C66   H36   1.083303 S    
C12   C13   1.416592 A    
