data_mof_unit_34762.cif
_audit_creation_date              2012-12-11T15:21:08-0500
_audit_creation_method            fapswitch 2.2
_symmetry_space_group_name_H-M    P1
_symmetry_Int_Tables_number       1
_space_group_crystal_system       triclinic
_cell_length_a                    18.402667
_cell_length_b                    18.339058
_cell_length_c                    51.1321
_cell_angle_alpha                 90.149533
_cell_angle_beta                  90.198325
_cell_angle_gamma                 120.038892
_cell_volume                      14938.3851551

loop_
_atom_site_label
_atom_site_type_symbol
_atom_type_description
_atom_site_fract_x
_atom_site_fract_y
_atom_site_fract_z
_atom_type_partial_charge
C1    C     C_R   0.408415 0.585016 0.287912 0.547342
C2    C     C_R   0.578034 0.428622 0.859843 -0.096408
C3    C     C_R   0.414943 0.959029 0.094475 0.439196
C4    C     C_R   0.501507 0.971432 0.406792 0.443588
C5    C     C_R   0.489133 0.883664 0.088229 0.443923
C6    C     C_R   0.471495 0.853929 0.359574 0.320288
C7    C     C_R   0.385538 0.809927 0.139356 0.314508
C8    C     C_R   0.470313 0.835522 0.332901 -0.130669
C9    C     C_R   0.373828 0.789813 0.166065 -0.125363
C10   C     C_R   0.378424 0.891773 0.323931 -0.161930
C11   C     C_R   0.479757 0.932903 0.177406 -0.158029
C12   C     C_R   0.379642 0.910775 0.350506 -0.108993
C13   C     C_R   0.558736 0.501197 0.638209 0.241622
C14   C     C_R   0.488525 0.954472 0.150894 -0.099338
C15   C     C_R   0.425351 0.891213 0.368363 0.262949
C16   C     C_R   0.441543 0.893267 0.131853 0.256982
C17   C     C_R   0.440840 0.929564 0.450076 -0.031787
C18   C     C_R   0.447738 0.934628 0.050342 -0.032927
C19   C     C_R   0.363191 0.872093 0.438502 0.028872
C20   C     C_R   0.413676 0.970449 0.067286 0.030799
C21   C     C_R   0.293724 0.824779 0.454595 -0.125168
C22   C     C_R   0.377468 0.015210 0.056676 -0.110234
C23   C     C_R   0.134539 0.553197 0.409766 0.408372
C24   C     C_R   0.553934 0.489550 0.862703 0.232143
C25   C     C_R   0.111286 0.572969 0.090146 0.401887
C26   C     C_R   0.510082 0.980431 0.434066 0.030627
C27   C     C_R   0.486101 0.891312 0.060924 0.023359
C28   C     C_R   0.424222 0.854458 0.314944 -0.024032
C29   C     C_R   0.421490 0.850792 0.185076 -0.012658
C30   C     C_R   0.554681 0.122536 0.688786 0.023358
C31   C     C_R   0.559549 0.129332 0.812577 0.013163
C32   C     C_R   0.385369 0.909756 0.521050 0.030593
C33   C     C_R   0.419372 0.009826 0.985119 0.030743
C34   C     C_R   0.539538 0.990110 0.516683 -0.016004
C35   C     C_R   0.599573 0.578588 0.486557 0.018175
C36   C     C_R   0.463284 0.904548 0.978261 -0.037626
C37   C     C_R   0.466662 0.956720 0.532484 -0.023590
C38   C     C_R   0.443410 0.964274 0.968060 -0.024912
C39   C     C_R   0.314628 0.883295 0.537269 -0.149477
C40   C     C_R   0.404954 0.072286 0.974370 -0.140533
C41   C     C_R   0.323632 0.903090 0.563796 -0.128661
C42   C     C_R   0.413225 0.088922 0.947782 -0.116234
C43   C     C_R   0.403407 0.947564 0.575361 0.036328
C44   C     C_R   0.434891 0.043298 0.930684 0.042346
C45   C     C_R   0.475092 0.971845 0.559821 -0.090374
C46   C     C_R   0.559868 0.617190 0.009914 0.015732
C47   C     C_R   0.448441 0.979368 0.940658 -0.091802
C48   C     C_R   0.093193 0.591857 0.354750 -0.045523
C49   C     C_R   0.069834 0.583227 0.148007 -0.050145
C50   C     C_R   0.555069 0.011032 0.571589 -0.013428
C51   C     C_R   0.468557 0.931963 0.923346 -0.023398
C52   C     C_R   0.562840 0.032834 0.598330 0.432943
C53   C     C_R   0.478712 0.952812 0.896416 0.418546
C54   C     C_R   0.413245 0.968902 0.602130 0.411484
C55   C     C_R   0.446789 0.062968 0.903934 0.422865
C56   C     C_R   0.481322 0.101066 0.647340 -0.078259
C57   C     C_R   0.534309 0.590765 0.476673 0.039063
C58   C     C_R   0.443571 0.052673 0.842746 -0.077378
C59   C     C_R   0.505704 0.140542 0.671729 -0.195608
C60   C     C_R   0.473707 0.091755 0.818595 -0.193558
C61   C     C_R   0.574905 0.060277 0.681693 0.245628
C62   C     C_R   0.615003 0.125561 0.831066 0.240964
C63   C     C_R   0.546629 0.018247 0.657599 -0.050121
C64   C     C_R   0.584169 0.087620 0.855382 -0.051102
C65   C     C_R   0.503545 0.041317 0.639873 0.195388
C66   C     C_R   0.498903 0.051210 0.861352 0.193557
C67   C     C_R   0.377602 0.892879 0.493726 0.016799
C68   C     C_R   0.505558 0.543963 0.024352 0.032447
C69   C     C_R   0.412810 0.993320 0.012398 0.016293
C70   C     C_R   0.449242 0.936969 0.477730 0.028045
C71   C     C_R   0.444157 0.942827 0.022769 0.025687
C72   C     C_R   0.117286 0.613341 0.328835 -0.129416
C73   C     C_R   0.097532 0.603226 0.173870 -0.136495
C74   C     C_R   0.529202 0.989814 0.489135 0.040068
C75   C     C_R   0.473089 0.901466 0.005823 0.019895
C76   C     C_R   0.300496 0.835302 0.481667 -0.155721
C77   C     C_R   0.377422 0.026911 0.029816 -0.146063
C78   C     C_R   0.586119 0.039690 0.445652 -0.130429
C79   C     C_R   0.477747 0.597410 0.493999 0.022239
C80   C     C_R   0.521020 0.857091 0.044025 -0.141313
C81   C     C_R   0.619476 0.020526 0.528919 0.242293
C82   C     C_R   0.471074 0.849235 0.960419 0.230930
C83   C     C_R   0.625121 0.025474 0.556534 0.269290
C84   C     C_R   0.478265 0.865581 0.933427 0.267594
C85   C     C_R   0.595030 0.044731 0.472672 -0.107795
C86   C     C_R   0.515100 0.862365 0.017051 -0.126616
C87   C     C_R   0.561067 0.579240 0.404585 0.421226
C88   C     C_R   0.539880 0.629346 0.092485 0.439248
C89   C     C_R   0.451579 0.611759 0.411983 0.450004
C90   C     C_R   0.453234 0.466625 0.011306 0.018196
C91   C     C_R   0.455102 0.478633 0.094048 0.396123
C92   C     C_R   0.536996 0.642171 0.349978 -0.106685
C93   C     C_R   0.391063 0.520058 0.141964 -0.138498
C94   C     C_R   0.516033 0.639409 0.323628 -0.168719
C95   C     C_R   0.370652 0.525052 0.167717 -0.173561
C96   C     C_R   0.119011 0.482924 0.322846 -0.155034
C97   C     C_R   0.133410 0.492825 0.173939 -0.162336
C98   C     C_R   0.381206 0.514949 0.331539 -0.135866
C99   C     C_R   0.518031 0.612221 0.178544 -0.124065
C100  C     C_R   0.400938 0.518993 0.358374 0.315832
C101  C     C_R   0.650909 0.566808 0.468496 -0.144683
C102  C     C_R   0.539378 0.603734 0.152784 0.317411
C103  C     C_R   0.479173 0.583641 0.367530 0.270811
C104  C     C_R   0.475119 0.559889 0.133976 0.216241
C105  C     C_R   0.524465 0.594748 0.449179 -0.034901
C106  C     C_R   0.503365 0.547919 0.052084 -0.036628
C107  C     C_R   0.575704 0.581253 0.431698 0.025571
C108  C     C_R   0.548426 0.625746 0.065199 0.013232
C109  C     C_R   0.638812 0.567671 0.441676 -0.110926
C110  C     C_R   0.598845 0.698483 0.050672 -0.128901
C111  C     C_R   0.462708 0.611207 0.439201 0.019894
C112  C     C_R   0.408005 0.584293 0.212264 0.541167
C113  C     C_R   0.605005 0.694391 0.023620 -0.150949
C114  C     C_R   0.456006 0.473904 0.066648 0.027857
C115  C     C_R   0.437162 0.577024 0.314240 -0.025705
C116  C     C_R   0.433565 0.572280 0.186138 -0.033168
C117  C     C_R   0.570137 0.443232 0.688069 -0.031808
C118  C     C_R   0.574056 0.438923 0.812808 -0.019987
C119  C     C_R   0.609800 0.575946 0.514045 0.027659
C120  C     C_R   0.567574 0.610337 0.982429 0.032043
C121  C     C_R   0.094028 0.461205 0.348722 -0.086209
C122  C     C_R   0.106417 0.473465 0.147996 -0.082690
C123  C     C_R   0.480401 0.581618 0.521116 -0.028931
C124  C     C_R   0.412923 0.625992 0.456606 -0.115445
C125  C     C_R   0.450386 0.464282 0.983625 -0.035604
C126  C     C_R   0.547529 0.572791 0.531130 0.017904
C127  C     C_R   0.511341 0.533978 0.969336 0.010130
C128  C     C_R   0.679849 0.575166 0.525089 -0.141839
C129  C     C_R   0.630514 0.676554 0.967574 -0.128353
C130  C     C_R   0.685160 0.564766 0.551759 -0.114285
C131  C     C_R   0.638335 0.667407 0.940880 -0.126225
C132  C     C_R   0.620768 0.554446 0.568526 0.026824
C133  C     C_R   0.582240 0.592887 0.927738 0.022277
C134  C     C_R   0.551942 0.559408 0.558381 -0.081188
C135  C     C_R   0.409780 0.396736 0.053556 -0.111594
C136  C     C_R   0.516523 0.526821 0.941796 -0.075593
C137  C     C_R   0.486813 0.548958 0.575316 0.027235
C138  C     C_R   0.456855 0.453184 0.928440 0.033236
C139  C     C_R   0.491925 0.532876 0.602134 0.412351
C140  C     C_R   0.466863 0.445948 0.901381 0.419942
C141  C     C_R   0.623206 0.537619 0.595193 0.452346
C142  C     C_R   0.592164 0.581632 0.901006 0.435225
C143  C     C_R   0.620099 0.556419 0.656111 0.301477
C144  C     C_R   0.540570 0.526278 0.840412 0.308070
C145  C     C_3   0.855123 0.596272 0.677121 0.039108
C146  C     C_R   0.415919 0.570513 0.538368 -0.138168
C147  C     C_3   0.858814 0.663373 0.695542 -0.355221
C148  C     C_3   0.841307 0.588006 0.826633 0.003283
C149  C     C_3   0.788908 0.625700 0.836167 -0.340027
C150  C     C_3   0.223986 0.670926 0.581631 0.018521
C151  C     C_3   0.292163 0.715094 0.602261 -0.319880
C152  C     C_3   0.200547 0.699490 0.920938 -0.006131
C153  C     C_3   0.259902 0.755424 0.899735 -0.333295
C154  C     C_3   0.911182 0.575538 0.612629 -0.009198
C155  C     C_3   0.937772 0.664075 0.603249 -0.358463
C156  C     C_3   0.911027 0.574763 0.889558 -0.015977
C157  C     C_R   0.387703 0.394476 0.969768 -0.137129
C158  C     C_3   0.903327 0.578220 0.919092 -0.358648
C159  C     C_3   0.594877 0.862166 0.372925 -0.002006
C160  C     C_3   0.636966 0.850579 0.396947 -0.346708
C161  C     C_3   0.353695 0.681150 0.121798 0.029889
C162  C     C_3   0.350634 0.646741 0.094384 -0.325305
C163  C     C_3   0.758761 0.109233 0.517415 0.002668
C164  C     C_3   0.818890 0.126185 0.494827 -0.392472
C165  C     C_3   0.383375 0.712867 0.971462 -0.004216
C166  C     C_3   0.379290 0.632094 0.980602 -0.352660
C167  C     C_3   0.698158 0.060697 0.688165 0.012204
C168  C     C_R   0.046220 0.475071 0.446401 -0.034541
C169  C     C_3   0.754275 0.057844 0.709564 -0.363438
C170  C     C_3   0.729019 0.110954 0.823420 0.014457
C171  C     C_3   0.820686 0.158391 0.815300 -0.352362
C172  C     C_3   0.695020 0.964736 0.574255 0.012193
C173  C     C_3   0.773690 0.981811 0.589152 -0.363210
C174  C     C_3   0.571510 0.830880 0.916634 0.016895
C175  C     C_3   0.583424 0.780656 0.895067 -0.324387
C176  C     C_3   0.266101 0.448991 0.374803 0.003743
C177  C     C_3   0.222507 0.415064 0.400846 -0.335511
C178  C     C_3   0.648531 0.581463 0.146387 -0.005420
C179  C     C_R   0.041346 0.482139 0.052690 -0.030941
C180  C     C_3   0.739647 0.622332 0.137862 -0.351452
C181  C     C_3   0.648345 0.691454 0.653978 -0.011984
C182  C     C_3   0.710579 0.779056 0.644113 -0.373969
C183  C     C_3   0.432247 0.552172 0.839044 -0.017188
C184  C     C_3   0.405960 0.616065 0.846382 -0.346470
C185  C     C_3   0.280294 0.456359 0.574055 0.027158
C186  C     C_3   0.224480 0.420130 0.597935 -0.312870
C187  C     C_3   0.334847 0.248830 0.933003 0.013897
C188  C     C_3   0.268952 0.176749 0.916474 -0.330691
C189  C     C_R   0.417139 0.551667 0.564807 0.268595
C190  C     C_R   0.390453 0.388074 0.942632 0.271520
C191  C     C_R   0.419692 0.618686 0.483445 -0.143269
C192  C     C_R   0.084041 0.517012 0.365000 0.236892
C193  C     C_R   0.407360 0.393220 0.026417 -0.145418
C194  C     C_R   0.590469 0.174260 0.712624 0.566404
C195  C     C_R   0.591873 0.176239 0.787808 0.568037
C196  C     C_R   0.824544 0.415601 0.712289 0.559272
C197  C     C_R   0.823776 0.415708 0.787811 0.576675
C198  C     C_R   0.584095 0.409023 0.712463 0.538288
C199  C     C_R   0.584243 0.409668 0.787248 0.544943
C200  C     C_R   0.983362 0.421161 0.428567 0.026196
C201  C     C_R   0.987981 0.417814 0.069966 0.027780
C202  C     C_R   0.908017 0.355023 0.438080 -0.114901
C203  C     C_R   0.076516 0.519974 0.134667 0.235155
C204  C     C_R   0.925269 0.340900 0.059715 -0.112289
C205  C     C_R   0.122635 0.541004 0.436862 0.022923
C206  C     C_R   0.103843 0.560056 0.062918 0.020578
C207  C     C_R   0.133345 0.560446 0.312904 0.011465
C208  C     C_R   0.131974 0.559872 0.186862 0.001737
C209  C     C_R   0.868268 0.426605 0.686984 -0.022108
C210  C     C_R   0.867307 0.429007 0.813156 -0.009907
C211  C     C_R   0.936301 0.394893 0.510349 0.024845
C212  C     C_R   0.949824 0.383434 0.987517 0.027984
C213  C     C_R   0.083022 0.504000 0.518949 -0.031164
C214  C     C_R   0.625800 0.526913 0.680830 -0.145840
C215  C     C_R   0.080794 0.517487 0.980571 -0.027046
C216  C     C_R   0.001834 0.445759 0.528225 0.018615
C217  C     C_R   0.008856 0.445688 0.970377 0.018757
C218  C     C_R   0.175697 0.591235 0.287610 0.546017
C219  C     C_R   0.175600 0.591130 0.212253 0.535098
C220  C     C_R   0.855096 0.341754 0.520285 -0.158406
C221  C     C_R   0.876757 0.315101 0.976548 -0.139982
C222  C     C_R   0.839512 0.335638 0.546889 -0.112440
C223  C     C_R   0.862073 0.308523 0.949763 -0.110084
C224  C     C_R   0.903860 0.383635 0.564740 0.028663
C225  C     C_R   0.551975 0.501532 0.815381 -0.163278
C226  C     C_R   0.919935 0.369202 0.932714 0.023668
C227  C     C_R   0.985611 0.438889 0.555579 -0.082107
C228  C     C_R   0.995001 0.436869 0.942842 -0.085664
C229  C     C_R   0.050591 0.487695 0.573684 0.012472
C230  C     C_R   0.054988 0.496677 0.925518 0.031859
C231  C     C_R   0.031266 0.481407 0.600658 0.449223
C232  C     C_R   0.036238 0.489129 0.898442 0.420420
C233  C     C_R   0.886972 0.379859 0.591556 0.397867
C234  C     C_R   0.902339 0.365842 0.905837 0.454680
C235  C     C_R   0.898377 0.359622 0.650877 -0.116981
C236  C     C_R   0.505694 0.390360 0.670699 -0.162236
C237  C     C_R   0.951819 0.396881 0.842343 -0.121093
C238  C     C_R   0.868346 0.356391 0.675931 -0.209454
C239  C     C_R   0.918387 0.393577 0.817538 -0.201086
C240  C     C_R   0.902497 0.502643 0.672545 0.257879
C241  C     C_R   0.851611 0.470432 0.833924 0.260682
C242  C     C_R   0.415174 0.822678 0.287978 0.545364
C243  C     C_R   0.415161 0.823373 0.212269 0.539394
C244  C     C_R   0.930366 0.504935 0.646620 0.315659
C245  C     C_R   0.882425 0.470547 0.859191 0.314438
C246  C     C_R   0.927897 0.432433 0.635876 0.197302
C247  C     C_R   0.587633 0.403201 0.835090 -0.097875
C248  C     C_R   0.932467 0.433220 0.863308 0.202421
C249  C     C_R   0.953122 0.400297 0.483130 0.016427
C250  C     C_R   0.964463 0.392600 0.015002 0.017883
C251  C     C_R   0.032212 0.463712 0.473802 0.036926
C252  C     C_R   0.031719 0.468834 0.025147 0.037683
C253  C     C_R   0.096932 0.516675 0.491585 0.019697
C254  C     C_R   0.088974 0.532228 0.008012 0.020229
C255  C     C_R   0.893141 0.344587 0.464774 -0.152191
C256  C     C_R   0.913458 0.328527 0.032843 -0.144419
C257  C     C_R   0.184956 0.594311 0.454538 -0.127832
C258  C     C_R   0.500275 0.419128 0.645947 -0.117478
C259  C     C_R   0.157700 0.623429 0.045775 -0.124242
C260  C     C_R   0.147840 0.547952 0.537416 -0.148227
C261  C     C_R   0.142400 0.572634 0.962928 -0.138020
C262  C     C_R   0.132295 0.542170 0.564265 0.248393
C263  C     C_R   0.129974 0.564040 0.935847 0.274546
C264  C     C_R   0.172680 0.582541 0.481310 -0.159232
C265  C     C_R   0.150912 0.609760 0.018921 -0.149018
C266  C     C_R   0.997079 0.435020 0.401549 0.416201
C267  C     C_R   0.999210 0.431541 0.097171 0.419965
C268  C     C_R   0.357544 0.862190 0.411095 0.449344
Cr1   Cr    Cr6+3 0.456550 0.732290 0.250000 1.024531
Cr2   Cr    Cr6+3 0.275740 0.543450 0.250000 1.019529
Cr3   Cr    Cr6+3 0.267710 0.724260 0.250000 1.029598
Cr4   Cr    Cr6+3 0.543450 0.275740 0.750000 1.021722
Cr5   Cr    Cr6+3 0.724260 0.267710 0.750000 1.021173
Cr6   Cr    Cr6+3 0.732290 0.456550 0.750000 1.011846
H1    H     H_    0.130721 0.440822 0.311028 0.128736
H2    H     H_    0.193273 0.662666 0.007119 0.098918
H3    H     H_    0.303205 0.630823 0.133737 0.135287
H4    H     H_    0.415877 0.697800 0.130541 0.159257
H5    H     H_    0.402253 0.694908 0.082307 0.184669
H6    H     H_    0.357658 0.590231 0.095381 0.088962
H7    H     H_    0.290045 0.628744 0.084683 0.180183
H8    H     H_    0.639236 0.082570 0.433863 0.155314
H9    H     H_    0.553323 0.826048 0.051646 0.155407
H10   H     H_    0.793829 0.112638 0.535457 0.202193
H11   H     H_    0.742159 0.159840 0.517892 0.109993
H12   H     H_    0.789322 0.126055 0.475878 0.142472
H13   H     H_    0.344280 0.939715 0.357295 0.138436
H14   H     H_    0.876209 0.188683 0.497576 0.111845
H15   H     H_    0.837371 0.077097 0.494228 0.168104
H16   H     H_    0.349622 0.699868 0.952377 0.178052
H17   H     H_    0.351159 0.731345 0.986260 0.116324
H18   H     H_    0.413437 0.643210 0.999469 0.161074
H19   H     H_    0.312886 0.582240 0.983383 0.109760
H20   H     H_    0.408067 0.610335 0.965718 0.179617
H21   H     H_    0.729936 0.125785 0.680006 0.143139
H22   H     H_    0.691362 0.015339 0.672547 0.125832
H23   H     H_    0.725375 0.993454 0.717883 0.156526
H24   H     H_    0.532792 0.018337 0.145078 0.142964
H25   H     H_    0.816529 0.074848 0.701333 0.085838
H26   H     H_    0.763141 0.103249 0.725386 0.166007
H27   H     H_    0.692460 0.064121 0.807778 0.134613
H28   H     H_    0.724286 0.077325 0.841981 0.126059
H29   H     H_    0.859238 0.204307 0.830779 0.169359
H30   H     H_    0.843659 0.113371 0.812317 0.086829
H31   H     H_    0.827596 0.192629 0.796751 0.161489
H32   H     H_    0.691916 0.931038 0.555755 0.154251
H33   H     H_    0.639624 0.923449 0.586571 0.126546
H34   H     H_    0.777787 0.014312 0.607927 0.173516
H35   H     H_    0.233363 0.779720 0.446271 0.163801
H36   H     H_    0.771589 0.921418 0.593376 0.086874
H37   H     H_    0.830247 0.022101 0.577292 0.153913
H38   H     H_    0.588855 0.814001 0.935618 0.159356
H39   H     H_    0.614655 0.899147 0.912748 0.128665
H40   H     H_    0.567459 0.796849 0.875784 0.188906
H41   H     H_    0.649749 0.795442 0.894764 0.118950
H42   H     H_    0.542035 0.712228 0.898555 0.183016
H43   H     H_    0.228596 0.402800 0.359232 0.114923
H44   H     H_    0.267620 0.509699 0.371078 0.184907
H45   H     H_    0.257092 0.461294 0.416707 0.183716
H46   H     H_    0.349342 0.042053 0.069171 0.165770
H47   H     H_    0.157398 0.403744 0.399926 0.103017
H48   H     H_    0.220145 0.354734 0.405385 0.160793
H49   H     H_    0.610187 0.528346 0.132691 0.157816
H50   H     H_    0.643573 0.556368 0.166530 0.125334
H51   H     H_    0.780070 0.674968 0.151332 0.168076
H52   H     H_    0.760607 0.575117 0.138196 0.105027
H53   H     H_    0.746244 0.647112 0.117681 0.174818
H54   H     H_    0.674934 0.568922 0.694129 0.117699
H55   H     H_    0.542832 0.530265 0.798141 0.110708
H56   H     H_    0.640413 0.695466 0.675432 0.121739
H57   H     H_    0.086460 0.402949 0.356471 0.118973
H58   H     H_    0.587156 0.670273 0.643871 0.164655
H59   H     H_    0.719006 0.776989 0.622674 0.161926
H60   H     H_    0.686811 0.822884 0.648237 0.095090
H61   H     H_    0.772169 0.802775 0.654059 0.153452
H62   H     H_    0.395605 0.495128 0.851344 0.170243
H63   H     H_    0.416525 0.534984 0.818055 0.126960
H64   H     H_    0.441635 0.674265 0.834666 0.166768
H65   H     H_    0.337834 0.589163 0.842496 0.124320
H66   H     H_    0.418309 0.632161 0.867490 0.179272
H67   H     H_    0.843093 0.297467 0.686415 0.145944
H68   H     H_    0.112381 0.424800 0.137873 0.133291
H69   H     H_    0.931002 0.361791 0.801828 0.124078
H70   H     H_    0.699001 0.553101 0.474465 0.111644
H71   H     H_    0.643872 0.753383 0.013855 0.107042
H72   H     H_    0.299092 0.409731 0.567788 0.105567
H73   H     H_    0.243238 0.463363 0.558055 0.140287
H74   H     H_    0.205909 0.464994 0.605623 0.234372
H75   H     H_    0.166969 0.360293 0.592574 0.079281
H76   H     H_    0.258668 0.407274 0.613529 0.175016
H77   H     H_    0.326026 0.228232 0.953779 0.096830
H78   H     H_    0.398006 0.262452 0.926290 0.161675
H79   H     H_    0.490342 0.188752 0.676616 0.135273
H80   H     H_    0.277305 0.194851 0.895520 0.198149
H81   H     H_    0.275190 0.119964 0.918822 0.106172
H82   H     H_    0.205104 0.161378 0.922720 0.150920
H83   H     H_    0.452709 0.376386 0.632312 0.130893
H84   H     H_    0.587670 0.399691 0.876942 0.151756
H85   H     H_    0.834133 0.291157 0.470399 0.100814
H86   H     H_    0.864645 0.267051 0.026654 0.111246
H87   H     H_    0.430058 0.093688 0.804742 0.134988
H88   H     H_    0.448597 0.119928 0.633744 0.147015
H89   H     H_    0.159205 0.457986 0.183405 0.132058
H90   H     H_    0.377580 0.025370 0.847249 0.141759
H91   H     H_    0.267458 0.883224 0.575276 0.150101
H92   H     H_    0.404077 0.139226 0.940705 0.133196
H93   H     H_    0.251292 0.850529 0.529723 0.102920
H94   H     H_    0.390958 0.112392 0.986206 0.099363
H95   H     H_    0.244716 0.795778 0.492790 0.106222
H96   H     H_    0.347125 0.060900 0.023182 0.107117
H97   H     H_    0.501059 0.801525 0.326431 0.129271
H98   H     H_    0.329464 0.725949 0.171962 0.110336
H99   H     H_    0.859501 0.311278 0.424847 0.164770
H100  H     H_    0.085078 0.635054 0.367218 0.142995
H101  H     H_    0.884339 0.289749 0.072506 0.165901
H102  H     H_    0.561544 0.970241 0.652043 0.120993
H103  H     H_    0.627356 0.089565 0.870186 0.136016
H104  H     H_    0.652441 0.095533 0.480435 0.143423
H105  H     H_    0.547773 0.838915 0.005372 0.173466
H106  H     H_    0.320924 0.465680 0.324437 0.125080
H107  H     H_    0.567273 0.649159 0.192578 0.135874
H108  H     H_    0.678859 0.556676 0.428717 0.166484
H109  H     H_    0.634597 0.759158 0.060258 0.164375
H110  H     H_    0.739735 0.563413 0.559163 0.149058
H111  H     H_    0.046509 0.619362 0.137957 0.140892
H112  H     H_    0.689324 0.719124 0.930556 0.142415
H113  H     H_    0.732568 0.583760 0.513619 0.106391
H114  H     H_    0.677318 0.735111 0.976265 0.103521
H115  H     H_    0.560463 0.688105 0.310787 0.134269
H116  H     H_    0.304977 0.494922 0.172932 0.137618
H117  H     H_    0.597277 0.691761 0.356983 0.128505
H118  H     H_    0.340696 0.486193 0.127992 0.143598
H119  H     H_    0.367192 0.641781 0.449459 0.159897
H120  H     H_    0.373758 0.338612 0.064275 0.163776
H121  H     H_    0.360909 0.571653 0.531652 0.112108
H122  H     H_    0.243389 0.646562 0.447681 0.164157
H123  H     H_    0.333997 0.344588 0.979570 0.120068
H124  H     H_    0.461979 0.325501 0.675717 0.139341
H125  H     H_    0.605415 0.355293 0.833275 0.158006
H126  H     H_    0.379506 0.631635 0.495528 0.103578
H127  H     H_    0.371473 0.331442 0.017688 0.103083
H128  H     H_    0.896295 0.304068 0.642688 0.154158
H129  H     H_    0.989749 0.367762 0.845555 0.140319
H130  H     H_    0.775867 0.293918 0.553403 0.169843
H131  H     H_    0.803915 0.256060 0.942471 0.159187
H132  H     H_    0.801113 0.306072 0.507899 0.099038
H133  H     H_    0.205899 0.684220 0.053088 0.167040
H134  H     H_    0.827503 0.267193 0.988237 0.108761
H135  H     H_    0.127943 0.673538 0.321790 0.141721
H136  H     H_    0.095255 0.655003 0.183279 0.142317
H137  H     H_    0.790667 0.540315 0.677681 0.139492
H138  H     H_    0.867674 0.623075 0.657232 0.165621
H139  H     H_    0.923503 0.718421 0.696144 0.164759
H140  H     H_    0.815535 0.684946 0.688561 0.111458
H141  H     H_    0.840324 0.637508 0.715570 0.159850
H142  H     H_    0.853508 0.601906 0.805485 0.160306
H143  H     H_    0.903209 0.620684 0.836864 0.088082
H144  H     H_    0.212486 0.586197 0.531674 0.112265
H145  H     H_    0.771538 0.609116 0.856973 0.200823
H146  H     H_    0.825243 0.695328 0.834324 0.095257
H147  H     H_    0.730856 0.601119 0.824214 0.168663
H148  H     H_    0.170249 0.680154 0.586729 0.150559
H149  H     H_    0.249996 0.700544 0.562372 0.110948
H150  H     H_    0.348120 0.710133 0.597093 0.174534
H151  H     H_    0.310604 0.782515 0.603499 0.124692
H152  H     H_    0.268629 0.685730 0.621659 0.201358
H153  H     H_    0.226946 0.729888 0.940185 0.100323
H154  H     H_    0.138520 0.695280 0.917817 0.128993
H155  H     H_    0.202231 0.622572 0.969665 0.091581
H156  H     H_    0.233447 0.729109 0.880133 0.182185
H157  H     H_    0.268908 0.819850 0.901363 0.091618
H158  H     H_    0.321728 0.759204 0.901880 0.207194
H159  H     H_    0.844486 0.544893 0.619068 0.152550
H160  H     H_    0.915197 0.540505 0.595556 0.147059
H161  H     H_    0.002773 0.694433 0.595533 0.155044
H162  H     H_    0.894859 0.661037 0.587413 0.112337
H163  H     H_    0.935521 0.702944 0.619552 0.162724
H164  H     H_    0.897115 0.621944 0.881013 0.133424
H165  H     H_    0.977243 0.594017 0.884789 0.133277
H166  H     H_    0.222858 0.628386 0.493456 0.098996
H167  H     H_    0.913928 0.530080 0.928599 0.160062
H168  H     H_    0.950669 0.641427 0.926570 0.088164
H169  H     H_    0.839633 0.566088 0.924229 0.172939
H170  H     H_    0.340923 0.905000 0.310487 0.133864
H171  H     H_    0.518058 0.979965 0.191872 0.130475
H172  H     H_    0.625435 0.930931 0.368805 0.167708
H173  H     H_    0.605264 0.829917 0.356156 0.108972
H174  H     H_    0.609105 0.782505 0.401349 0.164819
H175  H     H_    0.705171 0.877887 0.393350 0.099569
H176  H     H_    0.628289 0.882847 0.414062 0.175324
N1    N     N_R   0.071484 0.501216 0.392579 -0.396680
N2    N     N_R   0.493258 0.556052 0.106622 -0.386048
N3    N     N_R   0.558770 0.526154 0.611493 -0.381865
N4    N     N_R   0.536062 0.507748 0.888510 -0.376216
N5    N     N_R   0.060816 0.508282 0.106892 -0.387733
N6    N     N_R   0.949859 0.430132 0.608988 -0.396514
N7    N     N_R   0.958761 0.427513 0.889404 -0.379719
N8    N     N_R   0.426982 0.910415 0.395751 -0.363521
N9    N     N_R   0.451109 0.914758 0.104508 -0.363788
N10   N     N_R   0.492482 0.012507 0.613105 -0.390144
N11   N     N_R   0.470972 0.019562 0.887380 -0.385520
N12   N     N_R   0.498165 0.592359 0.395143 -0.368376
O1    O     O_R   0.475290 0.813700 0.278840 -0.514443
O2    O     O_2   0.437970 0.120377 0.895449 -0.530449
O3    O     O_2   0.560630 0.017069 0.392768 -0.533063
O4    O     O_2   0.524877 0.848688 0.097590 -0.495822
O5    O     O_2   0.632507 0.072664 0.608340 -0.468173
O6    O     O_2   0.495678 0.912662 0.880967 -0.498751
O7    O     O_2   0.603304 0.564519 0.389379 -0.513525
O8    O     O_2   0.571960 0.697754 0.103522 -0.449715
O9    O     O_2   0.681877 0.531404 0.603879 -0.519063
O10   O     O_2   0.651565 0.636575 0.888967 -0.527380
O11   O     O_2   0.400113 0.628972 0.403204 -0.469222
O12   O     O_R   0.475290 0.813700 0.221160 -0.495222
O13   O     O_2   0.419314 0.413799 0.106802 -0.524837
O14   O     O_2   0.437180 0.524888 0.617260 -0.484371
O15   O     O_2   0.415309 0.383829 0.889234 -0.484302
O16   O     O_R   0.448450 0.657720 0.276690 -0.497374
O17   O     O_R   0.448450 0.657720 0.223310 -0.491575
O18   O     O_R   0.524710 0.338410 0.721160 -0.510810
O19   O     O_R   0.524710 0.338410 0.778840 -0.501671
O20   O     O_R   0.551550 0.209270 0.723310 -0.505185
O21   O     O_R   0.551550 0.209270 0.776690 -0.502339
O22   O     O_R   0.661590 0.186300 0.721160 -0.482132
O23   O     O_2   0.201152 0.609784 0.401374 -0.465035
O24   O     O_R   0.661590 0.186300 0.778840 -0.469663
O25   O     O_R   0.790730 0.342280 0.723310 -0.514848
O26   O     O_R   0.790730 0.342280 0.776690 -0.486086
O27   O     O_R   0.813700 0.475290 0.721160 -0.481937
O28   O     O_R   0.813700 0.475290 0.778840 -0.500687
O29   O     O_R   0.657720 0.448450 0.723310 -0.510927
O30   O     O_R   0.657720 0.448450 0.776690 -0.479289
O31   O     O_3   0.666667 0.333333 0.750000 -0.237384
O32   O     O_R   0.338410 0.524710 0.278840 -0.510289
O33   O     O_R   0.338410 0.524710 0.221160 -0.506464
O34   O     O_2   0.163377 0.641570 0.099023 -0.493567
O35   O     O_R   0.209270 0.551550 0.276690 -0.497273
O36   O     O_R   0.209270 0.551550 0.223310 -0.499094
O37   O     O_R   0.186300 0.661590 0.278840 -0.510195
O38   O     O_R   0.186300 0.661590 0.221160 -0.508724
O39   O     O_R   0.342280 0.790730 0.276690 -0.488717
O40   O     O_R   0.342280 0.790730 0.223310 -0.489104
O41   O     O_3   0.333333 0.666667 0.250000 -0.236660
O42   O     O_2   0.942545 0.389074 0.385982 -0.510807
O43   O     O_2   0.953947 0.375524 0.112240 -0.514829
O44   O     O_2   0.815601 0.333544 0.599424 -0.502457
O45   O     O_2   0.086181 0.522103 0.616764 -0.449765
O46   O     O_2   0.836022 0.309133 0.897051 -0.493433
O47   O     O_3   0.917017 0.576365 0.684733 -0.517601
O48   O     O_3   0.796012 0.499786 0.830587 -0.524469
O49   O     O_3   0.199217 0.584618 0.581335 -0.515501
O50   O     O_3   0.193503 0.619213 0.919442 -0.512052
O51   O     O_3   0.965916 0.580198 0.632952 -0.520303
O52   O     O_3   0.851268 0.493511 0.880367 -0.515322
O53   O     O_3   0.508251 0.826651 0.377906 -0.517601
O54   O     O_3   0.340196 0.750553 0.120149 -0.508902
O55   O     O_3   0.686743 0.028317 0.514253 -0.561913
O56   O     O_2   0.087263 0.538890 0.882950 -0.489132
O57   O     O_3   0.468199 0.776112 0.968725 -0.572653
O58   O     O_3   0.619035 0.038376 0.698913 -0.545412
O59   O     O_3   0.700733 0.169088 0.826827 -0.521808
O60   O     O_3   0.698822 0.042103 0.568915 -0.524890
O61   O     O_3   0.486742 0.810832 0.916706 -0.512076
O62   O     O_3   0.347276 0.458723 0.375999 -0.541575
O63   O     O_3   0.622995 0.642299 0.145929 -0.513081
O64   O     O_3   0.679596 0.636743 0.648633 -0.548755
O65   O     O_3   0.519398 0.588252 0.843291 -0.538099
O66   O     O_3   0.349673 0.536194 0.580481 -0.493136
O67   O     O_2   0.291518 0.809893 0.400901 -0.484426
O68   O     O_3   0.325034 0.319923 0.929944 -0.509767
O69   O     O_2   0.382884 0.987364 0.109224 -0.507930
O70   O     O_2   0.351541 0.949022 0.615677 -0.527580

loop_
_geom_bond_atom_site_label_1
_geom_bond_atom_site_label_2
_ccdc_geom_bond_type
C198  O18   A    
C63   C65   A    
C213  C253  A    
C209  C240  A    
C243  O40   A    
C121  C192  A    
C186  H76   S    
C223  C226  A    
C85   H104  S    
C39   C41   A    
C229  C262  A    
C175  H40   S    
C211  C220  A    
C21   C76   A    
C176  H43   S    
C23   O23   D    
C154  O51   S    
C177  H47   S    
C241  C245  A    
C11   H171  S    
C161  H4    S    
C12   H13   S    
C88   C108  A    
C213  C216  A    
C58   C60   A    
C77   H96   S    
C240  C244  A    
C61   C63   A    
C235  H128  S    
C80   C86   A    
Cr3   O39   S    
C221  H134  S    
C5    N9    Am   
C68   C90   A    
Cr1   O1    S    
C34   C81   A    
C151  H151  S    
C33   C69   A    
C119  C128  A    
C142  O10   D    
C79   C191  A    
C199  O30   A    
C41   C43   A    
C31   C62   A    
C150  O49   S    
C42   C44   A    
C255  H85   S    
C50   C83   A    
C58   H90   S    
C220  H132  S    
Cr4   O19   S    
C238  H67   S    
C127  C136  A    
C22   C77   A    
C23   N1    Am   
C99   C116  A    
Cr6   O29   S    
C123  C126  A    
C117  C236  A    
C218  O37   A    
C215  C254  A    
C160  H175  S    
C64   C66   A    
C122  C203  A    
C224  C233  A    
C183  H62   S    
C183  H63   S    
C143  O64   S    
C43   C54   A    
C10   H170  S    
C162  H5    S    
C182  H59   S    
C147  H141  S    
C92   C94   A    
C29   C243  S    
C209  C238  A    
C230  C232  A    
C169  H25   S    
C154  C155  S    
C232  O56   D    
C149  H145  S    
C148  H143  S    
C54   O70   D    
C73   C208  A    
C249  C255  A    
C123  C146  A    
C82   C84   A    
C62   O59   S    
C8    C28   A    
C49   C73   A    
C140  O15   D    
C185  H72   S    
C37   C45   A    
C25   C206  A    
C131  H112  S    
C219  O38   A    
C121  H57   S    
C261  C263  A    
C194  O22   A    
C18   C71   A    
C168  C251  A    
Cr3   O38   S    
C8    H97   S    
C111  C124  A    
C145  H138  S    
C170  H27   S    
C73   H136  S    
C52   O5    D    
C53   N11   Am   
C94   C115  A    
C180  H51   S    
C16   N9    S    
C236  C258  A    
C33   C38   A    
C56   C59   A    
C110  H109  S    
C129  H114  S    
C156  C158  S    
C31   C195  S    
C179  C252  A    
C44   C55   A    
C145  O47   S    
C90   C193  A    
C45   C50   A    
C202  H99   S    
C236  H124  S    
C125  C157  A    
C55   N11   Am   
C267  N5    Am   
C217  C228  A    
C119  C126  A    
C159  H173  S    
C87   C107  A    
C160  H174  S    
C80   H9    S    
C132  C134  A    
C245  C248  A    
C234  O46   D    
C125  C127  A    
C1    C115  S    
C25   O34   D    
C250  C252  A    
C153  H156  S    
C124  C191  A    
C13   N3    S    
C195  O24   A    
C165  H16   S    
C166  H19   S    
C191  H126  S    
C243  O12   A    
C223  H131  S    
C69   C77   A    
C89   N12   Am   
Cr1   O16   S    
C104  N2    S    
Cr6   O27   S    
C167  C169  S    
C248  N7    S    
C105  C107  A    
C133  C142  A    
C26   C78   A    
C96   C121  A    
C259  C265  A    
C19   C21   A    
C154  H160  S    
Cr2   O33   S    
C204  C256  A    
C112  O17   A    
C32   C39   A    
C170  C171  S    
C175  H41   S    
C147  H139  S    
C173  H37   S    
C181  O64   S    
C174  H38   S    
C174  C175  S    
C159  O53   S    
C72   H135  S    
C5    C27   A    
C171  H29   S    
C83   O60   S    
C47   C51   A    
C244  O51   S    
C61   O58   S    
C62   C64   A    
C197  O28   A    
C139  N3    Am   
C3    O69   D    
C1    O32   A    
C4    N8    Am   
C156  O52   S    
C181  H56   S    
C219  O36   A    
C264  H166  S    
C208  C219  S    
C40   C42   A    
C211  C216  A    
C93   C95   A    
C30   C59   A    
C91   N2    Am   
C65   N10   S    
C48   C72   A    
C54   N10   Am   
C150  H149  S    
C81   C83   A    
C250  C256  A    
C33   C40   A    
C101  H70   S    
C22   H46   S    
C120  C129  A    
C27   C80   A    
C86   H105  S    
C241  O48   S    
C258  H83   S    
C60   H87   S    
C51   C53   A    
C135  H120  S    
C98   H106  S    
C46   C68   A    
C36   C75   A    
C178  H49   S    
C50   C52   A    
C103  N12   S    
C95   C116  A    
C93   H118  S    
C158  H169  S    
C141  O9    D    
C46   C120  A    
C99   H107  S    
C32   C37   A    
C222  C224  A    
C43   C45   A    
C153  H158  S    
C126  C134  A    
C88   O8    D    
C184  H65   S    
C32   C67   A    
C78   C85   A    
C200  C202  A    
C227  C229  A    
Cr4   O31   S    
C213  C260  A    
C146  H121  S    
C235  C238  A    
C144  C225  A    
C30   C61   A    
C266  O42   D    
C177  H48   S    
C212  C250  A    
C151  H150  S    
C112  C116  S    
C148  H142  S    
C162  H7    S    
C132  C141  A    
C140  N4    Am   
C172  O60   S    
C46   C113  A    
C139  O14   D    
C122  H68   S    
C225  H55   S    
C165  O57   S    
C201  C267  A    
C176  H44   S    
C226  C234  A    
C91   C114  A    
C164  H12   S    
C14   H24   S    
C67   C70   A    
C210  C239  A    
C24   N4    S    
C161  H3    S    
C266  N1    Am   
C170  O59   S    
C142  N4    Am   
C98   C115  A    
C141  N3    Am   
C156  H165  S    
C244  C246  A    
C262  O49   S    
C14   C16   A    
C74   C85   A    
C256  H86   S    
C242  O39   A    
C187  H78   S    
C144  O65   S    
C163  H10   S    
C152  H153  S    
C168  C205  A    
C48   H100  S    
C49   H111  S    
C117  C198  S    
C84   O61   S    
Cr5   O31   S    
C206  C259  A    
C49   C203  A    
C184  H64   S    
C25   N5    Am   
C263  O50   S    
C34   C37   A    
C196  O25   A    
C112  O33   A    
C163  O55   S    
C134  C137  A    
C228  C230  A    
C161  C162  S    
C87   O7    D    
Cr4   O21   S    
C180  H53   S    
C181  C182  S    
C137  C139  A    
Cr4   O20   S    
C267  O43   D    
C28   C242  S    
Cr5   O22   S    
Cr6   O30   S    
C92   H117  S    
C212  C217  A    
C101  C109  A    
C158  H167  S    
C167  H22   S    
C15   N8    S    
C155  H162  S    
C160  H176  S    
C197  O26   A    
C57   C79   A    
C157  C190  A    
C197  C210  S    
Cr2   O36   S    
C9    H98   S    
C186  H74   S    
C179  C201  A    
C182  H60   S    
C130  H110  S    
C146  C189  A    
C268  N8    Am   
Cr1   O12   S    
C235  C246  A    
Cr6   O31   S    
C188  H81   S    
C157  H123  S    
C105  C111  A    
C21   H35   S    
C63   H102  S    
C107  C109  A    
C145  C147  S    
C186  H75   S    
C167  O58   S    
Cr5   O25   S    
Cr3   O37   S    
C120  C127  A    
C164  H14   S    
C193  H127  S    
C145  H137  S    
C170  H28   S    
C162  H6    S    
C118  C247  A    
C96   C207  A    
C6    C8    A    
C89   O11   D    
C100  C103  A    
C214  H54   S    
C174  O61   S    
C31   C60   A    
C130  C132  A    
C148  O48   S    
C245  O52   S    
C102  O63   S    
C199  O19   A    
C88   N2    Am   
C189  O66   S    
C159  C160  S    
C12   C15   A    
C231  O45   D    
C232  N7    Am   
C3    C20   A    
C234  N7    Am   
C5    O4    D    
C257  H122  S    
C34   C74   A    
C196  C209  S    
C113  H71   S    
C7    C16   A    
C20   C22   A    
C184  H66   S    
C98   C100  A    
C198  O29   A    
Cr4   O18   S    
C196  O27   A    
C2    H84   S    
C224  C227  A    
C82   O57   S    
C247  H125  S    
C252  C254  A    
Cr2   O41   S    
C218  O35   A    
C10   C28   A    
C166  H20   S    
C207  C218  S    
C188  H82   S    
C168  C200  A    
C259  H133  S    
C187  H77   S    
C210  C241  A    
C185  H73   S    
C35   C101  A    
C128  C130  A    
C268  O67   D    
C178  C180  S    
Cr5   O24   S    
Cr6   O28   S    
C35   C57   A    
C246  N6    S    
C39   H93   S    
C187  C188  S    
C229  C231  A    
C242  O1    A    
C185  C186  S    
C30   C194  S    
C24   C144  A    
C59   H79   S    
C172  H33   S    
C11   C14   A    
C90   C125  A    
C173  H36   S    
C13   C143  A    
C174  H39   S    
C117  C214  A    
C169  H26   S    
C48   C192  A    
C183  O65   S    
C192  N1    S    
C124  H119  S    
C99   C102  A    
C149  H147  S    
C152  O50   S    
C156  H164  S    
C261  H155  S    
C100  O62   S    
C51   C84   A    
C6    O53   S    
C57   C105  A    
C163  H11   S    
C254  C265  A    
C165  C166  S    
C257  C264  A    
C215  C261  A    
C35   C119  A    
C163  C164  S    
C2    C247  A    
C220  C222  A    
C76   H95   S    
C149  H146  S    
C205  C257  A    
C56   H88   S    
C237  H129  S    
C106  C108  A    
C106  C114  A    
C17   C26   A    
C161  O54   S    
C215  C217  A    
C222  H130  S    
C164  H15   S    
C87   N12   Am   
C251  C253  A    
C180  H52   S    
C56   C65   A    
Cr2   O35   S    
C128  H113  S    
C69   C71   A    
C70   C74   A    
C78   H8    S    
C265  H2    S    
C75   C86   A    
C92   C103  A    
C6    C15   A    
C178  H50   S    
C58   C66   A    
C202  C255  A    
C108  C110  A    
C233  O44   D    
C133  C136  A    
C114  C135  A    
Cr3   O40   S    
C177  H45   S    
C153  H157  S    
C44   C47   A    
C195  O21   A    
C165  H17   S    
C173  H34   S    
C166  H18   S    
C42   H92   S    
C179  C206  A    
C17   C70   A    
C97   C208  A    
C138  C190  A    
C68   C106  A    
Cr1   O17   S    
C53   O6    D    
C118  C199  S    
C93   C104  A    
Cr5   O26   S    
C72   C207  A    
C188  H80   S    
C212  C221  A    
C118  C225  A    
C167  H21   S    
C4    C26   A    
C249  C251  A    
C216  C227  A    
C176  O62   S    
C97   H89   S    
C187  O68   S    
C109  H108  S    
C148  C149  S    
C260  C262  A    
C190  O68   S    
C154  H159  S    
C36   C82   A    
Cr2   O32   S    
C175  H42   S    
C147  H140  S    
C79   C123  A    
C211  C249  A    
C237  C248  A    
C13   C258  A    
C183  C184  S    
C81   O55   S    
C97   C122  A    
C55   O2    D    
C203  N5    S    
C135  C193  A    
C3    N9    Am   
C171  H30   S    
C155  H163  S    
C240  O47   S    
C40   H94   S    
C152  C153  S    
C102  C104  A    
C151  H152  S    
C110  C113  A    
C38   C47   A    
C10   C12   A    
C143  C214  A    
C137  C189  A    
C253  C264  A    
C176  C177  S    
Cr1   O41   S    
Cr3   O41   S    
C226  C228  A    
C231  N6    Am   
C237  C239  A    
C2    C24   A    
C152  H154  S    
C201  C204  A    
C260  H144  S    
C204  H101  S    
C150  H148  S    
C94   H115  S    
C172  C173  S    
C136  C138  A    
C96   H1    S    
C230  C263  A    
C171  H31   S    
C185  O66   S    
C150  C151  S    
C18   C27   A    
C239  H69   S    
C131  C133  A    
C91   O13   D    
C181  H58   S    
C138  C140  A    
C9    C29   A    
C89   C111  A    
C178  O63   S    
C221  C223  A    
C41   H91   S    
C36   C38   A    
C71   C75   A    
C159  H172  S    
C194  O20   A    
C158  H168  S    
C200  C266  A    
C17   C19   A    
C155  H161  S    
C18   C20   A    
C233  N6    Am   
C7    O54   S    
C7    C9    A    
C11   C29   A    
C182  H61   S    
C172  H32   S    
C66   N11   S    
C19   C268  A    
C67   C76   A    
C52   N10   Am   
C169  H23   S    
C95   H116  S    
C23   C205  A    
C4    O3    D    
C64   H103  S    
C1    O16   A    
C129  C131  A    
