data_mof_unit_50657.cif
_audit_creation_date              2012-12-11T14:19:21-0500
_audit_creation_method            fapswitch 2.2
_symmetry_space_group_name_H-M    P1
_symmetry_Int_Tables_number       1
_space_group_crystal_system       triclinic
_cell_length_a                    19.35558
_cell_length_b                    7.250925
_cell_length_c                    17.73995
_cell_angle_alpha                 90.000331
_cell_angle_beta                  107.687608
_cell_angle_gamma                 89.998969
_cell_volume                      2372.0321199

loop_
_atom_site_label
_atom_site_type_symbol
_atom_type_description
_atom_site_fract_x
_atom_site_fract_y
_atom_site_fract_z
_atom_type_partial_charge
O1    O     O_R   0.414820 0.494320 0.416790 -0.540983
O2    O     O_R   0.585180 0.994320 0.583210 -0.540980
O3    O     O_R   0.560270 0.819500 0.430140 -0.541427
O4    O     O_R   0.439730 0.319500 0.569860 -0.541421
C1    C     C_R   0.581479 0.655506 0.415310 0.710654
C2    C     C_R   0.418518 0.155509 0.584686 0.710659
O5    O     O_R   0.413840 0.823740 0.407440 -0.537513
O6    O     O_R   0.586160 0.323740 0.592560 -0.537512
O7    O     O_R   0.437710 0.998590 0.560350 -0.537749
O8    O     O_R   0.562290 0.498590 0.439650 -0.537747
C3    C     C_R   0.387317 0.654974 0.385647 0.732938
C4    C     C_R   0.612682 0.154973 0.614354 0.732913
O9    O     O_3   0.508000 0.662290 0.550200 -0.379839
O10   O     O_3   0.492000 0.162290 0.449800 -0.379842
V1    V     V_3+5 0.498520 0.935380 0.490690 1.394939
V2    V     V_3+5 0.501480 0.435380 0.509310 1.394941
C5    C     C_2   0.790865 0.270699 0.781207 -0.142884
C6    C     C_2   0.209114 0.770687 0.218818 -0.142994
C7    C     C_2   0.820648 0.112723 0.816847 -0.302241
C8    C     C_2   0.179349 0.612716 0.183157 -0.302175
H1    H     H_    0.817726 0.400681 0.802138 0.138660
H2    H     H_    0.182238 0.900664 0.197902 0.138640
H3    H     H_    0.796021 0.980674 0.796280 0.128295
H4    H     H_    0.203990 0.480669 0.203708 0.128295
C9    C     C_2   0.722060 0.283534 0.714252 -0.141578
C10   C     C_2   0.277921 0.783527 0.285769 -0.141601
C11   C     C_2   0.680155 0.138534 0.681489 -0.304508
C12   C     C_2   0.319843 0.638536 0.318513 -0.304419
H5    H     H_    0.705619 0.420928 0.691428 0.138726
H6    H     H_    0.294349 0.920914 0.308607 0.138705
H7    H     H_    0.695757 0.000044 0.702656 0.130839
H8    H     H_    0.304252 0.500050 0.297334 0.130826
C13   C     C_R   0.310730 0.272401 0.619641 -0.242781
C14   C     C_R   0.689250 0.772436 0.380336 -0.242815
C15   C     C_R   0.368676 0.147474 0.633272 -0.076703
C16   C     C_R   0.631320 0.647466 0.366723 -0.076670
C17   C     C_R   0.378286 0.013798 0.692436 -0.216855
C18   C     C_R   0.621729 0.513744 0.307578 -0.216858
C19   C     C_R   0.332192 0.008239 0.739891 0.104702
C20   C     C_R   0.667822 0.508182 0.260122 0.104687
C21   C     C_R   0.273678 0.133381 0.726303 0.033649
C22   C     C_R   0.726323 0.633360 0.273697 0.033620
C23   C     C_R   0.261401 0.264566 0.664254 0.073793
C24   C     C_R   0.738586 0.764578 0.335733 0.073692
C25   C     C_R   0.343692 0.878206 0.800606 -0.204611
C26   C     C_R   0.656336 0.378112 0.199420 -0.204602
C27   C     C_R   0.299656 0.875338 0.849832 -0.197585
C28   C     C_R   0.700370 0.375249 0.150192 -0.197497
C29   C     C_R   0.242110 0.001999 0.839477 0.087833
C30   C     C_R   0.757902 0.501952 0.160533 0.087847
C31   C     C_R   0.227550 0.126578 0.774894 0.013766
C32   C     C_R   0.772452 0.626560 0.225107 0.013730
C33   C     C_R   0.167714 0.246438 0.759568 0.070380
C34   C     C_R   0.832277 0.746453 0.240423 0.070365
C35   C     C_R   0.154044 0.371085 0.696440 -0.207482
C36   C     C_R   0.845939 0.871115 0.303547 -0.207437
C37   C     C_R   0.199885 0.382249 0.648480 0.079399
C38   C     C_R   0.800098 0.882270 0.351507 0.079417
C39   C     C_R   0.199348 0.008874 0.892264 0.037844
C40   C     C_R   0.800662 0.508836 0.107744 0.037822
C41   C     C_R   0.135345 0.118921 0.871647 -0.096595
C42   C     C_R   0.864655 0.618922 0.128352 -0.096605
C43   C     C_R   0.121187 0.238145 0.806479 -0.233541
C44   C     C_R   0.878803 0.738169 0.193511 -0.233547
H9    H     H_    0.304130 0.372349 0.572783 0.130317
H10   H     H_    0.695830 0.872446 0.427170 0.130385
H11   H     H_    0.422841 0.916763 0.702721 0.120463
H12   H     H_    0.577186 0.416678 0.297307 0.120467
H13   H     H_    0.387555 0.779284 0.810742 0.127869
H14   H     H_    0.612484 0.279159 0.189294 0.127846
H15   H     H_    0.311307 0.771658 0.895693 0.133274
H16   H     H_    0.688732 0.271530 0.104342 0.133220
H17   H     H_    0.073423 0.325409 0.792315 0.127846
H18   H     H_    0.926560 0.825457 0.207669 0.127856
H19   H     H_    0.107265 0.461323 0.684571 0.121660
H20   H     H_    0.892713 0.961365 0.315417 0.121661
O11   O     O_R   0.937810 0.773680 0.060480 -0.533377
O12   O     O_R   0.062190 0.273680 0.939520 -0.533377
O13   O     O_R   0.086190 0.439740 0.092580 -0.541410
O14   O     O_R   0.913810 0.939740 0.907420 -0.541408
C45   C     C_R   0.112211 0.608255 0.115032 0.732377
C46   C     C_R   0.887788 0.108257 0.884970 0.732391
O15   O     O_R   0.939760 0.444210 0.069890 -0.542755
O16   O     O_R   0.060240 0.944210 0.930110 -0.542750
O17   O     O_R   0.914790 0.269640 0.916760 -0.539390
O18   O     O_R   0.085210 0.769640 0.083240 -0.539390
C47   C     C_R   0.917518 0.612200 0.082833 0.689454
C48   C     C_R   0.082482 0.112198 0.917167 0.689452
O19   O     O_3   0.992050 0.601530 0.949880 -0.378524
O20   O     O_3   0.007950 0.101530 0.050120 -0.378528
V3    V     V_3+5 0.001480 0.328340 0.009300 1.391009
V4    V     V_3+5 0.998520 0.828340 0.990700 1.391016
C49   C     C_3   0.179397 0.515506 0.579401 -0.374610
C50   C     C_3   0.222719 0.695394 0.599385 -0.280982
C51   C     C_3   0.205517 0.822636 0.527543 -0.769131
H21   H     H_    0.220270 0.755240 0.478345 0.226037
H22   H     H_    0.146915 0.857819 0.507581 0.225752
H23   H     H_    0.237075 0.951954 0.543235 0.228844
H24   H     H_    0.208628 0.766822 0.648191 0.206446
H25   H     H_    0.281872 0.666645 0.619406 0.200817
H26   H     H_    0.186820 0.449400 0.525903 0.169577
H27   H     H_    0.120660 0.549587 0.563429 0.170622
C52   C     C_3   0.820585 0.015492 0.420597 -0.374603
C53   C     C_3   0.777305 0.195450 0.400602 -0.280892
C54   C     C_3   0.794315 0.322396 0.472534 -0.768707
H28   H     H_    0.779165 0.254962 0.521500 0.225891
H29   H     H_    0.852979 0.357094 0.492886 0.225679
H30   H     H_    0.762948 0.452005 0.456755 0.228795
H31   H     H_    0.791580 0.267087 0.351948 0.206312
H32   H     H_    0.718142 0.166759 0.380355 0.200842
H33   H     H_    0.813123 0.949384 0.474076 0.169630
H34   H     H_    0.879334 0.049484 0.436607 0.170501
C55   C     C_3   0.226893 0.919970 0.974094 -0.357851
C56   C     C_3   0.296202 0.017342 0.024671 -0.328699
C57   C     C_3   0.319100 0.949819 0.110064 -0.757634
H35   H     H_    0.278898 0.995516 0.139288 0.226912
H36   H     H_    0.323620 0.796985 0.112410 0.237907
H37   H     H_    0.372572 0.010060 0.142771 0.214920
H38   H     H_    0.341746 0.993189 0.000145 0.203175
H39   H     H_    0.286569 0.168613 0.024513 0.196257
H40   H     H_    0.186843 0.929293 0.007079 0.188716
H41   H     H_    0.236524 0.770297 0.968798 0.162598
C58   C     C_3   0.773120 0.419912 0.025916 -0.357812
C59   C     C_3   0.703783 0.517212 0.975335 -0.328585
C60   C     C_3   0.680979 0.450016 0.889893 -0.757997
H42   H     H_    0.721130 0.496253 0.860723 0.226836
H43   H     H_    0.676634 0.297205 0.887442 0.238081
H44   H     H_    0.627457 0.509937 0.857199 0.214978
H45   H     H_    0.658219 0.492701 0.999791 0.203140
H46   H     H_    0.713338 0.668533 0.975600 0.196310
H47   H     H_    0.813169 0.429290 0.992927 0.188769
H48   H     H_    0.763512 0.270214 0.031217 0.162531

loop_
_geom_bond_atom_site_label_1
_geom_bond_atom_site_label_2
_ccdc_geom_bond_type
O15   C47   A    
O11   V4    S    
O4    V2    S    
C49   C50   S    
C36   H20   S    
C58   H48   S    
C7    H3    S    
C51   H21   S    
O1    C3    A    
O11   C47   A    
O2    C4    A    
C14   H10   S    
C2    O7    A    
C56   C57   S    
O17   V3    S    
C51   H23   S    
C13   H9    S    
C58   C59   S    
C27   C29   A    
C20   C26   A    
C54   H29   S    
C50   H24   S    
C52   H33   S    
C15   C17   A    
C53   H31   S    
C57   H35   S    
C1    C16   S    
C2    C15   S    
C40   C42   A    
C25   C27   A    
C41   C43   A    
C42   C44   A    
C5    C7    D    
C55   H41   S    
C8    H4    S    
C24   C38   A    
C29   C31   A    
C6    C10   S    
C60   H44   S    
C30   C32   A    
C7    C46   S    
O13   V3    S    
C56   H38   S    
C39   C55   S    
C19   C25   A    
C35   H19   S    
C28   C30   A    
O6    V2    S    
C18   C20   A    
C37   C49   S    
C8    C45   S    
C21   C23   A    
C22   C24   A    
C28   H16   S    
C53   C54   S    
C32   C34   A    
C34   C36   A    
C33   C35   A    
C9    H5    S    
C54   H30   S    
C26   C28   A    
C39   C41   A    
C4    C11   S    
C25   H13   S    
C13   C23   A    
C12   H8    S    
C14   C24   A    
C19   C21   A    
C49   H26   S    
O13   C45   A    
O5    V1    S    
C43   H17   S    
C57   H36   S    
C11   H7    S    
C5    H1    S    
C52   H34   S    
C31   C33   A    
O14   V4    S    
C40   C58   S    
O5    C3    A    
C41   C48   S    
C50   H25   S    
O6    C4    A    
C57   H37   S    
C45   O18   A    
C59   H46   S    
O1    V2    S    
O19   V4    S    
O2    V1    S    
C27   H15   S    
O4    C2    A    
C18   H12   S    
C10   H6    S    
C35   C37   A    
C60   H42   S    
O3    V1    S    
C55   C56   S    
C42   C47   S    
O12   C48   A    
C58   H47   S    
C6    H2    S    
O16   C48   A    
O3    C1    A    
C49   H27   S    
C51   H22   S    
O12   V3    S    
C9    C11   D    
C46   O17   A    
O15   V3    S    
C54   H28   S    
C10   C12   D    
C29   C39   A    
C30   C40   A    
C16   C18   A    
O7    V1    S    
C5    C9    S    
C1    O8    A    
C17   C19   A    
O8    V2    S    
C53   H32   S    
C33   C43   A    
O20   V3    S    
C34   C44   A    
C3    C12   S    
C17   H11   S    
C20   C22   A    
C13   C15   A    
O14   C46   A    
C36   C38   A    
C59   H45   S    
C6    C8    D    
C50   C51   S    
C26   H14   S    
C23   C37   A    
C55   H40   S    
C14   C16   A    
O9    V2    S    
C52   C53   S    
C60   H43   S    
C44   H18   S    
O10   V1    S    
O18   V4    S    
C38   C52   S    
O16   V4    S    
C21   C31   A    
C56   H39   S    
C22   C32   A    
C59   C60   S    
