data_mof_unit_50258.cif
_audit_creation_date              2012-12-10T17:31:04-0500
_audit_creation_method            fapswitch 2.2
_symmetry_space_group_name_H-M    P1
_symmetry_Int_Tables_number       1
_space_group_crystal_system       triclinic
_cell_length_a                    11.97066
_cell_length_b                    12.965068
_cell_length_c                    15.417833
_cell_angle_alpha                 87.828114
_cell_angle_beta                  115.314748
_cell_angle_gamma                 92.40642
_cell_volume                      2160.63988572

loop_
_atom_site_label
_atom_site_type_symbol
_atom_type_description
_atom_site_fract_x
_atom_site_fract_y
_atom_site_fract_z
_atom_type_partial_charge
C1    C     C_R   0.478021 0.299428 0.497213 0.923036
C2    C     C_R   0.663288 0.961514 0.548092 0.703043
C3    C     C_R   0.348152 0.141269 0.461398 -0.376530
C4    C     C_R   0.649919 0.855914 0.542579 -0.340828
C5    C     C_R   0.569868 0.129177 0.509924 0.480261
C6    C     C_R   0.425721 0.869632 0.458225 0.495916
C7    C     C_R   0.557705 0.022252 0.511539 -0.250324
C8    C     C_R   0.437759 0.975481 0.472837 -0.221150
C9    C     C_R   0.991399 0.574482 0.392792 -0.270653
C10   C     C_R   0.009161 0.427325 0.608208 -0.282519
C11   C     C_R   0.114711 0.569980 0.405441 0.113008
C12   C     C_R   0.520598 0.700034 0.498901 0.930071
C13   C     C_R   0.885718 0.431271 0.595374 0.108464
C14   C     C_R   0.167778 0.472107 0.549647 -0.021780
C15   C     C_R   0.832322 0.528594 0.450676 -0.031010
C16   C     C_R   0.576403 0.496194 0.680816 0.935851
C17   C     C_R   0.424003 0.506547 0.318991 0.906866
C18   C     C_R   0.044864 0.474835 0.540215 0.064605
C19   C     C_R   0.955425 0.526439 0.460437 0.048771
C20   C     C_R   0.624697 0.512033 0.784233 -0.350782
C21   C     C_R   0.379368 0.525787 0.215036 -0.329148
C22   C     C_R   0.784475 0.576436 0.933088 -0.202112
C23   C     C_R   0.644831 0.612303 0.102137 -0.221802
C24   C     C_R   0.216779 0.569384 0.058511 -0.207572
C25   C     C_R   0.748071 0.544343 0.839302 0.573668
C26   C     C_R   0.254549 0.546521 0.155975 0.538454
C27   C     C_R   0.539958 0.509257 0.825135 0.423815
C28   C     C_R   0.465775 0.530930 0.175334 0.367025
C29   C     C_R   0.570452 0.559507 0.911516 -0.057985
C30   C     C_R   0.431116 0.569422 0.081413 -0.080269
C31   C     C_R   0.696478 0.584307 0.969921 -0.141680
C32   C     C_R   0.303876 0.578285 0.020068 -0.145114
C33   C     C_R   0.480382 0.577053 0.945132 0.004422
C34   C     C_R   0.353451 0.586610 0.883648 -0.206839
C35   C     C_R   0.519437 0.586616 0.044100 -0.002216
C36   C     C_3   0.581194 0.387941 0.201977 0.120333
C37   C     C_3   0.713538 0.352981 0.238593 -0.827201
C38   C     C_3   0.444698 0.348606 0.799484 0.120058
C39   C     C_3   0.440964 0.316685 0.894564 -0.862007
C40   C     C_3   0.298160 0.811801 0.309212 0.078838
C41   C     C_3   0.162171 0.814089 0.239106 -0.615862
C42   C     C_3   0.697098 0.173041 0.437965 0.154325
C43   C     C_3   0.832866 0.188177 0.458869 -0.733359
C44   C     C_R   0.731886 0.614602 0.064432 0.632023
C45   C     C_R   0.266491 0.591684 0.921105 0.641953
C46   C     C_R   0.532302 0.810176 0.497990 -0.299404
C47   C     C_R   0.465330 0.188428 0.490713 -0.282336
C48   C     C_R   0.333270 0.035812 0.448605 0.715292
F1    F     F_    0.851496 0.640418 0.121978 -0.674068
F2    F     F_    0.145353 0.601791 0.860105 -0.627617
F3    F     F_    0.168143 0.541648 0.191232 -0.647617
F4    F     F_    0.833080 0.545977 0.802699 -0.611316
F5    F     F_    0.217336 0.993282 0.416541 -0.625380
F6    F     F_    0.779260 0.003075 0.593919 -0.624533
H1    H     H_    0.859124 0.395071 0.648360 0.177840
H2    H     H_    0.267109 0.186476 0.444775 0.213372
H3    H     H_    0.763439 0.569873 0.390624 0.174564
H4    H     H_    0.236442 0.430620 0.609459 0.162574
H5    H     H_    0.535649 0.376890 0.122862 0.139510
H6    H     H_    0.532105 0.338565 0.236045 0.129193
H7    H     H_    0.762407 0.362548 0.317345 0.257898
H8    H     H_    0.713854 0.270414 0.222074 0.207065
H9    H     H_    0.763118 0.399833 0.203478 0.273209
H10   H     H_    0.531273 0.321922 0.798075 0.124858
H11   H     H_    0.367220 0.307483 0.741287 0.162281
H12   H     H_    0.141423 0.605278 0.352382 0.186911
H13   H     H_    0.356040 0.345192 0.896799 0.267232
H14   H     H_    0.440909 0.231201 0.902304 0.226342
H15   H     H_    0.523439 0.348692 0.955508 0.242476
H16   H     H_    0.334881 0.735851 0.304717 0.139415
H17   H     H_    0.347441 0.873622 0.285354 0.103319
H18   H     H_    0.125372 0.891449 0.238507 0.262680
H19   H     H_    0.151558 0.797885 0.165712 0.203542
H20   H     H_    0.107698 0.755222 0.259833 0.270857
H21   H     H_    0.644010 0.236163 0.388677 0.130718
H22   H     H_    0.664714 0.098386 0.400137 0.110919
H23   H     H_    0.924702 0.614461 0.330294 0.191452
H24   H     H_    0.844687 0.180294 0.391848 0.197809
H25   H     H_    0.866625 0.266052 0.487181 0.234129
H26   H     H_    0.888992 0.129329 0.512146 0.302975
H27   H     H_    0.075983 0.387525 0.670775 0.171041
H28   H     H_    0.880689 0.597604 0.975755 0.231045
H29   H     H_    0.119363 0.579401 0.013240 0.233576
H30   H     H_    0.675632 0.633567 0.176193 0.197929
H31   H     H_    0.321100 0.593747 0.806627 0.215739
H32   H     H_    0.731798 0.809769 0.574347 0.227659
N1    N     N_R   0.799120 0.480200 0.517090 -0.114763
N2    N     N_R   0.200880 0.519800 0.482910 -0.115946
O1    O     O_R   0.580150 0.341050 0.504560 -0.589061
O2    O     O_3   0.427442 0.456036 0.781239 -0.626258
O3    O     O_3   0.310383 0.825076 0.403695 -0.533928
O4    O     O_3   0.683368 0.175055 0.524863 -0.533721
O5    O     O_R   0.419850 0.658950 0.495440 -0.577768
O6    O     O_R   0.388090 0.353760 0.493600 -0.632999
O7    O     O_R   0.611910 0.646240 0.506400 -0.622835
O8    O     O_R   0.650890 0.490020 0.640860 -0.564450
O9    O     O_R   0.349110 0.509980 0.359140 -0.576632
O10   O     O_R   0.458830 0.502730 0.629890 -0.592333
O11   O     O_R   0.541170 0.497270 0.370110 -0.589350
O12   O     O_3   0.582751 0.492144 0.226265 -0.608231
Zn1   Zn    Zn3+2 0.628240 0.491510 0.507320 1.001686
Zn2   Zn    Zn3+2 0.371760 0.508490 0.492680 0.997377

loop_
_geom_bond_atom_site_label_1
_geom_bond_atom_site_label_2
_ccdc_geom_bond_type
C44   F1    S    
C21   C26   A    
C40   H17   S    
C27   C29   A    
C39   H14   S    
C14   C18   A    
C2    C7    A    
C36   H5    S    
C8    C48   A    
C37   H8    S    
C7    C8    A    
C4    C46   A    
C43   H24   S    
C15   C19   A    
C5    C47   A    
C42   H21   S    
C40   H16   S    
C30   C35   A    
C22   H28   S    
C36   C37   S    
C24   H29   S    
C24   C26   A    
C38   C39   S    
C4    H32   S    
C20   C25   A    
C43   H25   S    
C6    O3    S    
C29   C33   A    
C3    C48   A    
C27   O2    S    
C18   C19   A    
C32   C45   A    
C41   H20   S    
N1    Zn1   S    
C9    C19   A    
C1    O6    A    
C22   C25   A    
C12   O7    A    
O9    Zn2   S    
C11   H12   S    
C28   O12   S    
O8    Zn1   S    
C15   H3    S    
C37   H9    S    
C38   H10   S    
C48   F5    S    
C14   H4    S    
C16   O8    A    
C31   C44   A    
C12   C46   S    
C22   C31   A    
C5    C7    A    
C1    C47   S    
C6    C8    A    
C23   H30   S    
C43   H26   S    
O10   Zn2   S    
C17   C21   S    
C23   C44   A    
C34   H31   S    
C2    C4    A    
C24   C32   A    
C17   O11   A    
C3    H2    S    
N2    Zn2   S    
C38   H11   S    
C11   N2    A    
C16   C20   S    
C13   N1    A    
C33   C34   A    
C39   H15   S    
C36   O12   S    
C34   C45   A    
C9    H23   S    
C9    C11   A    
C41   H18   S    
C40   C41   S    
O11   Zn1   S    
C21   C28   A    
C23   C35   A    
C2    F6    S    
C12   O5    A    
C42   C43   S    
C15   N1    A    
C1    O1    A    
C6    C46   A    
O1    Zn1   S    
C39   H13   S    
C36   H6    S    
C10   C13   A    
O5    Zn2   S    
C37   H7    S    
C20   C27   A    
C38   O2    S    
C10   H27   S    
C42   H22   S    
C28   C30   A    
C25   F4    S    
C14   N2    A    
C29   C31   A    
C26   F3    S    
C30   C32   A    
C16   O10   A    
C45   F2    S    
C10   C18   A    
C3    C47   A    
C33   C35   A    
C42   O4    S    
C40   O3    S    
C5    O4    S    
C41   H19   S    
O6    Zn2   S    
C17   O9    A    
O7    Zn1   S    
C13   H1    S    
