data_mof_unit_10807.cif
_audit_creation_date              2012-12-11T15:12:20-0500
_audit_creation_method            fapswitch 2.2
_symmetry_space_group_name_H-M    P1
_symmetry_Int_Tables_number       1
_space_group_crystal_system       triclinic
_cell_length_a                    31.401219
_cell_length_b                    22.578655
_cell_length_c                    18.148406
_cell_angle_alpha                 89.923532
_cell_angle_beta                  124.87032
_cell_angle_gamma                 89.922109
_cell_volume                      10556.8015901

loop_
_atom_site_label
_atom_site_type_symbol
_atom_type_description
_atom_site_fract_x
_atom_site_fract_y
_atom_site_fract_z
_atom_type_partial_charge
C1    C     C_R   0.545939 0.584464 0.742885 -0.124819
C2    C     C_R   0.241167 0.646889 0.484803 0.120980
C3    C     C_R   0.304270 0.346762 0.927825 0.088441
C4    C     C_R   0.872680 0.308771 0.126924 0.079947
C5    C     C_R   0.195739 0.847001 0.072974 0.087848
C6    C     C_R   0.128759 0.306479 0.876691 0.077848
C7    C     C_R   0.863692 0.703261 0.101479 0.080447
C8    C     C_R   0.298588 0.810373 0.140714 0.079613
C9    C     C_R   0.772875 0.351232 0.067631 0.086926
C10   C     C_R   0.769146 0.655523 0.058848 0.085070
C11   C     C_R   0.228284 0.348477 0.934807 0.083493
C12   C     C_R   0.799090 0.311456 0.140976 0.079577
C13   C     C_R   0.270255 0.302478 0.481154 0.136069
C14   C     C_R   0.272092 0.849883 0.067166 0.083767
C15   C     C_R   0.201882 0.309117 0.861336 0.079508
C16   C     C_R   0.795032 0.697766 0.128027 0.064791
C17   C     C_R   0.800456 0.376209 0.035555 -0.210543
C18   C     C_R   0.275591 0.796402 0.186407 -0.218879
C19   C     C_R   0.200868 0.373636 0.967122 -0.202977
C20   C     C_R   0.796238 0.629037 0.026766 -0.208512
C21   C     C_R   0.299557 0.875463 0.035246 -0.203774
C22   C     C_R   0.776052 0.297950 0.186739 -0.217445
C23   C     C_R   0.773271 0.712718 0.175446 -0.210005
C24   C     C_R   0.758889 0.647189 0.517224 0.135413
C25   C     C_R   0.224845 0.295463 0.815474 -0.217291
C26   C     C_R   0.850296 0.357057 0.067546 -0.163644
C27   C     C_R   0.225737 0.815794 0.154483 -0.151309
C28   C     C_R   0.151183 0.354632 0.935823 -0.160563
C29   C     C_R   0.843611 0.651394 0.050214 -0.156187
C30   C     C_R   0.349370 0.856529 0.066812 -0.162103
C31   C     C_R   0.726650 0.318615 0.155728 -0.150290
C32   C     C_R   0.723807 0.693603 0.146153 -0.145478
C33   C     C_R   0.274435 0.315319 0.846776 -0.152366
C34   C     C_R   0.593968 0.578982 0.423276 0.279667
C35   C     C_R   0.236212 0.808398 0.516553 0.139853
C36   C     C_R   0.421821 0.392704 0.576115 0.308241
C37   C     C_R   0.405322 0.579145 0.575518 0.300560
C38   C     C_R   0.578070 0.393006 0.423472 0.310109
C39   C     C_R   0.094939 0.078639 0.424461 0.289308
C40   C     C_R   0.918829 0.897108 0.577741 0.305617
C41   C     C_R   0.905328 0.078259 0.576079 0.290882
C42   C     C_R   0.085359 0.901349 0.423729 0.297167
C43   C     C_R   0.396771 0.611502 0.298785 -0.046675
C44   C     C_R   0.618277 0.422560 0.746768 -0.088303
C45   C     C_R   0.616056 0.586847 0.740364 -0.109704
C46   C     C_R   0.739554 0.141239 0.487929 0.121926
C47   C     C_R   0.382089 0.420913 0.254264 -0.080525
C48   C     C_R   0.898137 0.112708 0.301871 -0.026974
C49   C     C_R   0.117916 0.920033 0.745313 -0.078982
C50   C     C_R   0.103095 0.111420 0.701137 -0.046346
C51   C     C_R   0.889840 0.898429 0.276491 -0.094251
C52   C     C_R   0.597684 0.601377 0.792013 0.045845
C53   C     C_R   0.399893 0.406346 0.202239 0.040075
C54   C     C_R   0.424419 0.644625 0.274458 0.025431
C55   C     C_R   0.600844 0.408814 0.799498 0.047186
C56   C     C_R   0.075495 0.144437 0.725649 0.025580
C57   C     C_R   0.764516 0.807753 0.480676 0.139529
C58   C     C_R   0.915881 0.866880 0.247932 0.036142
C59   C     C_R   0.925531 0.145648 0.277048 0.016533
C60   C     C_R   0.100169 0.905571 0.797537 0.039614
C61   C     C_R   0.642054 0.593085 0.495670 -0.062178
C62   C     C_R   0.385683 0.360079 0.502049 -0.062897
C63   C     C_R   0.356009 0.589180 0.502309 -0.050261
C64   C     C_R   0.613154 0.359258 0.497115 -0.066634
C65   C     C_R   0.143732 0.090901 0.497474 -0.048321
C66   C     C_R   0.879649 0.867337 0.504705 -0.070448
C67   C     C_R   0.856557 0.090997 0.503503 -0.050391
C68   C     C_R   0.260068 0.141836 0.511802 0.122174
C69   C     C_R   0.122668 0.869611 0.496832 -0.067827
C70   C     C_R   0.633499 0.258687 0.477589 -0.188999
C71   C     C_R   0.336386 0.686665 0.522808 -0.248131
C72   C     C_R   0.365065 0.259262 0.519525 -0.189308
C73   C     C_R   0.660610 0.687611 0.464241 -0.228965
C74   C     C_R   0.140050 0.769838 0.476299 -0.196968
C75   C     C_R   0.834857 0.185540 0.531419 -0.253941
C76   C     C_R   0.862693 0.768298 0.530966 -0.215501
C77   C     C_R   0.166269 0.186670 0.475043 -0.252582
C78   C     C_R   0.647437 0.317923 0.497530 0.130498
C79   C     C_R   0.717185 0.240533 0.505106 0.036522
C80   C     C_R   0.321651 0.627633 0.504781 0.144336
C81   C     C_R   0.351636 0.318869 0.502372 0.136866
C82   C     C_R   0.676406 0.629411 0.490207 0.153250
C83   C     C_R   0.155700 0.828507 0.495394 0.144278
C84   C     C_R   0.821103 0.126616 0.508399 0.155813
C85   C     C_R   0.846937 0.826898 0.508766 0.159147
C86   C     C_R   0.179255 0.127131 0.493859 0.154107
C87   C     C_R   0.694896 0.339407 0.519899 -0.251022
C88   C     C_R   0.275130 0.606782 0.487010 -0.164944
C89   C     C_R   0.305166 0.340813 0.484243 -0.248737
C90   C     C_R   0.255412 0.707343 0.501952 0.031905
C91   C     C_R   0.724387 0.608091 0.515097 -0.179825
C92   C     C_R   0.202740 0.848494 0.514720 -0.239342
C93   C     C_R   0.774594 0.103470 0.488465 -0.162075
C94   C     C_R   0.799337 0.847459 0.486683 -0.220397
C95   C     C_R   0.225132 0.103835 0.510965 -0.163339
C96   C     C_2   0.447268 0.802453 0.109245 1.002180
C97   C     C_2   0.619675 0.359773 0.085573 1.004800
C98   C     C_2   0.614563 0.661020 0.073267 1.005010
C99   C     C_2   0.381959 0.354294 0.917942 1.004705
C100  C     C_2   0.949053 0.303682 0.112916 0.991317
C101  C     C_R   0.282768 0.241624 0.497462 0.036685
C102  C     C_2   0.117446 0.852938 0.081314 1.005455
C103  C     C_2   0.053332 0.300844 0.893184 0.991265
C104  C     C_2   0.932106 0.714071 0.068132 1.002975
C105  C     C_2   0.692376 0.577150 0.663138 0.992095
C106  C     C_2   0.325098 0.381214 0.336323 0.990626
C107  C     C_2   0.307152 0.569598 0.334826 1.037891
C108  C     C_2   0.670953 0.375399 0.664027 1.001556
C109  C     C_2   0.192835 0.071523 0.665163 1.034288
C110  C     C_2   0.816460 0.891220 0.340463 0.960464
C111  C     C_2   0.806950 0.075970 0.334590 1.035571
C112  C     C_R   0.452313 0.420278 0.253394 -0.115976
C113  C     C_R   0.744109 0.707263 0.494647 0.035872
C114  C     C_2   0.178242 0.884598 0.664192 0.989347
C115  C     C_3   0.580537 0.566836 0.331081 -1.001782
C116  C     C_3   0.431622 0.387732 0.667028 -0.988806
C117  C     C_3   0.419930 0.571133 0.669096 -0.994331
C118  C     C_3   0.570108 0.390119 0.333846 -0.991387
C119  C     C_3   0.081126 0.069261 0.331484 -1.007642
C120  C     C_3   0.928946 0.896336 0.669060 -0.996615
C121  C     C_3   0.919390 0.067458 0.668993 -1.021518
C122  C     C_3   0.082709 0.908709 0.338946 -1.013911
C123  C     C_R   0.221619 0.748105 0.498943 0.034864
C124  C     C_R   0.752560 0.201717 0.508613 0.031516
C125  C     C_R   0.779083 0.747529 0.500825 0.035435
C126  C     C_R   0.247696 0.202780 0.494655 0.031783
C127  C     C_R   0.668568 0.219197 0.481380 0.121319
C128  C     C_R   0.303480 0.727081 0.521639 0.134558
C129  C     C_R   0.330437 0.219850 0.517007 0.121909
C130  C     C_R   0.694487 0.727274 0.467289 0.128507
C131  C     C_R   0.173227 0.728751 0.478474 0.124650
C132  C     C_R   0.467717 0.611100 0.297560 -0.146055
C133  C     C_R   0.800745 0.223651 0.531368 0.131245
C134  C     C_R   0.828678 0.727806 0.527322 0.125802
C135  C     C_R   0.200341 0.225049 0.475601 0.131445
C136  C     C_R   0.778291 0.322178 0.547972 -0.169448
C137  C     C_R   0.193241 0.627976 0.464757 -0.170099
C138  C     C_R   0.223153 0.324066 0.461834 -0.169088
C139  C     C_R   0.808067 0.627883 0.543564 -0.169312
C140  C     C_R   0.283948 0.827502 0.536270 -0.173725
C141  C     C_R   0.691563 0.120183 0.465310 -0.173979
C142  C     C_R   0.715270 0.827140 0.453378 -0.178952
C143  C     C_R   0.548154 0.421638 0.747619 -0.116594
C144  C     C_R   0.307226 0.120433 0.530724 -0.173588
C145  C     C_R   0.317645 0.786740 0.538666 -0.189328
C146  C     C_R   0.656106 0.159128 0.462076 -0.179833
C147  C     C_R   0.680043 0.786719 0.446173 -0.170419
C148  C     C_R   0.342373 0.159405 0.533289 -0.180286
C149  C     C_R   0.813615 0.283432 0.551536 -0.176129
C150  C     C_R   0.159181 0.668984 0.461430 -0.169918
C151  C     C_R   0.188125 0.285290 0.458966 -0.175585
C152  C     C_R   0.842916 0.668191 0.548200 -0.185010
C153  C     C_R   0.409928 0.704192 0.231628 0.123885
C154  C     C_R   0.032188 0.111051 0.702357 -0.149789
C155  C     C_R   0.634305 0.394087 0.896980 0.117588
C156  C     C_R   0.630270 0.618559 0.888301 0.119523
C157  C     C_R   0.366791 0.390309 0.105377 0.119391
C158  C     C_R   0.911005 0.205375 0.234264 0.124938
C159  C     C_R   0.133212 0.889795 0.894648 0.121047
C160  C     C_R   0.090235 0.203640 0.769274 0.123768
C161  C     C_R   0.898926 0.810268 0.198250 0.120894
C162  C     C_R   0.418559 0.781383 0.146709 -0.099338
C163  C     C_R   0.644169 0.365398 0.035969 -0.107879
C164  C     C_R   0.639642 0.651067 0.025364 -0.104076
C165  C     C_R   0.962589 0.895402 0.282066 -0.136132
C166  C     C_R   0.357222 0.360750 0.967035 -0.109862
C167  C     C_R   0.919870 0.282489 0.149431 -0.094094
C168  C     C_R   0.142497 0.860050 0.032836 -0.106464
C169  C     C_R   0.081946 0.280062 0.855378 -0.092934
C170  C     C_R   0.906425 0.733574 0.111820 -0.104724
C171  C     C_R   0.437108 0.730121 0.199965 -0.211707
C172  C     C_R   0.613319 0.385814 0.946763 -0.216856
C173  C     C_R   0.608544 0.631422 0.935870 -0.220608
C174  C     C_R   0.387971 0.381261 0.056039 -0.214656
C175  C     C_R   0.938569 0.231575 0.203526 -0.212947
C176  C     C_R   0.968201 0.111501 0.298731 -0.146909
C177  C     C_R   0.111751 0.880081 0.943436 -0.219366
C178  C     C_R   0.063195 0.229318 0.801389 -0.214590
C179  C     C_R   0.923559 0.786570 0.160513 -0.212815
C180  C     C_R   0.366237 0.733374 0.216558 -0.240764
C181  C     C_R   0.687668 0.385263 0.939555 -0.227853
C182  C     C_R   0.684086 0.621866 0.933247 -0.237681
C183  C     C_R   0.313493 0.381594 0.062827 -0.225380
C184  C     C_R   0.866642 0.234147 0.217355 -0.240313
C185  C     C_R   0.186738 0.882249 0.938154 -0.225438
C186  C     C_R   0.134089 0.232589 0.784850 -0.240459
C187  C     C_R   0.047767 0.919873 0.746540 -0.116044
C188  C     C_R   0.858573 0.778815 0.191472 -0.244476
C189  C     C_R   0.346299 0.784901 0.163754 0.092329
C190  C     C_R   0.719741 0.364551 0.028338 0.084598
C191  C     C_R   0.716112 0.643576 0.020890 0.088951
C192  C     C_R   0.281469 0.361107 0.974158 0.085132
C193  C     C_R   0.846827 0.285696 0.164388 0.091862
C194  C     C_R   0.218715 0.861954 0.027113 0.084554
C195  C     C_R   0.154198 0.283675 0.838287 0.091831
C196  C     C_R   0.839996 0.725730 0.143208 0.092608
C197  C     C_R   0.644291 0.581374 0.571999 -0.118447
C198  C     C_R   0.730256 0.300998 0.524454 0.134689
C199  C     C_R   0.372529 0.391464 0.426523 -0.109582
C200  C     C_R   0.354518 0.577467 0.426859 -0.171699
C201  C     C_R   0.626035 0.390019 0.572830 -0.099701
C202  C     C_R   0.145297 0.078588 0.573040 -0.171265
C203  C     C_R   0.867059 0.896746 0.428075 -0.120056
C204  C     C_R   0.854704 0.079134 0.427461 -0.171588
C205  C     C_R   0.132077 0.895777 0.572990 -0.103758
C206  C     C_R   0.371788 0.807995 0.125616 0.078701
C207  C     C_R   0.696982 0.350584 0.074865 0.088958
C208  C     C_R   0.693274 0.661561 0.065835 0.081946
H1    H     H_    0.523069 0.580951 0.769483 0.112132
H2    H     H_    0.345500 0.713132 0.240615 0.114069
H3    H     H_    0.396143 0.372966 0.661259 0.255404
H4    H     H_    0.462711 0.354718 0.708295 0.256817
H5    H     H_    0.441560 0.431479 0.700103 0.240816
H6    H     H_    0.438037 0.612371 0.707819 0.252157
H7    H     H_    0.385011 0.561544 0.668380 0.259502
H8    H     H_    0.446945 0.533250 0.701792 0.236776
H9    H     H_    0.606762 0.377739 0.341873 0.255808
H10   H     H_    0.540461 0.356230 0.291252 0.255946
H11   H     H_    0.558976 0.434219 0.301127 0.246695
H12   H     H_    0.079063 0.112637 0.300730 0.255728
H13   H     H_    0.297607 0.385695 0.101644 0.127600
H14   H     H_    0.111296 0.041552 0.334398 0.262356
H15   H     H_    0.043360 0.046230 0.289019 0.248440
H16   H     H_    0.892656 0.887164 0.664046 0.257068
H17   H     H_    0.957451 0.861043 0.710707 0.255395
H18   H     H_    0.942472 0.940267 0.701086 0.246871
H19   H     H_    0.921459 0.110298 0.700803 0.257967
H20   H     H_    0.889389 0.039283 0.665705 0.260322
H21   H     H_    0.957233 0.044201 0.710708 0.245872
H22   H     H_    0.121124 0.923110 0.355890 0.259920
H23   H     H_    0.072641 0.865890 0.302661 0.255390
H24   H     H_    0.700813 0.612445 0.897038 0.121431
H25   H     H_    0.053942 0.943051 0.294989 0.253019
H26   H     H_    0.202948 0.887129 0.899962 0.126698
H27   H     H_    0.845234 0.213587 0.239874 0.114656
H28   H     H_    0.840348 0.797704 0.221193 0.139505
H29   H     H_    0.154754 0.212520 0.760533 0.113881
H30   H     H_    0.572584 0.394439 0.916180 0.151712
H31   H     H_    0.471354 0.708726 0.211822 0.139447
H32   H     H_    0.428745 0.389485 0.086743 0.152365
H33   H     H_    0.474140 0.427504 0.225431 0.113088
H34   H     H_    0.567227 0.626587 0.903557 0.150017
H35   H     H_    0.070760 0.887383 0.912024 0.149362
H36   H     H_    0.973271 0.210581 0.216697 0.139110
H37   H     H_    0.955009 0.810415 0.165600 0.145156
H38   H     H_    0.028888 0.208076 0.789276 0.139079
H39   H     H_    0.784509 0.412127 0.987357 0.131645
H40   H     H_    0.295846 0.771375 0.248297 0.138656
H41   H     H_    0.216881 0.409452 0.015205 0.135688
H42   H     H_    0.781331 0.590576 0.983641 0.132589
H43   H     H_    0.283429 0.911447 0.987170 0.135759
H44   H     H_    0.498078 0.624784 0.290902 0.129511
H45   H     H_    0.796057 0.272518 0.248250 0.138963
H46   H     H_    0.793884 0.739025 0.235794 0.181679
H47   H     H_    0.204731 0.270444 0.753785 0.138689
H48   H     H_    0.362635 0.625495 0.293900 0.097861
H49   H     H_    0.657931 0.432280 0.772252 0.133824
H50   H     H_    0.655387 0.589119 0.761208 0.127083
H51   H     H_    0.342253 0.429676 0.228416 0.137933
H52   H     H_    0.865826 0.128558 0.301088 0.095625
H53   H     H_    0.157752 0.927929 0.770659 0.135755
H54   H     H_    0.137087 0.125551 0.705861 0.098232
H55   H     H_    0.526294 0.429490 0.775397 0.108553
H56   H     H_    0.849673 0.893695 0.249624 0.125850
H57   H     H_    0.595983 0.243760 0.460169 0.132003
H58   H     H_    0.373240 0.700925 0.536258 0.129613
H59   H     H_    0.401851 0.243993 0.533794 0.131489
H60   H     H_    0.622606 0.702243 0.445308 0.129902
H61   H     H_    0.102681 0.756503 0.461363 0.130149
H62   H     H_    0.871703 0.201776 0.546993 0.130870
H63   H     H_    0.900606 0.754474 0.548772 0.129966
H64   H     H_    0.129958 0.203030 0.461856 0.130475
H65   H     H_    0.704098 0.386135 0.534283 0.145203
H66   H     H_    0.001765 0.124863 0.708826 0.130305
H67   H     H_    0.265378 0.560165 0.473418 0.132560
H68   H     H_    0.296379 0.387811 0.472011 0.139683
H69   H     H_    0.734866 0.562076 0.534527 0.124249
H70   H     H_    0.213008 0.895014 0.528745 0.133859
H71   H     H_    0.765552 0.057019 0.471504 0.126713
H72   H     H_    0.789086 0.893958 0.471134 0.120905
H73   H     H_    0.233654 0.056960 0.524985 0.127219
H74   H     H_    0.788328 0.368583 0.563077 0.140136
H75   H     H_    0.182145 0.581749 0.451412 0.137948
H76   H     H_    0.213549 0.370773 0.449178 0.139630
H77   H     H_    0.990062 0.883468 0.267991 0.130539
H78   H     H_    0.819522 0.581902 0.560803 0.136557
H79   H     H_    0.295078 0.873727 0.549703 0.135540
H80   H     H_    0.681366 0.073887 0.449440 0.135693
H81   H     H_    0.704079 0.873297 0.437450 0.137275
H82   H     H_    0.316949 0.073792 0.543926 0.135171
H83   H     H_    0.354599 0.801716 0.553665 0.136211
H84   H     H_    0.618960 0.142465 0.444050 0.137824
H85   H     H_    0.641903 0.801913 0.425290 0.145785
H86   H     H_    0.378817 0.142428 0.548191 0.137437
H87   H     H_    0.850646 0.300193 0.569061 0.144495
H88   H     H_    0.998558 0.125187 0.292143 0.129993
H89   H     H_    0.122071 0.654098 0.445798 0.138606
H90   H     H_    0.151755 0.302328 0.444370 0.143576
H91   H     H_    0.880908 0.652952 0.568394 0.137520
H92   H     H_    0.869958 0.379239 0.042294 0.169746
H93   H     H_    0.209902 0.801969 0.191191 0.172716
H94   H     H_    0.131707 0.376769 0.961476 0.170857
H95   H     H_    0.862795 0.629031 0.024176 0.169657
H96   H     H_    0.368883 0.878912 0.041433 0.169974
H97   H     H_    0.710825 0.305292 0.192655 0.171121
H98   H     H_    0.708466 0.708953 0.182977 0.180162
H99   H     H_    0.026205 0.927264 0.774889 0.112056
H100  H     H_    0.290209 0.301805 0.809855 0.171514
H101  H     H_    0.444978 0.827288 0.000194 0.338529
H102  H     H_    0.626171 0.370288 0.202053 0.330717
H103  H     H_    0.619178 0.653933 0.188557 0.332525
H104  H     H_    0.376050 0.364416 0.801878 0.330412
H105  H     H_    0.947655 0.327983 0.004521 0.336867
H106  H     H_    0.122489 0.862971 0.196596 0.333394
H107  H     H_    0.055736 0.324686 0.002616 0.337288
H108  H     H_    0.924516 0.685805 0.955757 0.338792
H109  H     H_    0.734030 0.532014 0.779785 0.323728
H110  H     H_    0.703502 0.389198 0.900612 0.126731
H111  H     H_    0.257510 0.413888 0.230977 0.323470
H112  H     H_    0.275215 0.537292 0.210132 0.329800
H113  H     H_    0.740952 0.399470 0.772288 0.321189
H114  H     H_    0.225487 0.039699 0.790523 0.330658
H115  H     H_    0.756761 0.931452 0.230178 0.329815
H116  H     H_    0.773483 0.051407 0.205814 0.333595
H117  H     H_    0.244589 0.916235 0.773021 0.322653
H118  H     H_    0.577374 0.609217 0.297196 0.252409
H119  H     H_    0.611406 0.539268 0.336066 0.264368
H120  H     H_    0.543386 0.542308 0.290360 0.244909
N1    N     N_R   0.532970 0.559900 0.665210 -0.044971
N2    N     N_R   0.402100 0.440070 0.454470 -0.074009
N3    N     N_R   0.402100 0.559930 0.454470 -0.075667
N4    N     N_R   0.597900 0.440070 0.545530 -0.072026
N5    N     N_R   0.097900 0.059930 0.545530 -0.074974
N6    N     N_R   0.902100 0.940070 0.454470 -0.071077
N7    N     N_R   0.902100 0.059930 0.454470 -0.075402
N8    N     N_R   0.097900 0.940070 0.545530 -0.075848
N9    N     N_R   0.567170 0.559950 0.454460 -0.065791
N10   N     N_R   0.432830 0.440050 0.545540 -0.068096
N11   N     N_R   0.432830 0.559950 0.545540 -0.065858
N12   N     N_R   0.467030 0.440100 0.334790 -0.047632
N13   N     N_R   0.567170 0.440050 0.454460 -0.066142
N14   N     N_R   0.067170 0.059950 0.454460 -0.066112
N15   N     N_R   0.932830 0.940050 0.545540 -0.065616
N16   N     N_R   0.932830 0.059950 0.545540 -0.067199
N17   N     N_R   0.067170 0.940050 0.454460 -0.064434
N18   N     N_R   0.421470 0.559970 0.334770 -0.025878
N19   N     N_R   0.578530 0.440030 0.665230 -0.050468
N20   N     N_R   0.578530 0.559970 0.665230 -0.040586
N21   N     N_R   0.421470 0.440030 0.334770 -0.047952
N22   N     N_R   0.921470 0.059970 0.334770 -0.023716
N23   N     N_R   0.467030 0.559900 0.334790 -0.048127
N24   N     N_R   0.078530 0.940030 0.665230 -0.048819
N25   N     N_R   0.078530 0.059970 0.665230 -0.026555
N26   N     N_R   0.921470 0.940030 0.334770 -0.034758
N27   N     N_R   0.532970 0.440100 0.665210 -0.045754
N28   N     N_R   0.032970 0.059900 0.665210 -0.048289
N29   N     N_R   0.967030 0.940100 0.334790 -0.047473
N30   N     N_R   0.967030 0.059900 0.334790 -0.048704
N31   N     N_R   0.032970 0.940100 0.665210 -0.047360
N32   N     N_R   0.597900 0.559930 0.545530 -0.075417
Ni1   Ni    Ni4+2 0.483030 0.500000 0.604430 0.200425
Ni2   Ni    Ni4+2 0.516970 0.500000 0.395570 0.204786
Ni3   Ni    Ni4+2 0.983030 0.000000 0.604430 0.201109
Ni4   Ni    Ni4+2 0.016970 0.000000 0.395570 0.207972
Ni5   Ni    Ni4+2 0.587400 0.500000 0.604430 0.255678
Ni6   Ni    Ni4+2 0.412600 0.500000 0.395570 0.265110
Ni7   Ni    Ni4+2 0.087400 0.000000 0.604430 0.262723
Ni8   Ni    Ni4+2 0.912600 0.000000 0.395570 0.280802
O1    O     O_2   0.494542 0.806902 0.158404 -0.632330
O2    O     O_R   0.923252 0.314724 0.020976 -0.795338
O3    O     O_2   0.072814 0.834876 0.041281 -0.618408
O4    O     O_R   0.143920 0.869277 0.171590 -0.809355
O5    O     O_2   0.006074 0.305809 0.844126 -0.636475
O6    O     O_R   0.079785 0.311704 0.985222 -0.793656
O7    O     O_2   0.979456 0.715281 0.110314 -0.621066
O8    O     O_R   0.902384 0.697264 0.977810 -0.791527
O9    O     O_2   0.726602 0.613992 0.688916 -0.632136
O10   O     O_R   0.699477 0.530106 0.718952 -0.790856
O11   O     O_2   0.316158 0.331801 0.303191 -0.632329
O12   O     O_R   0.420876 0.814159 0.017368 -0.794829
O13   O     O_R   0.288937 0.426714 0.291588 -0.793161
O14   O     O_2   0.265611 0.589804 0.314516 -0.641676
O15   O     O_R   0.309850 0.538891 0.270836 -0.794655
O16   O     O_2   0.673757 0.326480 0.695507 -0.635879
O17   O     O_R   0.711892 0.415263 0.711296 -0.777799
O18   O     O_2   0.233909 0.092772 0.685048 -0.643807
O19   O     O_R   0.190839 0.040497 0.729762 -0.792856
O20   O     O_2   0.796143 0.842573 0.314412 -0.671289
O21   O     O_R   0.791243 0.941160 0.288282 -0.779078
O22   O     O_2   0.766256 0.097020 0.317097 -0.647675
O23   O     O_2   0.574537 0.343612 0.046154 -0.603020
O24   O     O_R   0.808199 0.049427 0.266386 -0.774135
O25   O     O_2   0.186765 0.834600 0.695628 -0.634062
O26   O     O_R   0.213941 0.929784 0.711885 -0.792128
O27   O     O_R   0.647316 0.375404 0.176276 -0.807675
O28   O     O_2   0.570285 0.680558 0.032487 -0.624259
O29   O     O_R   0.640573 0.645674 0.163955 -0.804039
O30   O     O_2   0.426940 0.337215 0.957778 -0.602399
O31   O     O_R   0.354767 0.370184 0.827278 -0.810337
O32   O     O_2   0.996241 0.308826 0.162983 -0.635568

loop_
_geom_bond_atom_site_label_1
_geom_bond_atom_site_label_2
_ccdc_geom_bond_type
C125  C134  A    
C7    C29   A    
C74   C83   A    
C66   C85   S    
C41   C67   A    
C108  O16   D    
C49   C60   A    
C124  C133  A    
C14   C21   A    
N2    N10   A    
C132  H44   S    
C61   C82   S    
N32   Ni5   S    
C203  N6    A    
C128  C145  A    
C103  O6    S    
C97   O23   D    
C184  C193  A    
C139  C152  A    
C11   C192  A    
C2    C90   A    
C58   C165  A    
C71   C80   A    
C178  H38   S    
C11   C15   A    
C162  C171  A    
C10   C20   A    
N12   Ni2   S    
C136  H74   S    
C141  H80   S    
C136  C198  A    
C204  N7    A    
C47   C53   A    
C1    N1    A    
N29   Ni4   S    
C105  C197  S    
C14   C194  A    
C153  C180  A    
C39   C65   A    
C46   C124  A    
C36   C62   A    
C179  H37   S    
C105  O10   S    
C46   C141  A    
C38   C64   A    
C114  O26   S    
N27   Ni1   S    
C156  C173  A    
C166  C174  A    
C68   C95   A    
C65   C86   S    
C102  O4    S    
C56   C154  A    
C61   C197  A    
C97   O27   S    
C34   C61   A    
C82   C91   A    
C184  H27   S    
C31   C207  A    
C181  C190  A    
C43   C54   A    
C20   H42   S    
C189  C206  A    
C32   H98   S    
C118  H9    S    
C119  H15   S    
C77   H64   S    
C164  C173  A    
C180  H2    S    
C163  C172  A    
C44   N19   A    
C160  C178  A    
C200  N3    A    
C182  H24   S    
C62   C81   S    
C71   C128  A    
N18   Ni6   S    
C181  H110  S    
C79   C127  A    
C73   C130  A    
C48   H52   S    
C102  C168  S    
C36   N10   A    
C121  H19   S    
C140  C145  A    
H105  O2    S    
C138  C151  A    
C54   C132  A    
C10   C191  A    
C45   C52   A    
N19   Ni5   S    
C80   C88   A    
C10   C16   A    
C44   C55   A    
N3    N11   A    
C107  C200  S    
C31   H97   S    
C96   C162  S    
H108  O8    S    
C84   C93   A    
C72   H59   S    
C140  H79   S    
C92   H70   S    
C93   H71   S    
C86   C95   A    
C94   H72   S    
C37   C117  S    
C7    C170  A    
C17   H39   S    
N6    Ni8   S    
C87   C198  A    
C7    C196  A    
C76   C85   A    
C5    C194  A    
N9    N32   A    
C172  H30   S    
C78   C87   A    
C90   C123  A    
C45   H50   S    
C55   C155  S    
C122  H23   S    
C57   C142  A    
C109  C202  S    
H115  O21   S    
C62   C199  A    
C116  H3    S    
C180  C189  A    
C57   C125  A    
C59   C158  S    
C96   O1    D    
C15   C25   A    
C76   H63   S    
C12   C22   A    
N5    Ni7   S    
N10   Ni1   S    
C165  H77   S    
C117  H7    S    
C152  H91   S    
C50   N25   A    
C5    C27   A    
C6    C28   A    
C95   H73   S    
N30   Ni4   S    
C161  C179  A    
C157  C174  A    
C42   N17   A    
C120  H16   S    
C79   C198  A    
C74   C131  A    
C155  C172  A    
C1    C52   A    
C63   C80   S    
C175  H36   S    
C55   C143  A    
C113  C130  A    
C1    H1    S    
H116  O24   S    
C59   C176  A    
C164  C208  A    
C109  O18   D    
C156  C182  A    
C110  O21   S    
C39   N14   A    
C144  H82   S    
C34   C115  S    
C50   C56   A    
N11   Ni1   S    
C139  H78   S    
H109  O10   S    
C104  O8    S    
C202  N5    A    
C108  C201  S    
C73   H60   S    
C186  H29   S    
C115  H120  S    
C99   O30   D    
C19   C28   A    
N22   N30   A    
H111  O13   S    
C40   N15   A    
C177  H35   S    
N5    N14   A    
C16   C23   A    
C57   C94   A    
C119  H12   S    
C137  C150  A    
C36   C116  S    
C120  H18   S    
C48   C59   A    
C167  C175  A    
C9    C17   A    
N28   Ni3   S    
C130  C147  A    
C64   C78   S    
C142  C147  A    
C116  H5    S    
C106  O11   D    
N2    Ni6   S    
C155  C181  A    
C75   H62   S    
C71   H58   S    
C132  N23   A    
C79   C124  A    
C69   C205  A    
C114  C205  S    
C170  C179  A    
C13   C138  A    
C159  C185  A    
C35   C123  A    
C15   C195  A    
C70   C127  A    
C3    C192  A    
C103  O5    D    
C142  H81   S    
C39   C119  S    
N17   Ni4   S    
C68   C144  A    
C9    C12   A    
C96   O12   S    
C38   N13   A    
C190  C207  A    
N15   Ni3   S    
C100  O32   D    
C205  N8    A    
C138  H76   S    
C103  C169  S    
C87   H65   S    
C25   C33   A    
C101  C129  A    
C43   H48   S    
C199  N2    A    
C64   C201  A    
C12   C193  A    
C60   C159  S    
C185  C194  A    
C187  N31   A    
C183  C192  A    
C136  C149  A    
C25   H47   S    
C105  O9    D    
C72   C129  A    
C11   C19   A    
C108  O17   S    
C100  C167  S    
C104  C170  S    
C88   H67   S    
C98   O29   S    
C115  H118  S    
N20   Ni5   S    
C3    C33   A    
C168  C177  A    
C63   C200  A    
C5    C168  A    
C154  H66   S    
C22   H45   S    
C37   C63   A    
H104  O31   S    
C173  H34   S    
C65   C202  A    
C107  O14   D    
C47   H51   S    
C97   C163  S    
C118  H10   S    
C72   C81   A    
N21   Ni6   S    
C81   C89   A    
C35   C92   A    
C185  H26   S    
C24   C139  A    
C40   C66   A    
C162  C206  A    
C23   H46   S    
C112  N12   A    
C6    C195  A    
C49   N24   A    
C4    C193  A    
N24   Ni7   S    
C150  H89   S    
N26   Ni8   S    
N18   N23   A    
C49   H53   S    
C19   H41   S    
C8    C18   A    
C110  C203  S    
C165  N29   A    
C109  O19   S    
C16   C196  A    
C174  H32   S    
C35   C140  A    
N1    Ni1   S    
H102  O27   S    
C8    C189  A    
C183  H13   S    
H112  O15   S    
C134  C152  A    
C26   H92   S    
C51   C58   A    
C33   H100  S    
C28   H94   S    
C48   N22   A    
C141  C146  A    
C99   O31   S    
C112  H33   S    
C40   C120  S    
C126  C135  A    
C60   C187  A    
C111  O24   S    
C34   N9    A    
C143  H55   S    
C182  C191  A    
C9    C190  A    
C73   C82   A    
N25   N28   A    
H114  O19   S    
C50   H54   S    
C114  O25   D    
C45   N20   A    
C76   C134  A    
C123  C131  A    
C2    C137  A    
N14   Ni4   S    
N1    N20   A    
C111  C204  S    
C4    C26   A    
C75   C133  A    
C161  C188  A    
C148  H86   S    
C21   C30   A    
C149  H87   S    
C4    C167  A    
C176  N30   A    
C23   C32   A    
C116  H4    S    
C135  C151  A    
C163  C207  A    
N12   N21   A    
C117  H6    S    
C75   C84   A    
C201  N4    A    
C127  C146  A    
C38   C118  S    
C18   H40   S    
C122  H25   S    
C100  O2    S    
C137  H75   S    
C197  N32   A    
C131  C150  A    
N31   Ni3   S    
C157  C183  A    
N19   N27   A    
C58   C161  S    
C158  C184  A    
N4    N13   A    
N6    N15   A    
H103  O29   S    
C70   C78   A    
C176  H88   S    
C160  C186  A    
C144  C148  A    
C54   C153  S    
C47   N21   A    
C83   C92   A    
C121  H20   S    
N7    Ni8   S    
C17   C26   A    
C91   H69   S    
N25   Ni7   S    
C113  C125  A    
C30   C206  A    
C41   C121  S    
N8    N17   A    
C41   N16   A    
C129  C148  A    
C67   C204  A    
C145  H83   S    
C44   H49   S    
C146  H84   S    
C154  N28   A    
N4    Ni5   S    
C89   H68   S    
C111  O22   D    
C2    C88   A    
C188  H28   S    
C99   C166  S    
C107  O15   S    
C24   C113  A    
H106  O4    S    
C151  H90   S    
C115  H119  S    
C159  C177  A    
N7    N16   A    
C74   H61   S    
C20   C29   A    
C122  H22   S    
C22   C31   A    
C186  C195  A    
C133  C149  A    
H113  O17   S    
C121  H21   S    
N16   Ni3   S    
C37   N11   A    
C147  H85   S    
C42   C69   A    
C117  H8    S    
C69   C83   S    
N23   Ni2   S    
C85   C94   A    
C158  C175  A    
C153  C171  A    
C101  C126  A    
C106  O13   S    
C29   H95   S    
C66   C203  A    
C53   C112  A    
C30   H96   S    
C77   C86   A    
H107  O6    S    
C32   C208  A    
C13   C101  A    
N13   Ni2   S    
C24   C91   A    
C68   C126  A    
C169  C178  A    
C42   C122  S    
C70   H57   S    
H117  O26   S    
N3    Ni6   S    
C8    C14   A    
C102  O3    D    
C13   C89   A    
C18   C27   A    
H101  O12   S    
C21   H43   S    
C98   C164  S    
C110  O20   D    
C52   C156  S    
N26   N29   A    
C51   H56   S    
C53   C157  S    
C104  O7    D    
C27   H93   S    
C51   N26   A    
C187  H99   S    
C56   C160  S    
C46   C93   A    
C171  H31   S    
N8    Ni7   S    
N22   Ni8   S    
N9    Ni2   S    
C191  C208  A    
C43   N18   A    
C67   C84   S    
C188  C196  A    
N24   N31   A    
C98   O28   D    
C118  H11   S    
C90   C128  A    
C77   C135  A    
C120  H17   S    
C119  H14   S    
C3    C166  A    
C143  N27   A    
C106  C199  S    
C6    C169  A    
