data_mof_unit_66909.cif
_audit_creation_date              2013-03-05T15:57:27-0500
_audit_creation_method            fapswitch 2.2
_symmetry_space_group_name_H-M    P1
_symmetry_Int_Tables_number       1
_space_group_crystal_system       triclinic
_cell_length_a                    16.988503
_cell_length_b                    19.378819
_cell_length_c                    8.77261
_cell_angle_alpha                 89.954032
_cell_angle_beta                  102.031636
_cell_angle_gamma                 90.059342
_cell_volume                      2824.64766613

loop_
_atom_site_label
_atom_site_type_symbol
_atom_site_description
_atom_site_fract_x
_atom_site_fract_y
_atom_site_fract_z
_atom_type_partial_charge
P1    P     P_3+3 0.834140 0.419320 0.003900 0.717487
P2    P     P_3+3 0.834140 0.580680 0.503900 0.717800
P3    P     P_3+3 0.334140 0.919320 0.003900 0.717460
P4    P     P_3+3 0.334140 0.080680 0.503900 0.717879
O1    O     O_2   0.841960 0.394640 0.833410 -0.236368
O2    O     O_2   0.841960 0.605360 0.333410 -0.236396
O3    O     O_2   0.341960 0.894640 0.833410 -0.236389
O4    O     O_2   0.341960 0.105360 0.333410 -0.236390
O5    O     O_3   0.907950 0.463080 0.102990 -0.252483
O6    O     O_3   0.907950 0.536920 0.602990 -0.252194
O7    O     O_3   0.407950 0.963080 0.102990 -0.252520
O8    O     O_3   0.407950 0.036920 0.602990 -0.252134
O9    O     O_3   0.972780 0.329600 0.629720 -0.334675
O10   O     O_3   0.972780 0.670400 0.129720 -0.334606
O11   O     O_3   0.472780 0.829600 0.629720 -0.334633
O12   O     O_3   0.472780 0.170400 0.129720 -0.334608
O13   O     O_2   0.837259 0.274524 0.682257 -0.348092
O14   O     O_2   0.837260 0.725299 0.182030 -0.347484
O15   O     O_2   0.337268 0.774524 0.682296 -0.348091
O16   O     O_2   0.337238 0.225266 0.181971 -0.347211
O17   O     O_3   0.740295 0.460665 0.965616 -0.568440
O18   O     O_3   0.740222 0.539326 0.465270 -0.568337
O19   O     O_3   0.240302 0.960676 0.965625 -0.568410
O20   O     O_3   0.240217 0.039335 0.465280 -0.568332
O21   O     O_3   0.943195 0.188119 0.620328 -0.502501
O22   O     O_3   0.943257 0.811870 0.120239 -0.502119
O23   O     O_3   0.443203 0.688124 0.620340 -0.502425
O24   O     O_3   0.443234 0.311872 0.120347 -0.501988
H1    H     H_    0.062054 0.211674 0.712141 0.013711
H2    H     H_    0.062169 0.788693 0.212075 0.014127
H3    H     H_    0.562069 0.711697 0.712059 0.013644
H4    H     H_    0.562140 0.288811 0.212602 0.014591
C1    C     C_3   0.052783 0.120866 0.567843 1.319829
C2    C     C_3   0.052658 0.879376 0.067061 1.319431
C3    C     C_3   0.552786 0.620874 0.567807 1.319761
C4    C     C_3   0.552643 0.379392 0.067250 1.319405
H5    H     H_    0.617673 0.623408 0.566853 -0.085134
H6    H     H_    0.617479 0.377035 0.065872 -0.083783
H7    H     H_    0.117676 0.123393 0.566953 -0.085234
H8    H     H_    0.117493 0.877005 0.065689 -0.083736
P5    P     P_3+3 0.165830 0.418670 0.685610 0.729553
P6    P     P_3+3 0.165830 0.581330 0.185610 0.729052
P7    P     P_3+3 0.665830 0.918670 0.685610 0.729635
P8    P     P_3+3 0.665830 0.081330 0.185610 0.729031
P9    P     P_3+3 0.105319 0.273457 0.121519 0.656724
P10   P     P_3+3 0.105371 0.726603 0.621336 0.656626
P11   P     P_3+3 0.605318 0.773457 0.121541 0.656620
P12   P     P_3+3 0.605365 0.226611 0.621285 0.656713
O25   O     O_2   0.157990 0.394030 0.856030 -0.282022
O26   O     O_2   0.157990 0.605970 0.356030 -0.282404
O27   O     O_2   0.657990 0.894030 0.856030 -0.282126
O28   O     O_2   0.657990 0.105970 0.356030 -0.282424
O29   O     O_3   0.027110 0.329490 0.059550 -0.322441
O30   O     O_3   0.027110 0.670510 0.559550 -0.322504
O31   O     O_3   0.527110 0.829490 0.059550 -0.322425
O32   O     O_3   0.527110 0.170510 0.559550 -0.322339
O33   O     O_2   0.169924 0.288238 0.025372 -0.351150
O34   O     O_2   0.169860 0.711968 0.524936 -0.351478
O35   O     O_2   0.669933 0.788244 0.025419 -0.351285
O36   O     O_2   0.669829 0.212003 0.524812 -0.351535
O37   O     O_3   0.260278 0.460253 0.719083 -0.562415
O38   O     O_3   0.260291 0.539897 0.219259 -0.563056
O39   O     O_3   0.760291 0.960235 0.719125 -0.562256
O40   O     O_3   0.760266 0.039851 0.219157 -0.562718
O41   O     O_3   0.065379 0.194529 0.047119 -0.577634
O42   O     O_3   0.065346 0.805483 0.546989 -0.577757
O43   O     O_3   0.565390 0.694529 0.047128 -0.577587
O44   O     O_3   0.565261 0.305468 0.546934 -0.577859
C5    C     C_3   0.986657 0.186132 0.071756 1.175459
C6    C     C_3   0.986630 0.813646 0.571694 1.175982
C7    C     C_3   0.486650 0.686141 0.071672 1.175812
C8    C     C_3   0.486691 0.313732 0.572427 1.175151
H9    H     H_    0.943744 0.216335 0.983661 -0.038682
H10   H     H_    0.943753 0.783236 0.483931 -0.038816
H11   H     H_    0.443765 0.716358 0.983555 -0.038618
H12   H     H_    0.443569 0.283417 0.484891 -0.039493
C9    C     C_3   0.965325 0.110339 0.051597 -0.769704
C10   C     C_3   0.965063 0.889347 0.550898 -0.770851
C11   C     C_3   0.465299 0.610352 0.051449 -0.770589
C12   C     C_3   0.465261 0.389471 0.552041 -0.767978
H13   H     H_    0.401147 0.602285 0.055646 0.239457
H14   H     H_    0.476257 0.406736 0.438136 0.221145
H15   H     H_    0.901220 0.102246 0.056078 0.239815
H16   H     H_    0.977042 0.906791 0.437942 0.222667
H17   H     H_    0.977340 0.092838 0.938795 0.222851
H18   H     H_    0.003378 0.920652 0.643272 0.327360
H19   H     H_    0.477440 0.592840 0.938741 0.223178
H20   H     H_    0.504465 0.420736 0.643405 0.326437
C13   C     C_3   0.257649 0.467801 0.218996 1.307327
C14   C     C_3   0.257594 0.532339 0.718995 1.306869
C15   C     C_3   0.757521 0.967758 0.218928 1.307123
C16   C     C_3   0.757635 0.032322 0.718980 1.306730
C17   C     C_3   0.339901 0.438562 0.208858 -0.021399
C18   C     C_3   0.339797 0.561786 0.708843 -0.021306
C19   C     C_3   0.839713 0.938378 0.208857 -0.021632
C20   C     C_3   0.839845 0.061734 0.708754 -0.020904
H21   H     H_    0.387321 0.469294 0.284685 0.192850
H22   H     H_    0.387194 0.531379 0.785446 0.192407
H23   H     H_    0.887167 0.968879 0.285176 0.192530
H24   H     H_    0.887244 0.031308 0.785312 0.192500
H25   H     H_    0.344679 0.383651 0.246199 0.119103
H26   H     H_    0.344322 0.616796 0.745286 0.119283
H27   H     H_    0.844236 0.883392 0.245651 0.119085
H28   H     H_    0.844410 0.116741 0.745215 0.119225
Ba1   Ba    Ba6+2 0.000000 0.447380 0.844850 1.914980
Ba2   Ba    Ba6+2 0.000000 0.552620 0.344850 1.914866
Ba3   Ba    Ba6+2 0.500000 0.947380 0.844850 1.914971
Ba4   Ba    Ba6+2 0.500000 0.052620 0.344850 1.914909
C21   C     C_3   0.736650 0.531852 0.965867 1.457033
C22   C     C_3   0.736375 0.468150 0.465819 1.457743
C23   C     C_3   0.236676 0.031863 0.965865 1.456994
C24   C     C_3   0.236359 0.968160 0.465816 1.457519
C25   C     C_3   0.654468 0.549983 0.995914 -0.784328
C26   C     C_3   0.654063 0.450141 0.495589 -0.784594
C27   C     C_3   0.154492 0.050017 0.995866 -0.784406
C28   C     C_3   0.154049 0.950162 0.495611 -0.783896
H29   H     H_    0.607125 0.520454 0.915998 0.279991
H30   H     H_    0.606884 0.479723 0.415469 0.280348
H31   H     H_    0.107148 0.020499 0.915928 0.280091
H32   H     H_    0.106874 0.979744 0.415478 0.280155
H33   H     H_    0.643323 0.605533 0.974839 0.270184
H34   H     H_    0.642734 0.394625 0.474542 0.270245
H35   H     H_    0.143369 0.105571 0.974800 0.270128
H36   H     H_    0.142723 0.894648 0.474556 0.270178
H37   H     H_    0.648576 0.535258 0.114350 0.287726
H38   H     H_    0.648111 0.464864 0.613940 0.287501
H39   H     H_    0.148578 0.035289 0.114285 0.287736
H40   H     H_    0.148092 0.964880 0.613966 0.287710
O45   O     O_3   0.092100 0.536880 0.086720 -0.208835
O46   O     O_3   0.092100 0.463120 0.586720 -0.208691
O47   O     O_3   0.592100 0.036880 0.086720 -0.208841
O48   O     O_3   0.592100 0.963120 0.586720 -0.208603
P13   P     P_3+3 0.896599 0.732292 0.070760 0.596135
P14   P     P_3+3 0.896543 0.267652 0.570884 0.595713
P15   P     P_3+3 0.396601 0.232292 0.070755 0.596535
P16   P     P_3+3 0.396542 0.767654 0.570903 0.595743
C29   C     C_3   0.023573 0.192075 0.602386 0.177150
C30   C     C_3   0.023621 0.808107 0.102205 0.177121
C31   C     C_3   0.523571 0.692083 0.602334 0.177186
C32   C     C_3   0.523647 0.308129 0.102567 0.177384
H41   H     H_    0.031224 0.226108 0.504600 0.027640
H42   H     H_    0.031343 0.774011 0.004703 0.027518
H43   H     H_    0.531193 0.726104 0.504510 0.027663
H44   H     H_    0.531501 0.273960 0.005270 0.027428
H45   H     H_    0.503627 0.579241 0.144182 0.327321
H46   H     H_    0.401369 0.397562 0.558653 0.241485
H47   H     H_    0.003758 0.079240 0.144190 0.327217
H48   H     H_    0.900913 0.897215 0.555241 0.239537
C33   C     C_R   0.136193 0.675736 0.931810 0.448063
C34   C     C_R   0.136064 0.324174 0.432021 0.447487
C35   C     C_R   0.636216 0.175721 0.931762 0.448384
C36   C     C_R   0.636026 0.824144 0.432070 0.447288
C37   C     C_R   0.858317 0.324857 0.264423 0.179091
C38   C     C_R   0.858417 0.675249 0.764238 0.178839
C39   C     C_R   0.358294 0.824877 0.264463 0.179183
C40   C     C_R   0.358446 0.175272 0.764201 0.178468
C41   C     C_R   0.788222 0.217957 0.297552 -0.083462
C42   C     C_R   0.788252 0.781979 0.797544 -0.083888
C43   C     C_R   0.288222 0.717960 0.297573 -0.083387
C44   C     C_R   0.288247 0.281978 0.797535 -0.084780
C45   C     C_R   0.843398 0.270101 0.359604 0.199190
C46   C     C_R   0.843471 0.729898 0.859480 0.199789
C47   C     C_R   0.343390 0.770110 0.359630 0.199113
C48   C     C_R   0.343486 0.229911 0.859459 0.199958
C49   C     C_R   0.816105 0.332441 0.107292 0.199238
C50   C     C_R   0.816142 0.667630 0.607169 0.198954
C51   C     C_R   0.316098 0.832449 0.107317 0.199160
C52   C     C_R   0.316151 0.167639 0.607150 0.198858
C53   C     C_R   0.753986 0.279946 0.047804 -0.235715
C54   C     C_R   0.753992 0.720102 0.547823 -0.235264
C55   C     C_R   0.253985 0.779949 0.047828 -0.235703
C56   C     C_R   0.253994 0.220107 0.547808 -0.235169
C57   C     C_R   0.241325 0.721214 0.144388 -0.223291
C58   C     C_R   0.241332 0.278775 0.644403 -0.223724
C59   C     C_R   0.741327 0.221211 0.144363 -0.223341
C60   C     C_R   0.741331 0.778771 0.644417 -0.223554
C61   C     C_R   0.179936 0.668726 0.086026 0.063544
C62   C     C_R   0.179899 0.331226 0.586159 0.063510
C63   C     C_R   0.679944 0.168718 0.085996 0.063396
C64   C     C_R   0.679889 0.831216 0.586182 0.063443
C65   C     C_R   0.151443 0.728682 0.835391 0.043505
C66   C     C_R   0.151332 0.271322 0.335579 0.043728
C67   C     C_R   0.651454 0.228677 0.835349 0.043993
C68   C     C_R   0.651319 0.771311 0.335606 0.043567
C69   C     C_R   0.203120 0.782505 0.896508 0.311570
C70   C     C_R   0.203092 0.217585 0.396583 0.311871
C71   C     C_R   0.703120 0.282503 0.896483 0.311680
C72   C     C_R   0.703094 0.717582 0.396594 0.311807
H49   H     H_    0.280761 0.675697 0.372905 0.221418
H50   H     H_    0.280720 0.324132 0.872926 0.221771
H51   H     H_    0.780758 0.175696 0.372887 0.221385
H52   H     H_    0.780745 0.824146 0.872923 0.221504
Cl1   Cl    Cl    0.361088 0.441936 0.021327 -0.514962
Cl2   Cl    Cl    0.361324 0.557894 0.521634 -0.514897
Cl3   Cl    Cl    0.861161 0.942040 0.021552 -0.514663
Cl4   Cl    Cl    0.861320 0.057840 0.521500 -0.514679
Cl5   Cl    Cl    0.735918 0.562021 0.781143 -0.747507
Cl6   Cl    Cl    0.735795 0.437823 0.281351 -0.748005
Cl7   Cl    Cl    0.235981 0.062021 0.781158 -0.747473
Cl8   Cl    Cl    0.235745 0.937838 0.281321 -0.747893
F1    F     F_    0.797958 0.561993 0.070878 -0.630020
F2    F     F_    0.797492 0.438033 0.571197 -0.629826
F3    F     F_    0.297981 0.061996 0.070891 -0.630025
F4    F     F_    0.297477 0.938031 0.571174 -0.629831
F5    F     F_    0.512218 0.598549 0.423595 -0.641791
F6    F     F_    0.511798 0.401517 0.923058 -0.641156
F7    F     F_    0.012243 0.098563 0.423598 -0.641675
F8    F     F_    0.011825 0.901562 0.922917 -0.641286
Cl9   Cl    Cl    0.685702 0.355558 0.783457 -0.566920
Cl10  Cl    Cl    0.685908 0.644635 0.283403 -0.566390
Cl11  Cl    Cl    0.185708 0.855563 0.783481 -0.566508
Cl12  Cl    Cl    0.185899 0.144634 0.283408 -0.566453
F9    F     F_    0.085372 0.625234 0.866498 -0.603383
F10   F     F_    0.085124 0.374570 0.366793 -0.603790
F11   F     F_    0.585433 0.125199 0.866427 -0.603359
F12   F     F_    0.585022 0.874504 0.366885 -0.603809
Cl13  Cl    Cl    0.921359 0.391097 0.356809 -0.435230
Cl14  Cl    Cl    0.921650 0.609156 0.856439 -0.435659
Cl15  Cl    Cl    0.421273 0.891153 0.356889 -0.435082
Cl16  Cl    Cl    0.421726 0.109207 0.856367 -0.435696
F13   F     F_    0.040199 0.074399 0.679338 -0.713977
F14   F     F_    0.040265 0.925834 0.178518 -0.714193
F15   F     F_    0.540243 0.574418 0.679362 -0.714034
F16   F     F_    0.540219 0.425888 0.178608 -0.714290
F17   F     F_    0.979698 0.205809 0.220092 -0.736024
F18   F     F_    0.979839 0.794072 0.720253 -0.736294
F19   F     F_    0.479654 0.705804 0.219994 -0.736025
F20   F     F_    0.480219 0.294106 0.721147 -0.736406
Cl17  Cl    Cl    0.241196 0.440946 0.394651 -0.689483
Cl18  Cl    Cl    0.241139 0.558965 0.894703 -0.689291
Cl19  Cl    Cl    0.740968 0.941001 0.394548 -0.689258
Cl20  Cl    Cl    0.741221 0.058997 0.894693 -0.689305
F21   F     F_    0.197804 0.441408 0.106377 -0.630275
F22   F     F_    0.197740 0.558725 0.606461 -0.630589
F23   F     F_    0.697653 0.941409 0.106312 -0.630360
F24   F     F_    0.697777 0.058711 0.606454 -0.630619

loop_
_geom_bond_atom_site_label_1
_geom_bond_atom_site_label_2
_geom_bond_distance
_ccdc_geom_bond_type
Ba2   O45   3.024600 S    
C55   C57   1.460555 A    
P1    O17   1.753697 S    
H2    C30   1.111832 S    
C14   C18   1.527719 S    
C70   Cl12  1.717588 S    
C22   Cl6   1.720222 S    
O24   P15   1.746429 S    
O9    P14   1.761828 S    
C43   H49   1.075828 S    
P3    O19   1.753695 S    
O20   C24   1.380825 S    
P5    O37   1.763911 S    
C8    H12   1.112112 S    
P13   C46   1.885409 S    
C11   H19   1.104994 S    
C4    F6    1.378111 S    
P7    O39   1.763943 S    
C34   C66   1.387630 A    
C54   C60   1.461162 A    
P2    C50   1.967849 S    
P8    O40   1.764105 S    
P8    O47   1.615380 S    
P4    Ba4   3.438817 S    
P9    O33   1.543679 D    
C1    H7    1.105122 S    
P5    Ba1   3.441347 S    
P1    O1    1.602328 D    
O23   P16   1.746381 S    
C44   C48   1.407978 A    
P10   C65   1.878230 S    
P7    O48   1.616021 S    
C3    H5    1.105160 S    
P10   O42   1.743565 S    
P3    O3    1.602328 D    
C65   C69   1.396002 A    
P5    O46   1.616021 S    
P4    O20   1.753599 S    
C19   H23   1.105499 S    
C6    C10   1.514078 S    
C16   Cl20  1.703477 S    
P6    C61   1.942430 S    
C13   F21   1.360981 S    
O38   C13   1.397815 S    
C15   F23   1.360883 S    
C16   C20   1.527739 S    
C12   H20   1.109261 S    
C27   H39   1.101701 S    
C14   F22   1.360799 S    
O14   P13   1.548284 D    
Ba2   O46   2.928149 S    
C66   C70   1.396012 A    
O11   Ba3   2.937001 S    
C5    C9    1.514115 S    
O32   Ba4   2.936314 S    
Ba4   O47   3.024600 S    
C39   C47   1.404878 A    
C23   Cl7   1.719821 S    
C31   H43   1.110466 S    
C3    F5    1.378200 S    
C71   Cl9   1.717924 S    
C56   C70   1.425440 A    
O18   C22   1.380838 S    
O24   C32   1.408846 S    
O39   C16   1.397739 S    
P2    O18   1.753610 S    
Ba3   Ba4   4.835760 S    
C69   Cl11  1.717964 S    
C5    H9    1.112022 S    
C4    F16   1.377879 S    
C43   C47   1.407935 A    
C57   C61   1.469855 A    
C43   C57   1.413586 A    
C36   C68   1.387621 A    
P4    O8    1.610493 S    
P6    O38   1.764038 S    
C37   Cl13  1.757425 S    
P4    O4    1.601530 D    
C34   C62   1.407818 A    
O1    Ba1   2.853993 S    
C3    C31   1.518923 S    
C10   H18   1.108366 S    
C12   H46   1.110284 S    
P9    O29   1.714898 S    
C35   F11   1.350693 S    
C58   C62   1.470547 A    
P10   O34   1.543745 D    
O3    Ba3   2.853993 S    
C33   C65   1.387345 A    
O13   P14   1.548352 D    
P2    O2    1.601530 D    
C72   Cl10  1.717604 S    
O4    Ba4   2.855926 S    
P8    C63   1.942468 S    
P11   O43   1.743733 S    
C56   C58   1.461148 A    
P9    C66   1.878054 S    
P12   O36   1.543752 D    
C68   C72   1.395997 A    
P8    Ba4   3.440041 S    
C49   C53   1.479843 A    
C9    H47   1.108251 S    
C4    C32   1.518982 S    
P7    C64   1.944241 S    
C27   H35   1.101997 S    
O30   Ba2   2.936314 S    
C19   H27   1.111212 S    
P3    C51   1.965566 S    
C14   Cl18  1.703397 S    
C44   C58   1.413284 A    
P5    C62   1.944205 S    
P1    O5    1.609860 S    
C53   C71   1.425887 A    
C11   H45   1.108358 S    
C30   H42   1.110521 S    
C17   H25   1.111208 S    
C11   H13   1.109026 S    
C55   C69   1.425869 A    
P11   C68   1.878055 S    
Ba1   O45   2.928245 S    
O11   P16   1.761792 S    
P3    Ba3   3.437539 S    
O5    Ba2   2.928327 S    
C1    C29   1.518919 S    
C2    C30   1.518942 S    
C10   H16   1.104994 S    
O23   C31   1.408772 S    
C7    C11   1.514125 S    
C28   H32   1.109290 S    
C15   Cl19  1.703111 S    
C36   C64   1.407818 A    
O21   C29   1.408757 S    
C41   H51   1.075832 S    
C6    H10   1.112044 S    
C21   C25   1.515510 S    
C3    F15   1.377934 S    
O8    Ba3   2.928229 S    
C36   F12   1.350728 S    
C60   C64   1.470539 A    
C35   C63   1.407784 A    
P15   C48   1.885468 S    
P1    C49   1.965559 S    
C42   H52   1.075884 S    
O44   C8    1.407922 S    
P10   O30   1.714819 S    
P2    Ba2   3.438817 S    
C33   C61   1.407750 A    
O2    Ba2   2.855926 S    
C25   H33   1.101983 S    
C40   Cl16  1.757078 S    
P7    Ba3   3.441347 S    
P12   O44   1.743618 S    
C39   Cl15  1.757507 S    
O21   P14   1.746390 S    
P6    Ba2   3.440041 S    
O28   Ba4   2.857809 S    
C26   H30   1.109271 S    
C12   H14   1.105657 S    
C41   C59   1.413597 A    
C25   H29   1.109265 S    
O9    Ba1   2.937001 S    
P6    O26   1.601606 D    
C50   C54   1.480544 A    
O12   Ba4   2.935391 S    
C27   H31   1.109249 S    
C20   H28   1.111154 S    
P9    O41   1.743744 S    
C2    H8    1.105038 S    
C38   Cl14  1.757160 S    
C24   F4    1.368779 S    
C23   F3    1.368988 S    
P2    O6    1.610493 S    
C41   C45   1.407932 A    
C22   C26   1.515420 S    
C24   C28   1.515406 S    
H1    C29   1.111905 S    
O37   C14   1.397712 S    
P11   O31   1.714902 S    
C52   C56   1.480553 A    
C42   C60   1.413288 A    
P12   O32   1.714772 S    
C29   H41   1.110468 S    
C1    F7    1.378161 S    
C19   Cl3   1.757015 S    
C28   H36   1.101614 S    
C37   C49   1.422591 A    
C18   Cl2   1.757067 S    
P4    C52   1.967877 S    
C7    F19   1.384826 S    
C35   C67   1.387383 A    
C38   C46   1.405195 A    
C17   Cl1   1.756967 S    
C6    F18   1.384718 S    
C9    H15   1.108913 S    
Ba3   O48   3.023906 S    
O22   C30   1.408746 S    
C5    F17   1.384834 S    
P8    O28   1.601606 D    
P12   C67   1.878359 S    
O17   C21   1.380993 S    
H4    C32   1.111907 S    
Ba1   O46   3.023906 S    
O10   P13   1.761860 S    
C10   H48   1.109072 S    
C53   C59   1.460554 A    
P5    O25   1.600808 D    
O19   C23   1.380989 S    
Ba1   Ba2   4.835760 S    
C59   C63   1.469844 A    
C21   Cl5   1.719923 S    
P14   C45   1.885490 S    
C51   C55   1.479839 A    
C22   F2    1.368755 S    
C2    F8    1.378082 S    
Ba3   O47   2.928245 S    
C4    H6    1.105048 S    
O15   P16   1.548352 D    
C44   H50   1.075837 S    
C8    C12   1.514049 S    
O22   P13   1.746411 S    
C8    F20   1.384843 S    
C7    H11   1.112028 S    
O25   Ba1   2.859765 S    
P7    O27   1.600808 D    
O42   C6    1.407700 S    
C39   C51   1.422599 A    
C9    H17   1.104900 S    
O41   C5    1.407743 S    
C20   H24   1.105440 S    
C21   F1    1.369005 S    
C17   H21   1.105617 S    
C16   F24   1.360817 S    
P6    O45   1.615380 S    
O43   C7    1.407740 S    
C34   F10   1.350746 S    
O16   P15   1.548280 D    
C13   C17   1.528081 S    
C33   F9    1.350710 S    
Ba4   O48   2.928149 S    
P3    O7    1.609860 S    
C42   C46   1.407988 A    
P11   O35   1.543690 D    
C26   H34   1.101658 S    
C40   C52   1.422588 A    
O29   Ba1   2.934705 S    
C20   Cl4   1.757095 S    
C25   H37   1.101716 S    
C40   C48   1.405188 A    
C15   C19   1.528018 S    
O27   Ba3   2.859765 S    
C28   H40   1.101795 S    
O10   Ba2   2.935391 S    
C54   C72   1.425442 A    
O7    Ba4   2.928327 S    
O26   Ba2   2.857809 S    
C26   H38   1.101757 S    
C18   H22   1.105413 S    
C38   C50   1.422590 A    
O6    Ba1   2.928229 S    
C23   C27   1.515492 S    
O31   Ba3   2.934705 S    
O40   C15   1.397784 S    
C13   Cl17  1.703377 S    
C32   H44   1.110560 S    
O12   P15   1.761855 S    
H3    C31   1.111927 S    
C24   Cl8   1.720300 S    
C37   C45   1.404860 A    
C67   C71   1.395997 A    
C2    F14   1.377862 S    
C18   H26   1.111158 S    
P1    Ba1   3.437539 S    
P16   C47   1.885472 S    
C1    F13   1.377901 S    
