data_mof_unit_61478.cif
_audit_creation_date              2012-10-26T20:44:32-0400
_audit_creation_method            fapswitch 2.2
_symmetry_space_group_name_H-M    P1
_symmetry_Int_Tables_number       1
_space_group_crystal_system       triclinic
_cell_length_a                    13.142479
_cell_length_b                    14.43049
_cell_length_c                    17.360761
_cell_angle_alpha                 90.00008
_cell_angle_beta                  86.018765
_cell_angle_gamma                 90.000033
_cell_volume                      3284.5648493

loop_
_atom_site_label
_atom_site_type_symbol
_atom_type_description
_atom_site_fract_x
_atom_site_fract_y
_atom_site_fract_z
_atom_type_partial_charge
C1    C     C_R   0.500000 0.671287 0.500000 0.552900
C2    C     C_1   0.173622 0.500003 0.500013 0.121075
C3    C     C_1   0.949318 0.500005 0.499996 -0.047083
C4    C     C_1   0.050681 0.500005 0.500004 -0.047083
C5    C     C_R   0.487449 0.499812 0.651837 0.554228
C6    C     C_R   0.512550 0.499812 0.348163 0.554228
C7    C     C_R   0.480040 0.511354 0.735094 -0.005213
C8    C     C_R   0.519960 0.511352 0.264906 -0.005210
C9    C     C_R   0.551865 0.566483 0.769324 -0.120388
C10   C     C_R   0.448142 0.566491 0.230676 -0.120387
C11   C     C_R   0.544014 0.581698 0.848850 0.114762
C12   C     C_R   0.500000 0.328709 0.500000 0.553033
C13   C     C_R   0.455995 0.581703 0.151150 0.114762
C14   C     C_R   0.466030 0.536751 0.894908 0.069315
C15   C     C_R   0.533970 0.536746 0.105092 0.069315
C16   C     C_R   0.392598 0.483970 0.859737 -0.144105
C17   C     C_R   0.607395 0.483955 0.140262 -0.144105
C18   C     C_R   0.399010 0.471941 0.780094 -0.137385
C19   C     C_R   0.600983 0.471928 0.219906 -0.137385
C20   C     C_2   0.458591 0.541945 0.979583 -0.075029
C21   C     C_2   0.541409 0.541939 0.020417 -0.075029
C22   C     C_1   0.500000 0.772864 0.500000 -0.045662
C23   C     C_1   0.500000 0.227127 0.500000 -0.045202
C24   C     C_1   0.500000 0.857680 0.500000 -0.040739
C25   C     C_1   0.500000 0.142310 0.500000 -0.040516
C26   C     C_1   0.500000 0.957587 0.500000 0.001591
C27   C     C_1   0.500000 0.042402 0.500000 0.001625
C28   C     C_1   0.826378 0.500003 0.499986 0.121076
Cu1   Cu    Cu3+1 0.407320 0.500000 0.500010 0.978921
Cu2   Cu    Cu3+1 0.592680 0.500000 0.499990 0.978921
H1    H     H_    0.612233 0.600264 0.734002 0.119912
H2    H     H_    0.396084 0.710104 0.144506 0.237624
H3    H     H_    0.686939 0.622856 0.868029 0.220436
H4    H     H_    0.603947 0.710090 0.855492 0.237623
H5    H     H_    0.387781 0.600279 0.265998 0.119909
H6    H     H_    0.657892 0.430441 0.246213 0.126134
H7    H     H_    0.342094 0.430462 0.753786 0.126137
H8    H     H_    0.616655 0.534559 0.991092 0.139742
H9    H     H_    0.383344 0.534576 0.008907 0.139743
H10   H     H_    0.331170 0.450602 0.894192 0.107046
H11   H     H_    0.668817 0.450579 0.105807 0.107046
H12   H     H_    0.313076 0.622882 0.131974 0.220437
N1    N     N_1   0.731930 0.500000 0.499980 -0.168497
N2    N     N_1   0.268070 0.500000 0.500020 -0.168497
N3    N     N_3   0.387699 0.645598 0.118255 -0.634692
N4    N     N_3   0.612320 0.645583 0.881745 -0.634690
O1    O     O_R   0.421720 0.623950 0.500010 -0.473037
O2    O     O_R   0.578280 0.376050 0.499990 -0.472737
O3    O     O_R   0.578280 0.623950 0.499990 -0.473037
O4    O     O_R   0.421720 0.376050 0.500010 -0.472737
O5    O     O_R   0.412660 0.500000 0.613600 -0.487573
O6    O     O_R   0.587340 0.500000 0.386400 -0.487572
O7    O     O_R   0.569190 0.500000 0.613590 -0.491975
O8    O     O_R   0.430810 0.500000 0.386410 -0.491974

loop_
_geom_bond_atom_site_label_1
_geom_bond_atom_site_label_2
_ccdc_geom_bond_type
C2    N2    T    
C2    C4    S    
C10   C13   A    
Cu1   Cu2   S    
H4    N4    S    
C14   C20   S    
C25   C27   S    
C5    C7    S    
H2    N3    S    
C28   N1    T    
C12   O4    A    
C12   O2    A    
C7    C18   A    
C13   C15   A    
C1    C22   S    
C13   N3    S    
H3    N4    S    
C9    C11   A    
C12   C23   S    
C26   C27   T    
C10   H5    S    
Cu1   O1    S    
C5    O7    A    
C3    C28   S    
C17   C19   A    
Cu2   O3    S    
C16   H10   S    
C6    O8    A    
C14   C16   A    
Cu1   O4    S    
C23   C25   T    
Cu1   N2    S    
Cu2   O7    S    
C22   C24   T    
Cu2   N1    S    
C8    C19   A    
Cu1   O8    S    
C9    H1    S    
C3    C4    T    
C7    C9    A    
C15   C21   S    
C20   C21   D    
C16   C18   A    
Cu1   O5    S    
Cu2   O2    S    
C11   C14   A    
C15   C17   A    
C20   H9    S    
Cu2   O6    S    
C5    O5    A    
C11   N4    S    
C6    C8    S    
C17   H11   S    
C6    O6    A    
C19   H6    S    
C1    O3    A    
C18   H7    S    
C8    C10   A    
C1    O1    A    
C21   H8    S    
C24   C26   S    
H12   N3    S    
