data_mof_unit_23025.cif
_audit_creation_date              2012-12-10T16:43:24-0500
_audit_creation_method            fapswitch 2.2
_symmetry_space_group_name_H-M    P1
_symmetry_Int_Tables_number       1
_space_group_crystal_system       triclinic
_cell_length_a                    10.811727
_cell_length_b                    8.690881
_cell_length_c                    7.483714
_cell_angle_alpha                 103.132269
_cell_angle_beta                  94.423606
_cell_angle_gamma                 94.065219
_cell_volume                      679.928907686

loop_
_atom_site_label
_atom_site_type_symbol
_atom_type_description
_atom_site_fract_x
_atom_site_fract_y
_atom_site_fract_z
_atom_type_partial_charge
C1    C     C_R   0.494485 0.199566 0.453077 0.900070
C2    C     C_R   0.079691 0.632811 0.635444 0.071831
C3    C     C_R   0.130457 0.513273 0.508223 -0.071842
C4    C     C_R   0.053993 0.402044 0.374452 -0.261658
C5    C     C_R   0.925835 0.397748 0.371409 -0.021708
C6    C     C_R   0.872385 0.517586 0.494168 -0.108799
C7    C     C_2   0.490355 0.031143 0.427026 -0.274261
C8    C     C_2   0.496817 0.967687 0.572974 -0.353074
C9    C     C_R   0.263227 0.504690 0.503003 0.761506
C10   C     C_R   0.498363 0.799693 0.547011 0.881158
C11   C     C_R   0.737670 0.505343 0.498613 0.896364
C12   C     C_R   0.155187 0.745986 0.774826 -0.168025
C13   C     C_R   0.102898 0.864258 0.895086 -0.137302
C14   C     C_R   0.977664 0.884258 0.866121 -0.173743
C15   C     C_R   0.903025 0.784005 0.718697 -0.002282
C16   C     C_R   0.949560 0.644174 0.616594 0.064020
Cu1   Cu    Cu3+1 0.513920 0.517380 0.684380 1.038590
Cu2   Cu    Cu3+1 0.486080 0.482620 0.315620 1.071669
H1    H     H_    0.095044 0.311403 0.277924 0.137306
H2    H     H_    0.254981 0.747317 0.793946 0.164521
H3    H     H_    0.161523 0.947763 0.003327 0.135925
H4    H     H_    0.941697 0.986904 0.948900 0.125520
H5    H     H_    0.483321 0.959159 0.286670 0.188799
H6    H     H_    0.503795 0.039659 0.713323 0.183438
N1    N     N_2   0.465100 0.456430 0.038520 0.136617
N2    N     N_2   0.534900 0.543570 0.961480 0.129358
O1    O     O_R   0.509050 0.286130 0.619770 -0.542327
O2    O     O_R   0.485540 0.256780 0.308360 -0.595499
O3    O     O_R   0.331410 0.514680 0.655740 -0.558474
O4    O     O_R   0.307900 0.485330 0.344330 -0.609125
O5    O     O_R   0.514460 0.743220 0.691640 -0.635571
O6    O     O_R   0.490950 0.713870 0.380230 -0.522456
O7    O     O_R   0.692100 0.514670 0.655670 -0.620048
O8    O     O_R   0.668590 0.485320 0.344260 -0.503723
O9    O     O_3   0.619757 0.647050 0.075399 -0.572561
H7    H     H_    0.664232 0.702776 0.994267 0.332727
C17   C     C_2   0.791483 0.850496 0.653032 0.331975
H8    H     H_    0.738569 0.923636 0.751450 0.072414
O10   O     O_2   0.764617 0.836252 0.488229 -0.510207
C18   C     C_2   0.852469 0.263471 0.238846 0.397878
H9    H     H_    0.882049 0.223411 0.102269 0.046406
O11   O     O_2   0.762600 0.192505 0.282844 -0.535730
O12   O     O_3   0.380284 0.352936 0.924551 -0.611691
H10   H     H_    0.335870 0.297114 0.005642 0.322015

loop_
_geom_bond_atom_site_label_1
_geom_bond_atom_site_label_2
_ccdc_geom_bond_type
C1    O2    A    
O12   H10   S    
C17   H8    S    
Cu2   O4    S    
Cu1   O3    S    
C2    C16   A    
O9    H7    S    
C9    O3    A    
C2    C12   A    
C12   H2    S    
C18   O11   D    
Cu1   Cu2   S    
C13   H3    S    
C7    C8    D    
C17   O10   D    
C13   C14   A    
Cu2   O8    S    
N1    O12   S    
C5    C6    A    
Cu2   N1    S    
Cu1   O7    S    
C9    O4    A    
C3    C9    S    
Cu1   N2    S    
C18   H9    S    
C8    H6    S    
C2    C3    A    
C14   H4    S    
Cu1   O5    S    
C7    H5    S    
Cu2   O6    S    
C6    C16   A    
C3    C4    A    
Cu1   O1    S    
C10   O6    A    
N2    O9    S    
C11   O7    A    
Cu2   O2    S    
C12   C13   A    
C8    C10   S    
C5    C18   S    
C6    C11   S    
C1    O1    A    
C14   C15   A    
C15   C17   S    
N1    N2    D    
C1    C7    S    
C4    H1    S    
C10   O5    A    
C11   O8    A    
C15   C16   A    
C4    C5    A    
