data_mof_unit_53832.cif
_audit_creation_date              2013-03-05T16:02:49-0500
_audit_creation_method            fapswitch 2.2
_symmetry_space_group_name_H-M    P1
_symmetry_Int_Tables_number       1
_space_group_crystal_system       triclinic
_cell_length_a                    23.639436
_cell_length_b                    11.821037
_cell_length_c                    10.446282
_cell_angle_alpha                 89.853566
_cell_angle_beta                  89.993853
_cell_angle_gamma                 89.875019
_cell_volume                      2919.12020609

loop_
_atom_site_label
_atom_site_type_symbol
_atom_site_description
_atom_site_fract_x
_atom_site_fract_y
_atom_site_fract_z
_atom_type_partial_charge
O1    O     O_R   0.500000 0.337200 0.605810 -0.566499
O2    O     O_R   0.500000 0.662800 0.394190 -0.551303
O3    O     O_R   0.500000 0.662800 0.605810 -0.563438
O4    O     O_R   0.500000 0.337200 0.394190 -0.551346
C1    C     C_R   0.499456 0.283170 0.500159 0.871854
C2    C     C_R   0.499685 0.716838 0.499862 0.868408
O5    O     O_R   0.417880 0.500000 0.605840 -0.536671
O6    O     O_R   0.582120 0.500000 0.394160 -0.530482
O7    O     O_R   0.582120 0.500000 0.605840 -0.542617
O8    O     O_R   0.417880 0.500000 0.394160 -0.527326
C3    C     C_R   0.390443 0.499758 0.500006 0.960150
C4    C     C_R   0.609451 0.500217 0.499981 0.985098
Cu1   Cu    Cu3+1 0.500000 0.500000 0.625300 1.122109
Cu2   Cu    Cu3+1 0.500000 0.500000 0.374700 1.138292
C5    C     C_R   0.880531 0.599939 0.477074 0.733288
C6    C     C_R   0.118452 0.400073 0.514714 0.730272
C7    C     C_R   0.880303 0.404939 0.533618 0.731665
C8    C     C_R   0.118729 0.600596 0.495744 0.729753
N1    N     N_R   0.852094 0.502577 0.504820 -0.425524
N2    N     N_R   0.147084 0.500011 0.504694 -0.424800
C9    C     C_R   0.939720 0.399769 0.523405 -0.170828
C10   C     C_R   0.059356 0.602522 0.482956 -0.181117
C11   C     C_R   0.939925 0.604222 0.488337 -0.173347
C12   C     C_R   0.059135 0.399470 0.528676 -0.183765
C13   C     C_R   0.969676 0.501764 0.505962 -0.082606
C14   C     C_R   0.029402 0.501269 0.505928 -0.084663
C15   C     C_R   0.970017 0.297135 0.534738 0.258379
C16   C     C_R   0.029002 0.702694 0.454058 0.293959
C17   C     C_R   0.970414 0.706373 0.477334 0.257287
C18   C     C_R   0.028598 0.299934 0.558013 0.293626
O9    O     O_2   0.851371 0.690438 0.433802 -0.407683
O10   O     O_2   0.147286 0.301912 0.505524 -0.408643
O11   O     O_2   0.850854 0.314957 0.576605 -0.415581
O12   O     O_2   0.147941 0.698078 0.504586 -0.415789
C19   C     C_R   0.237308 0.549087 0.401195 0.580331
C20   C     C_R   0.762452 0.435780 0.414561 0.580582
C21   C     C_R   0.238238 0.448766 0.603131 0.581300
C22   C     C_R   0.761209 0.569564 0.589420 0.582292
C23   C     C_R   0.296506 0.556187 0.402361 0.168727
C24   C     C_R   0.703188 0.430973 0.414788 0.167427
C25   C     C_R   0.297358 0.440911 0.598868 0.256939
C26   C     C_R   0.701974 0.573666 0.585986 0.256393
C27   C     C_R   0.327585 0.498865 0.500252 -0.466326
C28   C     C_R   0.672130 0.501659 0.500113 -0.460296
C29   C     C_R   0.208109 0.499331 0.503057 -0.067627
C30   C     C_R   0.791265 0.502638 0.502971 -0.058629
C31   C     C_1   0.499296 0.161742 0.500391 -0.068834
C32   C     C_1   0.499485 0.838262 0.499673 -0.071117
C33   C     C_1   0.499284 0.059740 0.500220 0.060804
C34   C     C_1   0.499361 0.940264 0.499859 0.060580
N3    N     N_1   0.500000 0.500000 0.186410 -0.108082
N4    N     N_1   0.500000 0.500000 0.813590 -0.110824
C35   C     C_1   0.499997 0.500000 0.071999 0.213474
C36   C     C_1   0.499997 0.500000 0.928001 0.209059
S1    S     S_3+6 0.939828 0.168549 0.480537 0.188057
O13   O     O_2   0.912838 0.107412 0.590917 -0.079497
O14   O     O_2   0.895664 0.191060 0.379983 -0.179004
O15   O     O_3   0.990521 0.087306 0.415392 -0.388940
H1    H     H_    0.004882 0.131528 0.341613 0.342571
S2    S     S_3+6 0.060042 0.811606 0.359254 0.144898
O16   O     O_2   0.088975 0.895904 0.444078 -0.143462
O17   O     O_2   0.102790 0.760965 0.269354 -0.183093
O18   O     O_3   0.010292 0.877640 0.271530 -0.446709
H2    H     H_    0.031343 0.932405 0.217809 0.385868
S3    S     S_3+6 0.940292 0.835333 0.531400 0.188611
O19   O     O_2   0.913296 0.896608 0.420971 -0.077405
O20   O     O_2   0.896114 0.813272 0.631962 -0.179295
O21   O     O_3   0.990989 0.916199 0.596414 -0.388969
H3    H     H_    0.005368 0.871903 0.670204 0.342577
S4    S     S_3+6 0.059477 0.190790 0.653095 0.145323
O22   O     O_2   0.088066 0.105592 0.568496 -0.141921
O23   O     O_2   0.102491 0.240956 0.742401 -0.183491
O24   O     O_3   0.009644 0.126086 0.741459 -0.447340
H4    H     H_    0.030598 0.071051 0.795250 0.385738
F1    F     F_    0.207235 0.591669 0.301256 -0.534090
F2    F     F_    0.793065 0.375054 0.328727 -0.538784
F3    F     F_    0.209194 0.406478 0.704620 -0.526238
F4    F     F_    0.790534 0.630646 0.676915 -0.530119
S5    S     S_3+6 0.329435 0.642563 0.283795 0.131242
O25   O     O_2   0.355036 0.567991 0.182814 -0.202478
O26   O     O_2   0.287576 0.720876 0.220960 -0.131319
O27   O     O_3   0.380622 0.721450 0.350289 -0.526256
H5    H     H_    0.361756 0.762642 0.420918 0.333695
S6    S     S_3+6 0.669585 0.331729 0.311931 0.129120
O28   O     O_2   0.642965 0.393835 0.201564 -0.208347
O29   O     O_2   0.710916 0.246691 0.259831 -0.124203
O30   O     O_3   0.619108 0.261756 0.392626 -0.539951
H6    H     H_    0.638750 0.228347 0.467508 0.340498
S7    S     S_3+6 0.331090 0.352726 0.714638 0.110458
O31   O     O_2   0.377088 0.284515 0.652056 -0.313287
O32   O     O_2   0.356216 0.425557 0.817682 -0.239758
O33   O     O_3   0.284716 0.262625 0.781889 -0.382362
H7    H     H_    0.306892 0.220256 0.846701 0.383987
S8    S     S_3+6 0.667013 0.673579 0.685891 0.107900
O34   O     O_2   0.621085 0.732048 0.611448 -0.322130
O35   O     O_2   0.641492 0.612789 0.798412 -0.246788
O36   O     O_3   0.712151 0.772302 0.740127 -0.376748
H8    H     H_    0.688936 0.822150 0.795337 0.385157

loop_
_geom_bond_atom_site_label_1
_geom_bond_atom_site_label_2
_geom_bond_distance
_ccdc_geom_bond_type
C25   S7    1.781918 S    
O30   H6    0.990535 S    
O24   H4    0.990524 S    
C24   S6    1.781157 S    
S6    O30   1.679030 S    
S1    O13   1.502182 D    
O3    C2    1.276470 A    
O36   H8    0.990592 S    
N1    C30   1.438080 S    
C31   C33   1.205776 T    
C35   C36   1.504243 S    
O5    C3    1.281854 A    
C1    C31   1.435416 S    
C19   F1    1.358153 S    
C2    C32   1.435354 S    
S2    O18   1.680700 S    
O1    C1    1.276631 A    
C11   C17   1.412046 A    
C16   C17   1.406756 A    
S6    O29   1.503244 D    
C22   C26   1.401468 A    
C15   S1    1.774695 S    
S2    O17   1.503840 D    
O7    Cu1   1.951863 S    
C20   F2    1.357879 S    
C5    N1    1.364618 A    
O21   H3    0.990520 S    
S3    O20   1.503919 D    
C20   C30   1.395604 A    
S4    O22   1.501169 D    
S7    O32   1.503254 D    
N2    C29   1.442715 S    
O3    Cu1   1.934687 S    
C6    N2    1.366576 A    
S8    O35   1.503131 D    
C5    C11   1.410008 A    
C9    C15   1.412237 A    
C6    C12   1.409787 A    
C10   C16   1.415167 A    
Cu1   Cu2   2.617838 S    
C15   C18   1.406497 A    
C21   C25   1.401149 A    
C25   C27   1.428128 A    
C26   S8    1.780169 S    
O2    C2    1.276809 A    
C26   C28   1.426038 A    
C18   S4    1.781431 S    
N4    C36   1.195170 T    
C16   S2    1.781618 S    
C20   C24   1.402250 A    
S6    O28   1.502676 D    
O8    Cu2   1.951866 S    
S5    O26   1.503354 D    
C23   C27   1.427966 A    
C22   F4    1.357574 S    
S8    O36   1.682372 S    
C13   C14   1.411869 A    
C21   F3    1.357918 S    
O27   H5    0.990543 S    
C7    C9    1.409823 A    
S5    O25   1.502787 D    
S2    O16   1.501203 D    
N3    C35   1.195170 T    
C23   S5    1.783069 S    
C19   C23   1.402173 A    
Cu1   N4    1.966931 S    
Cu2   N3    1.966930 S    
O5    Cu1   1.951909 S    
O6    C4    1.280471 A    
S3    O21   1.679215 S    
S4    O24   1.680758 S    
C7    O11   1.348498 S    
S7    O33   1.682512 S    
C3    C27   1.485985 S    
C8    O12   1.348075 S    
C17   S3    1.774681 S    
C33   C34   1.412347 S    
S1    O14   1.503908 D    
O1    Cu1   1.935722 S    
C21   C29   1.397336 A    
C19   C29   1.397510 A    
C9    C13   1.411004 A    
O6    Cu2   1.951907 S    
C8    C10   1.410033 A    
C12   C14   1.411914 A    
O4    C1    1.276681 A    
S5    O27   1.680674 S    
C5    O9    1.348458 S    
C6    O10   1.348097 S    
O15   H1    0.990546 S    
C4    C28   1.481837 S    
C32   C34   1.205771 T    
O33   H7    0.990587 S    
C7    N1    1.364638 A    
C8    N2    1.366668 A    
C11   C13   1.410882 A    
O4    Cu2   1.934687 S    
S8    O34   1.501809 D    
O2    Cu2   1.935722 S    
O7    C4    1.280684 A    
C12   C18   1.414668 A    
C22   C30   1.395475 A    
O8    C3    1.281824 A    
O18   H2    0.990528 S    
C24   C28   1.425728 A    
S3    O19   1.502180 D    
C10   C14   1.412020 A    
S1    O15   1.679189 S    
S4    O23   1.503852 D    
S7    O31   1.502869 D    
