data_mof_unit_23783.cif
_audit_creation_date              2012-12-10T19:28:40-0500
_audit_creation_method            fapswitch 2.2
_symmetry_space_group_name_H-M    P1
_symmetry_Int_Tables_number       1
_space_group_crystal_system       triclinic
_cell_length_a                    27.125714
_cell_length_b                    10.653721
_cell_length_c                    9.839282
_cell_angle_alpha                 90.303866
_cell_angle_beta                  90.650076
_cell_angle_gamma                 88.739037
_cell_volume                      2842.54414571

loop_
_atom_site_label
_atom_site_type_symbol
_atom_type_description
_atom_site_fract_x
_atom_site_fract_y
_atom_site_fract_z
_atom_type_partial_charge
C1    C     C_R   0.499211 0.258242 0.500052 0.982324
C2    C     C_R   0.870942 0.370392 0.597612 -0.059770
C3    C     C_R   0.354448 0.462204 0.501913 -0.181350
C4    C     C_R   0.648564 0.517012 0.507387 -0.209678
C5    C     C_R   0.972909 0.326816 0.629900 -0.020180
C6    C     C_R   0.034436 0.524953 0.707586 -0.005777
C7    C     C_R   0.983916 0.550613 0.678109 0.027920
C8    C     C_R   0.024523 0.311511 0.616895 0.009437
C9    C     C_R   0.953012 0.450001 0.643339 0.002159
C10   C     C_R   0.055200 0.409830 0.659763 0.005560
C11   C     C_R   0.940335 0.224881 0.628178 0.447883
C12   C     C_R   0.499854 0.742491 0.500576 0.926308
C13   C     C_R   0.065262 0.611207 0.776491 0.458381
C14   C     C_R   0.889892 0.247425 0.607619 -0.256362
C15   C     C_R   0.116587 0.588376 0.777303 -0.270547
C16   C     C_R   0.406052 0.495953 0.499629 0.934408
C17   C     C_R   0.594493 0.502530 0.501159 0.892646
C18   C     C_R   0.045949 0.206157 0.551436 -0.277908
C19   C     C_R   0.964396 0.673987 0.669914 -0.267190
C20   C     C_3   0.500292 0.045482 0.633025 -0.411803
C21   C     C_3   0.499596 0.959373 0.371675 -0.461844
C22   C     C_3   0.540833 0.961664 0.567260 0.492856
C23   C     C_R   0.106736 0.396156 0.647851 -0.132970
C24   C     C_3   0.459481 0.041904 0.439042 0.502401
C25   C     C_3   0.500799 0.877965 0.502581 -0.308972
C26   C     C_3   0.499057 0.124065 0.501907 -0.253349
C27   C     C_3   0.460645 0.961606 0.567182 0.467787
C28   C     C_3   0.539507 0.042132 0.438336 0.500261
C29   C     C_3   0.481107 0.399832 0.045616 0.480226
C30   C     C_3   0.519159 0.599845 0.952676 0.499869
C31   C     C_3   0.525234 0.406310 0.952142 0.482744
C32   C     C_3   0.474831 0.593281 0.046156 0.463366
C33   C     C_3   0.455041 0.493280 0.948464 -0.477999
C34   C     C_R   0.902236 0.472522 0.618628 -0.130115
C35   C     C_3   0.545141 0.506346 0.050496 -0.489096
C36   C     C_R   0.178268 0.295642 0.545247 0.611691
C37   C     C_R   0.832589 0.615067 0.580035 0.604286
C38   C     C_R   0.187897 0.480104 0.680821 0.552078
C39   C     C_R   0.820965 0.393545 0.570348 0.558310
C40   C     C_R   0.267933 0.514941 0.481014 -0.294572
C41   C     C_R   0.730533 0.494464 0.412950 -0.305002
C42   C     C_R   0.317015 0.547728 0.463772 0.488852
C43   C     C_R   0.679404 0.481443 0.399058 0.524037
C44   C     C_R   0.342764 0.346643 0.559879 -0.390926
C45   C     C_R   0.127602 0.293414 0.575686 -0.145817
C46   C     C_R   0.669925 0.563809 0.627852 -0.473645
C47   C     C_R   0.293487 0.315980 0.583044 0.585422
C48   C     C_R   0.721051 0.573756 0.643036 0.581371
C49   C     C_R   0.256242 0.404030 0.548535 0.142719
C50   C     C_R   0.751265 0.533346 0.536469 0.154617
C51   C     C_3   0.421482 0.905391 0.763584 -0.332200
C52   C     C_3   0.618141 0.011714 0.353419 -0.312821
C53   C     C_3   0.596318 0.280344 0.938428 0.055470
C54   C     C_3   0.633062 0.361508 0.864331 -0.332388
C55   C     C_3   0.685944 0.331984 0.910554 -0.894213
C56   C     C_R   0.883080 0.596704 0.611453 -0.132885
C57   C     C_3   0.401372 0.668132 0.139407 0.155295
C58   C     C_3   0.364075 0.723727 0.037594 -0.459219
C59   C     C_3   0.311170 0.696454 0.077006 -0.838147
C60   C     C_3   0.434613 0.221582 0.011149 0.099956
C61   C     C_3   0.379875 0.246829 0.039597 -0.377734
C62   C     C_3   0.347307 0.163249 0.952227 -0.904341
C63   C     C_3   0.573299 0.766702 0.962040 0.071083
C64   C     C_3   0.548968 0.859109 0.060849 -0.349004
C65   C     C_3   0.565271 0.992706 0.038912 -0.915815
C66   C     C_3   0.300708 0.100902 0.590861 -0.247308
C67   C     C_R   0.096841 0.196059 0.530684 0.539165
C68   C     C_3   0.725707 0.723624 0.811454 -0.252776
C69   C     C_3   0.116303 0.987810 0.538521 -0.282812
C70   C     C_3   0.912467 0.866271 0.492451 -0.208395
C71   C     C_3   0.672853 0.295473 0.290166 -0.277149
C72   C     C_3   0.318884 0.753790 0.522019 -0.300131
C73   C     C_3   0.946328 0.068048 0.786714 0.113344
C74   C     C_3   0.980836 0.129756 0.891092 -0.402334
C75   C     C_3   0.974866 0.073847 0.032260 -0.930987
C76   C     C_3   0.068252 0.820160 0.851955 0.029339
C77   C     C_3   0.092899 0.849738 0.988923 -0.320061
C78   C     C_R   0.915173 0.697806 0.632314 0.524091
C79   C     C_3   0.122336 0.969965 0.982489 -0.912312
C80   C     C_3   0.604377 0.816299 0.605180 -0.356767
C81   C     C_3   0.393094 0.000908 0.299378 -0.294832
C82   C     C_R   0.137251 0.488192 0.703568 -0.059365
H1    H     H_    0.372306 0.283981 0.594105 0.182077
H2    H     H_    0.140651 0.651246 0.831618 0.191692
H3    H     H_    0.023365 0.135231 0.504825 0.206059
H4    H     H_    0.987701 0.754135 0.681864 0.176770
H5    H     H_    0.425169 0.999112 0.811961 0.154951
H6    H     H_    0.452865 0.841943 0.793008 0.240631
H7    H     H_    0.387168 0.864994 0.801933 0.178639
H8    H     H_    0.605875 0.917585 0.321487 0.157800
H9    H     H_    0.640870 0.007205 0.447751 0.214310
H10   H     H_    0.642307 0.043961 0.271581 0.161276
H11   H     H_    0.607066 0.182004 0.915437 0.181121
H12   H     H_    0.646910 0.588777 0.712743 0.187895
H13   H     H_    0.598673 0.292131 0.050288 0.166556
H14   H     H_    0.629935 0.342476 0.753519 0.256681
H15   H     H_    0.624549 0.462103 0.883933 0.217085
H16   H     H_    0.691759 0.364612 0.016571 0.285034
H17   H     H_    0.712059 0.380987 0.844497 0.306710
H18   H     H_    0.694235 0.229584 0.903737 0.253356
H19   H     H_    0.394633 0.711166 0.240371 0.208897
H20   H     H_    0.395373 0.565473 0.150574 0.154275
H21   H     H_    0.368496 0.827023 0.033280 0.214158
H22   H     H_    0.371132 0.683209 0.935269 0.228621
H23   H     H_    0.501156 0.083922 0.738059 0.202724
H24   H     H_    0.306166 0.593780 0.087879 0.268829
H25   H     H_    0.285480 0.732051 0.996677 0.269258
H26   H     H_    0.301876 0.744588 0.173987 0.289743
H27   H     H_    0.443184 0.120277 0.026652 0.157278
H28   H     H_    0.442951 0.240969 0.902480 0.137141
H29   H     H_    0.372404 0.229482 0.148525 0.266173
H30   H     H_    0.370103 0.346535 0.018394 0.212529
H31   H     H_    0.355155 0.177989 0.843167 0.284758
H32   H     H_    0.307900 0.187164 0.970735 0.293613
H33   H     H_    0.354145 0.062957 0.977900 0.239543
H34   H     H_    0.495152 0.924702 0.267156 0.204677
H35   H     H_    0.596979 0.817247 0.890431 0.202242
H36   H     H_    0.599304 0.701295 0.015539 0.088967
H37   H     H_    0.508377 0.860133 0.046516 0.271064
H38   H     H_    0.557964 0.827774 0.165455 0.202058
H39   H     H_    0.605921 0.998036 0.050521 0.244080
H40   H     H_    0.547218 0.056992 0.113165 0.308194
H41   H     H_    0.553823 0.022559 0.935165 0.289849
H42   H     H_    0.340654 0.088280 0.613628 0.197246
H43   H     H_    0.294013 0.101480 0.478925 0.187016
H44   H     H_    0.281929 0.018198 0.632265 0.185766
H45   H     H_    0.418067 0.488544 0.899742 0.174120
H46   H     H_    0.688195 0.718790 0.854870 0.129136
H47   H     H_    0.726725 0.794776 0.729053 0.180918
H48   H     H_    0.750629 0.755953 0.894000 0.199924
H49   H     H_    0.137470 0.003117 0.634673 0.161124
H50   H     H_    0.135033 0.910079 0.482525 0.195278
H51   H     H_    0.078265 0.957510 0.560787 0.136659
H52   H     H_    0.898795 0.805725 0.408038 0.150175
H53   H     H_    0.953167 0.875378 0.486636 0.149398
H54   H     H_    0.895621 0.961121 0.478084 0.208390
H55   H     H_    0.712935 0.278764 0.273589 0.166907
H56   H     H_    0.582127 0.509918 0.099490 0.204735
H57   H     H_    0.653400 0.246246 0.207499 0.181741
H58   H     H_    0.661616 0.253045 0.388014 0.202399
H59   H     H_    0.341658 0.732574 0.614253 0.198802
H60   H     H_    0.279113 0.759011 0.548220 0.177811
H61   H     H_    0.328632 0.848075 0.486087 0.196610
H62   H     H_    0.951751 0.964673 0.793084 0.200924
H63   H     H_    0.907021 0.087863 0.812619 0.152889
H64   H     H_    0.019640 0.116566 0.858412 0.228987
H65   H     H_    0.972488 0.232172 0.897077 0.228015
H66   H     H_    0.936718 0.091370 0.068761 0.267322
H67   H     H_    0.754565 0.464449 0.331266 0.173294
H68   H     H_    0.001086 0.118178 0.104446 0.276873
H69   H     H_    0.982661 0.971125 0.030077 0.266989
H70   H     H_    0.039882 0.894108 0.830744 0.164860
H71   H     H_    0.095093 0.826178 0.767521 0.113890
H72   H     H_    0.064196 0.860474 0.068065 0.231345
H73   H     H_    0.118073 0.771089 0.019622 0.224753
H74   H     H_    0.152223 0.959717 0.906702 0.259136
H75   H     H_    0.139228 0.989200 0.083587 0.288550
H76   H     H_    0.097947 0.050873 0.954264 0.262698
H77   H     H_    0.644523 0.817384 0.626184 0.182001
H78   H     H_    0.238718 0.581022 0.452700 0.171600
H79   H     H_    0.599364 0.791735 0.496326 0.128534
H80   H     H_    0.588146 0.742686 0.667860 0.233356
H81   H     H_    0.391651 0.909466 0.352594 0.189375
H82   H     H_    0.412183 0.987882 0.201002 0.171546
H83   H     H_    0.354589 0.032248 0.277366 0.178881
H84   H     H_    0.865791 0.167873 0.600089 0.204808
N1    N     N_R   0.206790 0.390025 0.595296 -0.325286
N2    N     N_R   0.803011 0.514115 0.560534 -0.329676
N3    N     N_3   0.499960 0.500030 0.863290 -0.133764
N4    N     N_3   0.500040 0.499970 0.136710 -0.146147
O1    O     O_R   0.500000 0.313960 0.616610 -0.606666
O2    O     O_2   0.812952 0.732025 0.569028 -0.520082
O3    O     O_2   0.790286 0.296262 0.554568 -0.579740
O4    O     O_2   0.218002 0.564716 0.739124 -0.588808
O5    O     O_3   0.416745 0.915954 0.621828 -0.632091
O6    O     O_3   0.578671 0.098354 0.369251 -0.601454
O7    O     O_3   0.547808 0.300542 0.889105 -0.626210
O8    O     O_3   0.449692 0.698796 0.101101 -0.678724
O9    O     O_3   0.463697 0.289209 0.104780 -0.590470
O10   O     O_3   0.536880 0.705904 0.885001 -0.624916
O11   O     O_3   0.281265 0.209719 0.655013 -0.607630
O12   O     O_R   0.500000 0.686040 0.383390 -0.616394
O13   O     O_3   0.742618 0.604260 0.767120 -0.606186
O14   O     O_3   0.115613 0.095763 0.456196 -0.559428
O15   O     O_3   0.898471 0.820851 0.620506 -0.580542
O16   O     O_3   0.660128 0.424515 0.284464 -0.617665
O17   O     O_3   0.328431 0.665631 0.417423 -0.658190
O18   O     O_3   0.957517 0.103586 0.652131 -0.681588
O19   O     O_3   0.043997 0.703786 0.859116 -0.642828
O20   O     O_3   0.584231 0.933815 0.642392 -0.602361
O21   O     O_3   0.416342 0.093704 0.378233 -0.601397
O22   O     O_R   0.500020 0.313950 0.383350 -0.536743
O23   O     O_R   0.499980 0.686050 0.616650 -0.573392
O24   O     O_R   0.428750 0.500030 0.616610 -0.628100
O25   O     O_R   0.571250 0.499970 0.383390 -0.571164
O26   O     O_R   0.428770 0.500020 0.383360 -0.617570
O27   O     O_R   0.571230 0.499980 0.616640 -0.625894
O28   O     O_2   0.198519 0.207720 0.462750 -0.508467
Zn1   Zn    Zn3+2 0.499990 0.500010 0.655740 1.000824
Zn2   Zn    Zn3+2 0.500010 0.499990 0.344260 1.027855

loop_
_geom_bond_atom_site_label_1
_geom_bond_atom_site_label_2
_ccdc_geom_bond_type
C42   O17   S    
C72   H61   S    
C68   O13   S    
C34   C56   A    
C23   C45   A    
C23   C82   A    
C53   H13   S    
C41   C43   A    
C12   O23   A    
C52   H8    S    
C24   C27   S    
C81   H83   S    
C39   O3    S    
C44   H1    S    
C33   N3    S    
C37   O2    S    
N4    Zn2   S    
C13   O19   S    
C47   C49   A    
C4    C46   A    
C53   C54   S    
C60   O9    S    
C72   H60   S    
C57   H20   S    
C64   H37   S    
C21   C25   S    
C30   C35   S    
C31   O7    S    
C36   O28   S    
C62   H32   S    
C15   H2    S    
C47   O11   S    
C35   H56   S    
C57   O8    S    
C63   H35   S    
C11   C14   A    
C38   O4    S    
C41   H67   S    
C76   H70   S    
C75   H68   S    
C40   C49   A    
C49   N1    S    
C29   C33   S    
C76   H71   S    
C33   H45   S    
C3    C42   A    
C56   C78   A    
C73   C74   S    
C39   N2    A    
O27   Zn1   S    
C81   O21   S    
O1    Zn1   S    
C76   O19   S    
C70   O15   S    
C79   H74   S    
C37   C56   A    
C2    C39   A    
C12   O12   A    
C75   H69   S    
C22   C25   S    
C55   H18   S    
C45   C67   A    
C54   H15   S    
C17   O27   A    
C60   H27   S    
C65   H39   S    
C29   N4    S    
C22   O20   S    
C68   H46   S    
C54   H14   S    
C44   C47   A    
O26   Zn2   S    
N3    Zn1   S    
C2    C34   A    
C40   C42   A    
C22   C28   S    
C38   C82   A    
C70   H54   S    
C81   H81   S    
C32   O8    S    
C72   H59   S    
C79   H76   S    
C21   H34   S    
C60   H28   S    
C74   H64   S    
O25   Zn2   S    
C37   N2    A    
C77   C79   S    
C38   N1    A    
C46   C48   A    
C3    C44   A    
C1    C26   S    
C59   H24   S    
C74   C75   S    
C53   H11   S    
C11   O18   S    
C18   H3    S    
C74   H65   S    
O12   Zn2   S    
C76   C77   S    
C15   C82   A    
C62   H31   S    
C71   H55   S    
C67   O14   S    
C51   H5    S    
C63   H36   S    
C28   O6    S    
C80   H77   S    
C71   H57   S    
C31   N3    S    
C43   O16   S    
C58   C59   S    
O23   Zn1   S    
C1    O1    A    
C36   N1    A    
C59   H25   S    
C63   O10   S    
C66   H44   S    
C73   H63   S    
C60   C61   S    
C19   C78   A    
C68   H48   S    
C30   N3    S    
C5    C9    A    
C16   O26   A    
C77   H72   S    
C48   O13   S    
O24   Zn1   S    
C46   H12   S    
C69   H49   S    
C36   C45   A    
O22   Zn2   S    
C78   O15   S    
C65   H40   S    
C51   O5    S    
C80   H80   S    
C6    C7    A    
C4    C17   S    
C4    C43   A    
C66   O11   S    
C20   C22   S    
C19   H4    S    
C7    C19   A    
C13   C15   A    
C50   N2    S    
C70   H53   S    
C10   C23   A    
C81   H82   S    
C66   H42   S    
C17   O25   A    
C58   H22   S    
C71   O16   S    
C32   N4    S    
C61   H29   S    
C41   C50   A    
C73   O18   S    
C20   H23   S    
C7    C9    A    
C52   O6    S    
C54   C55   S    
C69   H51   S    
C80   O20   S    
C40   H78   S    
C24   C26   S    
C53   O7    S    
C51   H6    S    
C79   H75   S    
C5    C8    A    
C5    C11   A    
C71   H58   S    
C20   C27   S    
C75   H66   S    
C25   C27   S    
C57   H19   S    
C26   C28   S    
C59   H26   S    
C64   H38   S    
C66   H43   S    
C12   C25   S    
C32   C33   S    
C18   C67   A    
C62   H33   S    
C29   C31   S    
C72   O17   S    
C64   C65   S    
C6    C13   A    
C30   C32   S    
C57   C58   S    
C9    C34   A    
C20   C26   S    
C69   H50   S    
C55   H16   S    
C48   C50   A    
C51   H7    S    
C24   O21   S    
C31   C35   S    
C65   H41   S    
C27   O5    S    
C61   C62   S    
C2    C14   A    
C8    C18   A    
C80   H79   S    
C16   O24   A    
C6    C10   A    
C69   O14   S    
C21   C28   S    
C63   C64   S    
C1    O22   A    
C68   H47   S    
C8    C10   A    
C14   H84   S    
C29   O9    S    
C21   C24   S    
C55   H17   S    
C70   H52   S    
C35   N4    S    
C30   O10   S    
C52   H9    S    
C58   H21   S    
C61   H30   S    
C52   H10   S    
C77   H73   S    
C3    C16   S    
C73   H62   S    
