data_mof_unit_33350.cif
_audit_creation_date              2012-10-26T20:02:57-0400
_audit_creation_method            fapswitch 2.2
_symmetry_space_group_name_H-M    P1
_symmetry_Int_Tables_number       1
_space_group_crystal_system       triclinic
_cell_length_a                    10.699285
_cell_length_b                    12.383149
_cell_length_c                    13.231153
_cell_angle_alpha                 116.911144
_cell_angle_beta                  76.339838
_cell_angle_gamma                 100.654506
_cell_volume                      1512.78964081

loop_
_atom_site_label
_atom_site_type_symbol
_atom_type_description
_atom_site_fract_x
_atom_site_fract_y
_atom_site_fract_z
_atom_type_partial_charge
C1    C     C_R   0.515056 0.854860 0.286519 0.520870
C2    C     C_R   0.543993 0.559421 0.017339 0.047447
C3    C     C_R   0.485893 0.648199 0.124093 -0.005214
C4    C     C_R   0.740377 0.994064 0.491471 0.550607
C5    C     C_R   0.488845 0.436405 0.981724 0.028927
C6    C     C_R   0.394390 0.401821 0.059725 0.042406
C7    C     C_R   0.339300 0.490566 0.163331 -0.142437
C8    C     C_R   0.377898 0.612128 0.190826 -0.125920
C9    C     C_R   0.515364 0.348803 0.868035 -0.130966
C10   C     C_R   0.385244 0.192040 0.917806 -0.139097
C11   C     C_R   0.538737 0.771037 0.163659 -0.015203
C12   C     C_3   0.124028 0.991288 0.487978 0.005299
C13   C     C_R   0.695325 0.336010 0.315916 -0.172879
C14   C     C_R   0.343914 0.774038 0.662037 0.082742
C15   C     C_R   0.338974 0.700325 0.717677 0.108651
C16   C     C_R   0.482107 0.144911 0.713349 0.543232
C17   C     C_R   0.414337 0.601539 0.663961 -0.124147
C18   C     C_R   0.479694 0.565906 0.549639 -0.025495
C19   C     C_R   0.496552 0.653817 0.505179 0.159106
C20   C     C_R   0.538494 0.452664 0.482066 0.003017
C21   C     C_R   0.630378 0.441240 0.381883 0.010634
C22   C     C_R   0.656797 0.534829 0.347280 -0.173622
C23   C     C_3   0.048592 0.055372 0.611940 -0.268461
C24   C     C_R   0.592575 0.639370 0.408268 -0.090689
C25   C     C_R   0.506068 0.346863 0.504018 0.287516
C26   C     C_R   0.667154 0.239925 0.346702 0.009721
C27   C     C_R   0.261423 0.996367 0.494186 0.540330
C28   C     C_3   0.967438 0.069779 0.425966 0.048721
C29   C     C_3   0.109565 0.049449 0.409475 -0.210847
C30   C     C_3   0.903670 0.045025 0.610409 -0.291580
C31   C     C_3   0.920494 0.855027 0.423110 0.021976
C32   C     C_3   0.879749 0.989267 0.484566 0.073513
C33   C     C_3   0.824528 0.467129 0.900875 -0.320396
C34   C     C_3   0.063464 0.857949 0.434186 -0.189163
C35   C     C_3   0.982363 0.143655 0.279099 -0.342929
C36   C     C_3   0.269620 0.348546 0.569134 -0.302998
C37   C     C_3   0.127758 0.726831 0.839302 -0.328935
C38   C     C_3   0.944055 0.673990 0.232906 -0.338466
C39   C     C_R   0.348301 0.279344 0.029143 -0.134796
C40   C     C_R   0.463942 0.227941 0.835612 -0.016721
C41   C     C_R   0.635528 0.807669 0.090981 -0.161716
C42   C     C_R   0.693422 0.722011 0.987173 -0.128311
C43   C     C_R   0.656069 0.597869 0.953305 0.140537
Cu1   Cu    Cu3+1 0.529690 0.098270 0.475420 0.953148
Cu2   Cu    Cu3+1 0.470310 0.901730 0.524580 0.897700
H1    H     H_    0.954803 0.166792 0.487432 0.139152
H2    H     H_    0.322216 0.677465 0.265972 0.138404
H3    H     H_    0.715618 0.157880 0.295243 0.141956
H4    H     H_    0.726272 0.525880 0.270548 0.109400
H5    H     H_    0.767024 0.327769 0.240236 0.090619
H6    H     H_    0.292743 0.855067 0.705186 0.131897
H7    H     H_    0.420807 0.554269 0.713264 0.110069
H8    H     H_    0.625496 0.708947 0.379590 0.180288
H9    H     H_    0.145283 0.988062 0.318183 0.135970
H10   H     H_    0.168626 0.136294 0.424929 0.116441
H11   H     H_    0.867644 0.136913 0.660632 0.112042
H12   H     H_    0.064847 0.812056 0.489353 0.107361
H13   H     H_    0.084738 0.152441 0.653068 0.110739
H14   H     H_    0.858640 0.802145 0.468850 0.134002
H15   H     H_    0.124367 0.807581 0.350153 0.122522
H16   H     H_    0.789481 0.544217 0.801422 0.242184
H17   H     H_    0.879543 0.396633 0.825049 0.132494
H18   H     H_    0.767651 0.424629 0.957623 0.161281
H19   H     H_    0.894048 0.541346 0.948097 0.133524
H20   H     H_    0.776130 0.751841 0.937609 0.104837
H21   H     H_    0.947911 0.963638 0.251301 0.279086
H22   H     H_    0.089552 0.149902 0.258436 0.132824
H23   H     H_    0.849973 0.987342 0.654138 0.127756
H24   H     H_    0.950258 0.232676 0.346512 0.148692
H25   H     H_    0.944562 0.122561 0.200280 0.126971
H26   H     H_    0.407579 0.363354 0.668033 0.239756
H27   H     H_    0.233451 0.437237 0.631101 0.125367
H28   H     H_    0.199217 0.281461 0.589484 0.136463
H29   H     H_    0.271069 0.335009 0.479883 0.138990
H30   H     H_    0.288517 0.686150 0.873109 0.250362
H31   H     H_    0.080028 0.752927 0.930328 0.143218
H32   H     H_    0.088002 0.633572 0.785834 0.134102
H33   H     H_    0.105247 0.792108 0.811370 0.136324
H34   H     H_    0.062834 0.013082 0.666416 0.123996
H35   H     H_    0.810847 0.801207 0.293019 0.251534
H36   H     H_    0.884224 0.621986 0.164654 0.128678
H37   H     H_    0.936978 0.623472 0.285562 0.136975
H38   H     H_    0.045349 0.680558 0.189073 0.151223
H39   H     H_    0.344355 0.098761 0.893932 0.128630
H40   H     H_    0.260843 0.466350 0.220310 0.099575
H41   H     H_    0.279017 0.252126 0.089633 0.100774
H42   H     H_    0.567304 0.375051 0.801204 0.170604
H43   H     H_    0.675973 0.901506 0.119413 0.129642
N1    N     N_R   0.574690 0.246280 0.438200 -0.213296
N2    N     N_R   0.426100 0.754320 0.561190 -0.263612
N3    N     N_2   0.740265 0.514504 0.862631 -0.542501
N4    N     N_2   0.933736 0.048616 0.317314 -0.504482
N5    N     N_2   0.395395 0.337433 0.585041 -0.466098
N6    N     N_2   0.265751 0.729974 0.830388 -0.529340
N7    N     N_2   0.901339 0.794782 0.303393 -0.534228
O1    O     O_R   0.537340 0.972510 0.318130 -0.503337
O2    O     O_R   0.487200 0.806530 0.359650 -0.528663
O3    O     O_R   0.707380 0.082980 0.479220 -0.476258
O4    O     O_R   0.657240 0.917000 0.520740 -0.530154
O5    O     O_R   0.512800 0.193470 0.640350 -0.502113
O6    O     O_R   0.462660 0.027490 0.681870 -0.504777
O7    O     O_R   0.342760 0.083000 0.479260 -0.472579
O8    O     O_R   0.292620 0.917020 0.520780 -0.520398

loop_
_geom_bond_atom_site_label_1
_geom_bond_atom_site_label_2
_ccdc_geom_bond_type
C23   H13   S    
C25   N5    S    
C4    O3    A    
C12   C29   S    
C41   C42   A    
C1    C11   S    
C15   N6    S    
C7    C8    A    
C26   N1    A    
C12   C23   S    
C28   H1    S    
C28   C29   S    
C33   N3    S    
C5    C6    A    
C38   H38   S    
C29   H9    S    
C10   C40   A    
C18   C19   A    
C31   H14   S    
C14   N2    A    
Cu2   O8    S    
Cu1   O3    S    
C36   N5    S    
C31   C32   S    
C35   H25   S    
C33   H17   S    
C38   N7    S    
C34   H12   S    
C11   C41   A    
C26   H3    S    
C35   N4    S    
C21   C22   A    
C38   H37   S    
C34   H15   S    
C17   H7    S    
C12   C27   S    
C23   C30   S    
C28   C32   S    
C3    C8    A    
Cu2   O4    S    
C1    O2    A    
Cu1   O7    S    
C16   O5    A    
H21   N4    S    
C29   H10   S    
C24   H8    S    
C37   H32   S    
C9    C40   A    
C43   N3    S    
C10   C39   A    
C5    C9    A    
Cu1   O1    S    
C42   H20   S    
C14   H6    S    
C35   H22   S    
C2    C43   A    
C33   H18   S    
C17   C18   A    
C31   C34   S    
C13   C21   A    
C28   N4    S    
H35   N7    S    
Cu2   N2    S    
C4    C32   S    
C36   H29   S    
C16   C40   S    
C22   H4    S    
C37   H31   S    
Cu2   O6    S    
C38   H36   S    
C22   C24   A    
C13   C26   A    
C2    C5    A    
C42   C43   A    
C12   C34   S    
Cu1   Cu2   S    
C15   C17   A    
C41   H43   S    
C14   C15   A    
C6    C7    A    
H26   N5    S    
C37   H33   S    
C27   O7    A    
C25   N1    A    
C27   O8    A    
C19   C24   A    
C8    H2    S    
C19   N2    A    
Cu2   O2    S    
C9    H42   S    
C30   C32   S    
Cu1   O5    S    
C7    H40   S    
C30   H11   S    
C33   H19   S    
C31   N7    S    
C10   H39   S    
C37   N6    S    
C2    C3    A    
C18   C20   A    
C3    C11   A    
C36   H28   S    
C13   H5    S    
H16   N3    S    
C16   O6    A    
C20   C21   A    
C35   H24   S    
C20   C25   A    
C4    O4    A    
C6    C39   A    
C1    O1    A    
C39   H41   S    
C23   H34   S    
C30   H23   S    
Cu1   N1    S    
C36   H27   S    
H30   N6    S    
