data_mof_unit_39119.cif
_audit_creation_date              2012-10-26T18:32:59-0400
_audit_creation_method            fapswitch 2.2
_symmetry_space_group_name_H-M    P1
_symmetry_Int_Tables_number       1
_space_group_crystal_system       triclinic
_cell_length_a                    13.700779
_cell_length_b                    13.82731
_cell_length_c                    15.22151
_cell_angle_alpha                 89.931301
_cell_angle_beta                  89.7003
_cell_angle_gamma                 84.780858
_cell_volume                      2871.64229928

loop_
_atom_site_label
_atom_site_type_symbol
_atom_type_description
_atom_site_fract_x
_atom_site_fract_y
_atom_site_fract_z
_atom_type_partial_charge
C1    C     C_R   0.500242 0.499660 0.328746 0.548750
C2    C     C_R   0.436602 0.341257 0.953557 0.221057
C3    C     C_R   0.786719 0.576803 0.464958 0.038196
C4    C     C_R   0.213281 0.423197 0.535042 0.038196
C5    C     C_R   0.799909 0.422786 0.534566 0.032404
C6    C     C_R   0.200091 0.577214 0.465433 0.032404
C7    C     C_R   0.903658 0.418713 0.533205 -0.021537
C8    C     C_R   0.096342 0.581287 0.466795 -0.021537
C9    C     C_R   0.948285 0.499434 0.499686 0.036252
C10   C     C_R   0.051715 0.500566 0.500314 0.036252
C11   C     C_R   0.889339 0.579067 0.465277 -0.026798
C12   C     C_R   0.499758 0.500340 0.671254 0.548750
C13   C     C_R   0.110661 0.420933 0.534723 -0.026798
C14   C     C_R   0.963843 0.337408 0.565260 -0.022401
C15   C     C_R   0.036156 0.662592 0.434740 -0.022401
C16   C     C_R   0.516135 0.316758 0.500466 0.557198
C17   C     C_R   0.483865 0.683242 0.499534 0.557198
C18   C     C_R   0.066413 0.340272 0.567080 -0.142495
C19   C     C_R   0.933587 0.659728 0.432920 -0.142495
C20   C     C_1   0.472752 0.786645 0.498226 -0.011284
C21   C     C_1   0.527248 0.213355 0.501774 -0.011284
C22   C     C_2   0.459135 0.977671 0.495972 -0.155766
C23   C     C_R   0.499797 0.500484 0.953459 -0.027433
C24   C     C_2   0.540864 0.022329 0.504028 -0.155766
C25   C     C_1   0.535381 0.126164 0.502878 -0.062076
C26   C     C_1   0.464619 0.873836 0.497122 -0.062076
C27   C     C_R   0.489935 0.414198 0.814666 -0.016226
C28   C     C_R   0.510064 0.585802 0.185334 -0.016226
C29   C     C_R   0.499295 0.500769 0.768015 -0.019705
C30   C     C_R   0.500705 0.499231 0.231985 -0.019705
C31   C     C_R   0.508230 0.587649 0.814407 -0.045067
C32   C     C_R   0.491770 0.412351 0.185593 -0.045067
C33   C     C_R   0.522769 0.584477 0.906876 -0.040289
C34   C     C_R   0.500203 0.499516 0.046541 -0.027433
C35   C     C_R   0.477231 0.415523 0.093124 -0.040289
C36   C     C_R   0.514905 0.319076 0.771494 0.063886
C37   C     C_R   0.447618 0.277436 0.717213 -0.021127
C38   C     C_R   0.464078 0.179571 0.693637 -0.077833
C39   C     C_R   0.551177 0.125502 0.717747 -0.092818
C40   C     C_R   0.620817 0.168404 0.767365 -0.104413
C41   C     C_R   0.602366 0.264462 0.795080 -0.079836
C42   C     C_R   0.485095 0.680924 0.228506 0.063886
C43   C     C_R   0.397634 0.735538 0.204920 -0.079836
C44   C     C_R   0.379183 0.831596 0.232635 -0.104413
C45   C     C_R   0.475464 0.417690 0.906866 0.021007
C46   C     C_R   0.448823 0.874498 0.282253 -0.092818
C47   C     C_R   0.535922 0.820429 0.306363 -0.077833
C48   C     C_R   0.552382 0.722564 0.282787 -0.021127
C49   C     C_R   0.485295 0.682148 0.769795 0.032611
C50   C     C_R   0.396980 0.737320 0.790414 -0.094456
C51   C     C_R   0.379263 0.832283 0.759399 -0.118727
C52   C     C_R   0.450452 0.873381 0.709411 -0.099285
C53   C     C_R   0.538260 0.818545 0.688036 -0.104548
C54   C     C_R   0.554251 0.721882 0.715304 -0.072937
C55   C     C_R   0.514705 0.317852 0.230205 0.032611
C56   C     C_R   0.524536 0.582310 0.093134 0.021007
C57   C     C_R   0.445749 0.278118 0.284696 -0.072937
C58   C     C_R   0.461739 0.181455 0.311964 -0.104548
C59   C     C_R   0.549547 0.126619 0.290589 -0.099285
C60   C     C_R   0.620737 0.167716 0.240601 -0.118727
C61   C     C_R   0.603020 0.262680 0.209586 -0.094456
C62   C     C_R   0.609346 0.739990 0.910104 0.090189
C63   C     C_R   0.701940 0.719214 0.870979 -0.068063
C64   C     C_R   0.751464 0.794114 0.834919 -0.110861
C65   C     C_R   0.709635 0.890102 0.838920 -0.107270
C66   C     C_R   0.618212 0.911477 0.879010 -0.095304
C67   C     C_R   0.560168 0.661681 0.954257 -0.004517
C68   C     C_R   0.568227 0.836821 0.914775 -0.026892
C69   C     C_R   0.390654 0.260010 0.089896 0.090189
C70   C     C_R   0.431773 0.163179 0.085225 -0.026892
C71   C     C_R   0.381788 0.088523 0.120990 -0.095303
C72   C     C_R   0.290365 0.109898 0.161080 -0.107270
C73   C     C_R   0.248536 0.205886 0.165081 -0.110861
C74   C     C_R   0.298060 0.280786 0.129021 -0.068063
C75   C     C_R   0.922216 0.246938 0.593502 0.015095
C76   C     C_R   0.936767 0.211612 0.679428 -0.095177
C77   C     C_R   0.896511 0.126734 0.705899 -0.116170
C78   C     C_R   0.439832 0.338319 0.045743 -0.004517
C79   C     C_R   0.842072 0.076370 0.646744 -0.105343
C80   C     C_R   0.828048 0.110530 0.560927 -0.100312
C81   C     C_R   0.868427 0.195095 0.534106 -0.098594
C82   C     C_R   0.077784 0.753062 0.406498 0.015095
C83   C     C_R   0.131573 0.804904 0.465894 -0.098594
C84   C     C_R   0.171952 0.889470 0.439073 -0.100312
C85   C     C_R   0.157928 0.923630 0.353256 -0.105343
C86   C     C_R   0.103489 0.873266 0.294101 -0.116170
C87   C     C_R   0.063233 0.788388 0.320572 -0.095177
C88   C     C_R   0.563398 0.658743 0.046443 0.221057
Cl1   Cl    Cl    0.635775 0.740928 0.100275 -0.651085
Cl2   Cl    Cl    0.364225 0.259072 0.899725 -0.651085
Cu1   Cu    Cu3+1 0.597420 0.500010 0.499990 0.935169
Cu2   Cu    Cu3+1 0.402580 0.499990 0.500010 0.935169
H1    H     H_    0.611831 0.981333 0.511619 0.120960
H2    H     H_    0.409627 0.145865 0.655935 0.104335
H3    H     H_    0.565193 0.050507 0.697841 0.104236
H4    H     H_    0.687895 0.126508 0.786397 0.100774
H5    H     H_    0.654871 0.295583 0.837106 0.102026
H6    H     H_    0.345129 0.704417 0.162894 0.102026
H7    H     H_    0.312105 0.873491 0.213603 0.100774
H8    H     H_    0.434807 0.949492 0.302159 0.104236
H9    H     H_    0.590373 0.854135 0.344065 0.104335
H10   H     H_    0.620702 0.681897 0.300596 0.134324
H11   H     H_    0.343137 0.707528 0.832470 0.113969
H12   H     H_    0.388169 0.018667 0.488381 0.120960
H13   H     H_    0.311419 0.874788 0.775918 0.115775
H14   H     H_    0.437088 0.947530 0.686935 0.118144
H15   H     H_    0.593759 0.850807 0.649860 0.104977
H16   H     H_    0.622828 0.680438 0.699060 0.125445
H17   H     H_    0.377172 0.319562 0.300939 0.125445
H18   H     H_    0.406240 0.149193 0.350140 0.104977
H19   H     H_    0.562912 0.052470 0.313065 0.118144
H20   H     H_    0.688581 0.125212 0.224082 0.115775
H21   H     H_    0.656863 0.292472 0.167530 0.113969
H22   H     H_    0.735504 0.645256 0.868582 0.110681
H23   H     H_    0.741032 0.637010 0.437238 0.117676
H24   H     H_    0.822480 0.777807 0.804240 0.107155
H25   H     H_    0.748282 0.947914 0.811330 0.091660
H26   H     H_    0.586115 0.985845 0.882515 0.120949
H27   H     H_    0.497846 0.854203 0.946448 0.119390
H28   H     H_    0.502154 0.145797 0.053553 0.119390
H29   H     H_    0.413885 0.014155 0.117485 0.120949
H30   H     H_    0.251718 0.052086 0.188670 0.091660
H31   H     H_    0.177520 0.222192 0.195760 0.107154
H32   H     H_    0.264496 0.354744 0.131418 0.110681
H33   H     H_    0.978316 0.250279 0.726004 0.118093
H34   H     H_    0.258968 0.362990 0.562762 0.117675
H35   H     H_    0.907242 0.100136 0.772371 0.106383
H36   H     H_    0.810746 0.010887 0.667333 0.093835
H37   H     H_    0.785956 0.071455 0.515153 0.106854
H38   H     H_    0.857337 0.220578 0.467264 0.111519
H39   H     H_    0.142662 0.779422 0.532736 0.111519
H40   H     H_    0.214044 0.928545 0.484847 0.106854
H41   H     H_    0.189254 0.989113 0.332667 0.093835
H42   H     H_    0.092758 0.899864 0.227629 0.106383
H43   H     H_    0.021684 0.749721 0.273996 0.118093
H44   H     H_    0.763167 0.364831 0.563902 0.144803
H45   H     H_    0.236833 0.635169 0.436098 0.144803
H46   H     H_    0.112045 0.278087 0.591857 0.108833
H47   H     H_    0.887955 0.721913 0.408143 0.108833
H48   H     H_    0.379298 0.318103 0.699404 0.134324
N1    N     N_R   0.743820 0.499960 0.499930 -0.242405
N2    N     N_R   0.256180 0.500040 0.500070 -0.242405
O1    O     O_R   0.582280 0.500030 0.370250 -0.494434
O2    O     O_R   0.417720 0.499970 0.629750 -0.494434
O3    O     O_R   0.417740 0.500020 0.370270 -0.504264
O4    O     O_R   0.582260 0.499980 0.629730 -0.504264
O5    O     O_R   0.593900 0.362160 0.500010 -0.497061
O6    O     O_R   0.406100 0.637840 0.499990 -0.497061
O7    O     O_R   0.429360 0.362150 0.500030 -0.519801
O8    O     O_R   0.570640 0.637850 0.499970 -0.519801

loop_
_geom_bond_atom_site_label_1
_geom_bond_atom_site_label_2
_ccdc_geom_bond_type
C5    H44   S    
C66   C68   A    
C79   H36   S    
C34   C56   A    
C16   C21   S    
C64   H24   S    
C12   C29   S    
Cu2   O6    S    
C73   C74   A    
C14   C18   A    
C74   H32   S    
C17   O8    A    
C3    N1    A    
C43   H6    S    
C75   C76   A    
Cu1   O5    S    
C69   C78   S    
C53   C54   A    
C15   C19   A    
C11   C19   A    
C67   C88   A    
C62   C63   A    
C13   C18   A    
C16   O5    A    
C23   C45   A    
C36   C37   A    
C31   C49   S    
C68   H27   S    
C4    N2    A    
C38   C39   A    
C44   H7    S    
C56   C88   A    
C27   C29   A    
C82   C87   A    
C17   C20   S    
C22   H12   S    
C2    Cl2   S    
C34   C35   A    
C12   O4    A    
C4    C13   A    
C18   H46   S    
C21   C25   T    
C63   H22   S    
C1    O3    A    
C86   H42   S    
C7    C14   A    
C57   H17   S    
C47   C48   A    
C70   H28   S    
C23   C33   A    
C37   H48   S    
C59   H19   S    
C31   C33   A    
C24   C25   S    
C16   O7    A    
C6    N2    A    
Cu2   N2    S    
C9    C10   A    
C32   C55   S    
C77   H35   S    
C72   C73   A    
C27   C45   A    
C52   H14   S    
C59   C60   A    
C76   H33   S    
C36   C41   A    
C40   H4    S    
C44   C46   A    
C15   C82   S    
Cu1   O1    S    
C77   C79   A    
C2    C45   A    
C28   C56   A    
C51   C52   A    
C32   C35   A    
C87   H43   S    
C17   O6    A    
C84   C85   A    
Cu1   Cu2   S    
C5    C7    A    
C86   C87   A    
C75   C81   A    
C6    C8    A    
C73   H31   S    
C58   C59   A    
C85   C86   A    
C84   H40   S    
C63   C64   A    
C60   C61   A    
C43   C44   A    
C83   H39   S    
C37   C38   A    
C60   H20   S    
C53   H15   S    
C5    N1    A    
C83   C84   A    
C51   H13   S    
C23   C34   A    
C48   H10   S    
C38   H2    S    
C50   C51   A    
C69   C74   A    
C42   C48   A    
C76   C77   A    
C9    C11   A    
C39   H3    S    
C70   C71   A    
C22   C26   S    
C62   C67   S    
C19   H47   S    
C40   C41   A    
C65   C66   A    
C8    C15   A    
C55   C57   A    
C61   H21   S    
C27   C36   S    
C49   C50   A    
C41   H5    S    
C2    C78   A    
C42   C43   A    
C39   C40   A    
C52   C53   A    
C33   C67   A    
C7    C9    A    
C46   H8    S    
C46   C47   A    
C80   H37   S    
C72   H30   S    
Cu2   O3    S    
C58   H18   S    
C71   H29   S    
C80   C81   A    
C10   C13   A    
Cu1   O8    S    
C54   H16   S    
C1    O1    A    
C35   C78   A    
C62   C68   A    
C4    H34   S    
C64   C65   A    
C6    H45   S    
C28   C30   A    
C71   C72   A    
C29   C31   A    
C3    H23   S    
C24   H1    S    
C14   C75   S    
C30   C32   A    
C57   C58   A    
C20   C26   T    
C55   C61   A    
C28   C42   S    
C1    C30   S    
C22   C24   D    
C47   H9    S    
C69   C70   A    
Cu2   O2    S    
C3    C11   A    
C81   H38   S    
C79   C80   A    
C12   O2    A    
C50   H11   S    
C88   Cl1   S    
C8    C10   A    
C82   C83   A    
C66   H26   S    
Cu2   O7    S    
C65   H25   S    
Cu1   O4    S    
C49   C54   A    
C85   H41   S    
Cu1   N1    S    
