data_mof_unit_60238.cif
_audit_creation_date              2012-12-10T19:53:14-0500
_audit_creation_method            fapswitch 2.2
_symmetry_space_group_name_H-M    P1
_symmetry_Int_Tables_number       1
_space_group_crystal_system       triclinic
_cell_length_a                    18.274796
_cell_length_b                    18.274885
_cell_length_c                    38.819505
_cell_angle_alpha                 90.016777
_cell_angle_beta                  89.9862
_cell_angle_gamma                 89.993223
_cell_volume                      12964.5411158

loop_
_atom_site_label
_atom_site_type_symbol
_atom_type_description
_atom_site_fract_x
_atom_site_fract_y
_atom_site_fract_z
_atom_type_partial_charge
C1    C     C_R   0.499996 0.141154 0.499982 1.010387
C2    C     C_R   0.999959 0.499986 0.215415 0.247258
C3    C     C_2   0.105058 0.589690 0.395559 0.932425
C4    C     C_2   0.412304 0.892653 0.605056 1.026735
C5    C     C_2   0.894969 0.589779 0.604459 0.932407
C6    C     C_2   0.587384 0.107812 0.604912 1.026584
C7    C     C_2   0.105077 0.410291 0.604409 0.932473
C8    C     C_2   0.909403 0.605079 0.894977 1.028593
C9    C     C_2   0.395212 0.911222 0.894924 0.931429
C10   C     C_2   0.090652 0.394952 0.894929 1.028811
C11   C     C_2   0.610841 0.084918 0.895679 1.025432
C12   C     C_2   0.909366 0.394948 0.105037 1.028384
C13   C     C_R   0.503742 0.998336 0.784901 0.346153
C14   C     C_2   0.394976 0.089790 0.104458 0.932512
C15   C     C_2   0.090574 0.605068 0.105058 1.028388
C16   C     C_2   0.605063 0.910277 0.104410 0.932363
C17   C     C_R   0.000052 0.500038 0.784585 0.247255
C18   C     C_R   0.000045 0.500047 0.715043 0.432886
C19   C     C_R   0.501201 0.999370 0.715391 0.251993
C20   C     C_R   0.999976 0.499968 0.284957 0.433006
C21   C     C_R   0.500047 0.000038 0.284585 0.247255
C22   C     C_R   0.500008 0.000002 0.432719 0.984293
C23   C     C_R   0.000001 0.499990 0.432722 0.984234
C24   C     C_R   0.499987 0.000033 0.567278 0.986968
C25   C     C_R   0.858846 0.500004 0.499998 1.005367
C26   C     C_R   0.000002 0.500010 0.567277 0.984209
C27   C     C_R   0.000008 0.500002 0.932719 0.984569
C28   C     C_R   0.500036 0.999972 0.932723 0.988076
C29   C     C_R   0.999992 0.500001 0.067281 0.984537
C30   C     C_R   0.500002 0.000010 0.067278 0.984147
C31   C     C_1   0.499989 0.217547 0.499981 -0.103497
C32   C     C_1   0.782454 0.500010 0.499993 -0.102031
C33   C     C_1   0.500011 0.782453 0.500001 -0.103869
C34   C     C_1   0.217546 0.499990 0.500007 -0.101944
C35   C     C_1   0.999990 0.717546 0.999991 -0.104738
C36   C     C_R   0.500004 0.858846 0.499989 1.010139
C37   C     C_1   0.282454 0.000009 0.999988 -0.102880
C38   C     C_1   0.000010 0.282454 0.000009 -0.104655
C39   C     C_1   0.717547 0.999985 0.000040 -0.099918
C40   C     C_1   0.499991 0.282277 0.499986 -0.147917
C41   C     C_1   0.717723 0.500008 0.499991 -0.148402
C42   C     C_1   0.500009 0.717723 0.500009 -0.147948
C43   C     C_1   0.282276 0.499992 0.500009 -0.148334
C44   C     C_1   0.999992 0.782277 0.999989 -0.147690
C45   C     C_1   0.217723 0.000008 0.999989 -0.148193
C46   C     C_1   0.000008 0.217723 0.000011 -0.147578
C47   C     C_R   0.141154 0.499996 0.500002 1.005368
C48   C     C_1   0.782277 0.999988 0.000020 -0.148118
C49   C     C_R   0.454379 0.049344 0.376687 -0.094057
C50   C     C_R   0.948596 0.456402 0.376705 -0.146673
C51   C     C_R   0.545683 0.950697 0.376663 -0.094066
C52   C     C_R   0.051415 0.543523 0.376699 -0.146685
C53   C     C_R   0.455928 0.949437 0.623344 -0.094001
C54   C     C_R   0.948614 0.543607 0.623310 -0.146707
C55   C     C_R   0.544078 0.050895 0.623275 -0.092809
C56   C     C_R   0.051439 0.456470 0.623285 -0.146753
C57   C     C_R   0.954383 0.549345 0.876686 -0.094019
C58   C     C_R   0.999996 0.641154 0.999998 1.008422
C59   C     C_R   0.450227 0.956388 0.876385 -0.149384
C60   C     C_R   0.045681 0.450694 0.876663 -0.093961
C61   C     C_R   0.554069 0.042025 0.877032 -0.091864
C62   C     C_R   0.954328 0.450681 0.123320 -0.094065
C63   C     C_R   0.448615 0.043612 0.123310 -0.146694
C64   C     C_R   0.045608 0.549329 0.123330 -0.094079
C65   C     C_R   0.551430 0.956462 0.123286 -0.146633
C66   C     C_R   0.451721 0.046755 0.340593 0.399531
C67   C     C_R   0.948225 0.457479 0.340306 0.361639
C68   C     C_R   0.548359 0.953304 0.340569 0.399545
C69   C     C_R   0.358846 0.000003 0.999991 1.005585
C70   C     C_R   0.051771 0.542437 0.340299 0.361630
C71   C     C_R   0.453689 0.951580 0.659462 0.402153
C72   C     C_R   0.948261 0.542536 0.659710 0.361627
C73   C     C_R   0.546830 0.048554 0.659380 0.400534
C74   C     C_R   0.051814 0.457561 0.659684 0.361616
C75   C     C_R   0.951725 0.546756 0.840593 0.399917
C76   C     C_R   0.451880 0.956368 0.839976 0.410983
C77   C     C_R   0.048360 0.453301 0.840570 0.399952
C78   C     C_R   0.556508 0.040462 0.840918 0.365972
C79   C     C_R   0.951653 0.453276 0.159415 0.399559
C80   C     C_R   0.000004 0.358846 0.000002 1.008511
C81   C     C_R   0.448260 0.042541 0.159709 0.361598
C82   C     C_R   0.048269 0.546726 0.159423 0.399552
C83   C     C_R   0.551803 0.957553 0.159685 0.361621
C84   C     C_R   0.500044 0.000034 0.322401 -0.172528
C85   C     C_R   0.999992 0.499960 0.322644 -0.046447
C86   C     C_R   0.500455 0.999949 0.677592 -0.175167
C87   C     C_R   0.000041 0.500050 0.677356 -0.046422
C88   C     C_R   0.000047 0.500033 0.822401 -0.172360
C89   C     C_R   0.505073 0.997726 0.822579 -0.117839
C90   C     C_R   0.999959 0.499997 0.177599 -0.172524
C91   C     C_R   0.641154 0.999994 0.000055 1.011200
C92   C     C_R   0.500034 0.000049 0.177356 -0.046457
C93   C     C_R   0.358682 0.499998 0.500003 0.917536
C94   C     C_R   0.499997 0.358682 0.499995 0.917697
C95   C     C_R   0.641318 0.500002 0.499997 0.917491
C96   C     C_R   0.500003 0.641318 0.500004 0.917729
C97   C     C_R   0.858682 0.999996 0.000005 0.917247
C98   C     C_R   0.999997 0.858682 0.999996 0.917587
C99   C     C_R   0.141318 0.000003 0.999996 0.917285
C100  C     C_R   0.000002 0.141318 0.000004 0.917521
C101  C     C_R   0.500025 0.000015 0.394838 -0.352590
C102  C     C_R   0.500037 0.000047 0.215043 0.433000
C103  C     C_R   0.000005 0.499969 0.394827 -0.274079
C104  C     C_R   0.499969 0.000138 0.605156 -0.352872
C105  C     C_R   0.000019 0.500031 0.605173 -0.274094
C106  C     C_R   0.000025 0.500014 0.894838 -0.352583
C107  C     C_R   0.501188 0.999772 0.894842 -0.314224
C108  C     C_R   0.999974 0.500005 0.105161 -0.352697
C109  C     C_R   0.500016 0.000030 0.105173 -0.274008
C110  C     C_2   0.409398 0.105076 0.394978 1.028417
C111  C     C_2   0.894962 0.410238 0.395573 0.932403
C112  C     C_2   0.590657 0.894958 0.394928 1.028394
H1    H     H_    0.311901 0.155950 0.399604 0.348194
H2    H     H_    0.348641 0.812063 0.901176 0.353280
H3    H     H_    0.188142 0.344066 0.899521 0.348003
H4    H     H_    0.667386 0.179384 0.899464 0.347388
H5    H     H_    0.811882 0.344077 0.100425 0.348163
H6    H     H_    0.350353 0.189782 0.097994 0.352954
H7    H     H_    0.188053 0.655955 0.100452 0.348185
H8    H     H_    0.649679 0.810281 0.097913 0.352983
H9    H     H_    0.387337 0.068740 0.301960 0.360143
H10   H     H_    0.853174 0.409237 0.335097 0.362275
H11   H     H_    0.612751 0.931331 0.301917 0.360140
H12   H     H_    0.850349 0.310254 0.402053 0.352965
H13   H     H_    0.146833 0.590648 0.335069 0.362275
H14   H     H_    0.392108 0.925646 0.698665 0.361896
H15   H     H_    0.853203 0.590780 0.664950 0.362223
H16   H     H_    0.609458 0.073976 0.698273 0.353413
H17   H     H_    0.146878 0.409325 0.664884 0.362334
H18   H     H_    0.887342 0.568742 0.801960 0.360226
H19   H     H_    0.356141 0.910021 0.833952 0.358717
H20   H     H_    0.112755 0.431327 0.801919 0.360054
H21   H     H_    0.618216 0.061334 0.800747 0.344616
H22   H     H_    0.887265 0.431292 0.198059 0.360139
H23   H     H_    0.688150 0.844077 0.399520 0.348195
H24   H     H_    0.353207 0.090795 0.164949 0.362274
H25   H     H_    0.112653 0.568694 0.198062 0.360141
H26   H     H_    0.646859 0.909302 0.164885 0.362278
H27   H     H_    0.149697 0.689668 0.402040 0.352976
H28   H     H_    0.316292 0.838961 0.600686 0.348171
H29   H     H_    0.850334 0.689766 0.597996 0.352920
H30   H     H_    0.683207 0.161768 0.600336 0.348015
H31   H     H_    0.149710 0.310302 0.597912 0.353070
H32   H     H_    0.811909 0.655960 0.899601 0.348332
N1    N     N_R   0.495449 0.936172 0.266903 -0.119643
N2    N     N_R   0.493354 0.061909 0.767587 -0.133222
N3    N     N_R   0.004644 0.563909 0.766922 -0.119813
N4    N     N_R   0.512470 0.935249 0.766996 -0.088643
N5    N     N_R   0.995359 0.563850 0.233101 -0.119625
N6    N     N_R   0.495717 0.936159 0.232663 -0.098246
N7    N     N_R   0.004565 0.436113 0.233075 -0.119652
N8    N     N_R   0.504362 0.063931 0.232682 -0.098252
N9    N     N_R   0.995640 0.563859 0.267341 -0.098255
N10   N     N_R   0.504639 0.063909 0.266922 -0.119644
N11   N     N_R   0.004302 0.436086 0.267315 -0.098249
N12   N     N_R   0.491974 0.062395 0.733347 -0.120735
N13   N     N_R   0.995726 0.436159 0.732662 -0.098004
N14   N     N_R   0.511464 0.935796 0.732757 -0.119609
N15   N     N_R   0.004368 0.563931 0.732682 -0.098322
N16   N     N_R   0.995457 0.436172 0.766902 -0.118909
O1    O     O_R   0.560480 0.107240 0.500130 -0.612450
O2    O     O_R   0.392760 0.060480 0.000130 -0.611176
O3    O     O_R   0.939520 0.392760 0.000130 -0.611173
O4    O     O_R   0.607240 0.939520 0.000130 -0.611462
O5    O     O_R   0.060480 0.392760 0.999870 -0.611468
O6    O     O_R   0.392760 0.939520 0.999870 -0.612587
O7    O     O_R   0.939520 0.607240 0.999870 -0.611288
O8    O     O_R   0.607240 0.060480 0.999870 -0.612047
O9    O     O_R   0.560480 0.999920 0.449200 -0.613009
O10   O     O_R   0.000080 0.560480 0.449200 -0.609695
O11   O     O_R   0.439520 0.000080 0.449200 -0.613025
O12   O     O_R   0.892760 0.560480 0.500130 -0.611655
O13   O     O_R   0.999920 0.439520 0.449200 -0.609708
O14   O     O_R   0.560480 0.000080 0.550800 -0.613035
O15   O     O_R   0.000080 0.439520 0.550800 -0.609723
O16   O     O_R   0.439520 0.999920 0.550800 -0.612468
O17   O     O_R   0.999920 0.560480 0.550800 -0.609709
O18   O     O_R   0.060480 0.499920 0.949200 -0.613074
O19   O     O_R   0.500080 0.060480 0.949200 -0.616272
O20   O     O_R   0.939520 0.500080 0.949200 -0.612632
O21   O     O_R   0.499920 0.939520 0.949200 -0.605734
O22   O     O_R   0.060480 0.500080 0.050800 -0.612908
O23   O     O_R   0.439520 0.892760 0.500130 -0.612181
O24   O     O_R   0.500080 0.939520 0.050800 -0.609817
O25   O     O_R   0.939520 0.499920 0.050800 -0.612916
O26   O     O_R   0.499920 0.060480 0.050800 -0.609714
O27   O     O_R   0.392500 0.499870 0.471390 -0.609868
O28   O     O_R   0.500130 0.392500 0.471390 -0.609655
O29   O     O_R   0.607500 0.500130 0.471390 -0.609868
O30   O     O_R   0.499870 0.607500 0.471390 -0.609623
O31   O     O_R   0.392500 0.500130 0.528610 -0.609897
O32   O     O_R   0.500130 0.607500 0.528610 -0.609427
O33   O     O_R   0.607500 0.499870 0.528610 -0.609962
O34   O     O_R   0.107240 0.439520 0.500130 -0.611617
O35   O     O_R   0.499870 0.392500 0.528610 -0.609352
O36   O     O_R   0.892500 0.999870 0.971390 -0.608610
O37   O     O_R   0.000130 0.892500 0.971390 -0.609376
O38   O     O_R   0.107500 0.000130 0.971390 -0.609860
O39   O     O_R   0.999870 0.107500 0.971390 -0.609035
O40   O     O_R   0.892500 0.000130 0.028610 -0.610282
O41   O     O_R   0.000130 0.107500 0.028610 -0.609731
O42   O     O_R   0.107500 0.999870 0.028610 -0.609927
O43   O     O_R   0.999870 0.892500 0.028610 -0.609646
O44   O     O_2   0.436396 0.141752 0.418064 -0.656144
O45   O     O_R   0.560480 0.892760 0.499870 -0.611061
O46   O     O_R   0.336522 0.116430 0.385392 -0.721450
O47   O     O_2   0.856032 0.437286 0.417818 -0.640897
O48   O     O_R   0.888772 0.335890 0.387588 -0.756489
O49   O     O_2   0.563653 0.858279 0.418008 -0.656043
O50   O     O_R   0.663534 0.883602 0.385325 -0.721449
O51   O     O_2   0.143978 0.562652 0.417795 -0.640862
O52   O     O_R   0.111269 0.664030 0.387580 -0.756472
O53   O     O_2   0.439936 0.857137 0.581729 -0.657751
O54   O     O_R   0.339989 0.878989 0.614922 -0.720689
O55   O     O_2   0.856043 0.562740 0.582220 -0.640872
O56   O     O_R   0.892760 0.439520 0.499870 -0.611721
O57   O     O_R   0.888763 0.664125 0.612450 -0.756681
O58   O     O_2   0.559444 0.143242 0.581654 -0.657900
O59   O     O_R   0.659754 0.121675 0.614615 -0.721750
O60   O     O_2   0.143995 0.437323 0.582163 -0.640863
O61   O     O_R   0.111286 0.335948 0.612383 -0.756388
O62   O     O_2   0.936401 0.641752 0.918064 -0.655843
O63   O     O_R   0.836529 0.616439 0.885390 -0.721146
O64   O     O_2   0.356199 0.938980 0.916945 -0.639907
O65   O     O_R   0.387909 0.836975 0.886935 -0.757287
O66   O     O_2   0.063645 0.358276 0.918009 -0.655368
O67   O     O_R   0.439520 0.107240 0.499870 -0.610960
O68   O     O_R   0.163529 0.383591 0.885326 -0.721805
O69   O     O_2   0.643919 0.057681 0.919866 -0.661705
O70   O     O_R   0.627588 0.156020 0.884970 -0.714350
O71   O     O_2   0.936382 0.358268 0.081948 -0.655947
O72   O     O_R   0.836488 0.383599 0.114632 -0.721476
O73   O     O_2   0.356047 0.062754 0.082220 -0.640691
O74   O     O_R   0.388779 0.164137 0.112449 -0.756541
O75   O     O_2   0.063569 0.641740 0.081979 -0.655864
O76   O     O_R   0.163443 0.616432 0.114651 -0.721473
O77   O     O_2   0.643991 0.937306 0.082168 -0.641574
O78   O     O_R   0.107240 0.560480 0.499870 -0.611723
O79   O     O_R   0.611256 0.835931 0.112383 -0.756433
O80   O     O_3   0.402445 0.091927 0.323873 -0.685098
O81   O     O_3   0.896886 0.419828 0.320947 -0.712474
O82   O     O_3   0.597642 0.908140 0.323826 -0.685083
O83   O     O_3   0.103105 0.580080 0.320933 -0.712450
O84   O     O_3   0.406477 0.904299 0.676236 -0.685700
O85   O     O_3   0.896927 0.580195 0.679085 -0.712571
O86   O     O_3   0.594295 0.095732 0.676059 -0.688533
O87   O     O_3   0.103160 0.419912 0.679035 -0.712344
O88   O     O_3   0.902452 0.591929 0.823872 -0.685060
O89   O     O_R   0.060480 0.607240 0.000130 -0.611372
O90   O     O_3   0.400982 0.918805 0.820314 -0.705445
O91   O     O_3   0.097642 0.408136 0.823827 -0.684770
O92   O     O_3   0.611662 0.079228 0.824586 -0.691610
O93   O     O_3   0.902380 0.408107 0.176143 -0.685107
O94   O     O_3   0.396930 0.080206 0.179084 -0.712455
O95   O     O_3   0.097535 0.591891 0.176159 -0.685079
O96   O     O_3   0.603143 0.919898 0.179037 -0.712466
Zn1   Zn    Zn3+2 0.580810 0.000000 0.500000 1.049044
Zn2   Zn    Zn3+2 0.500000 0.500000 0.538260 1.044029
Zn3   Zn    Zn3+2 0.000000 0.000000 0.961740 1.046561
Zn4   Zn    Zn3+2 0.000000 0.000000 0.038260 1.043848
Zn5   Zn    Zn3+2 0.000000 0.580810 0.500000 1.057136
Zn6   Zn    Zn3+2 0.419190 0.000000 0.500000 1.049466
Zn7   Zn    Zn3+2 0.000000 0.419190 0.500000 1.057137
Zn8   Zn    Zn3+2 0.080810 0.500000 0.000000 1.049235
Zn9   Zn    Zn3+2 0.500000 0.080810 0.000000 1.052683
Zn10  Zn    Zn3+2 0.919190 0.500000 0.000000 1.049819
Zn11  Zn    Zn3+2 0.500000 0.919190 0.000000 1.057849
Zn12  Zn    Zn3+2 0.500000 0.500000 0.461740 1.043898

loop_
_geom_bond_atom_site_label_1
_geom_bond_atom_site_label_2
_ccdc_geom_bond_type
C10   O68   S    
C52   C103  A    
C51   C112  S    
C20   N11   A    
C37   C69   S    
C4    C53   S    
O36   Zn3   S    
C17   C88   S    
C78   O92   S    
C47   O34   A    
C27   O18   A    
C6    C55   S    
O37   Zn3   S    
C19   C86   S    
C24   O14   A    
O8    Zn9   S    
O14   Zn1   S    
C67   O81   S    
C60   C106  A    
O45   Zn1   S    
C24   C104  S    
C83   C92   A    
C22   C101  S    
O28   Zn12  S    
C35   C58   S    
C42   C96   S    
C33   C42   T    
C30   O26   A    
C97   O36   A    
H24   O94   S    
C51   C68   A    
C17   N3    A    
O29   Zn12  S    
O32   Zn2   S    
C71   O84   S    
C71   C86   A    
H17   O87   S    
C7    O61   S    
C82   O95   S    
C65   C83   A    
C62   C108  A    
C28   C107  S    
O6    Zn11  S    
C5    O55   D    
C1    C31   S    
C33   C36   S    
C31   C40   T    
H11   O82   S    
C110  O44   D    
O31   Zn2   S    
C96   O30   A    
O12   Zn5   S    
C2    C90   S    
C17   N16   A    
N5    N9    A    
C69   O6    A    
C79   C90   A    
C16   C65   S    
C18   N15   A    
H7    O76   S    
H29   O57   S    
O21   Zn11  S    
C81   C92   A    
C44   C98   S    
C5    O57   S    
C77   C88   A    
C68   O82   S    
H32   O63   S    
C15   O76   S    
C64   C82   A    
C15   C64   S    
C29   C108  S    
O40   Zn4   S    
H15   O85   S    
N7    N11   A    
C81   O94   S    
H20   O91   S    
C50   C67   A    
C58   O89   A    
C22   O11   A    
C98   O37   A    
H19   O90   S    
H28   O54   S    
C76   C89   A    
C111  O47   D    
O15   Zn7   S    
C1    O67   A    
C2    N5    A    
C57   C106  A    
C76   O90   S    
C50   C103  A    
C95   O33   A    
C6    O58   D    
H12   O48   S    
O9    Zn1   S    
C19   N12   A    
C97   O40   A    
C7    C56   S    
H26   O96   S    
C26   C105  S    
C39   C91   S    
O38   Zn3   S    
C49   C101  A    
O25   Zn10  S    
C12   O72   S    
H10   O81   S    
C13   C89   S    
C93   O31   A    
C78   C89   A    
C3    O51   D    
H30   O59   S    
O4    Zn11  S    
C23   C103  S    
C60   C77   A    
C67   C85   A    
C56   C74   A    
C20   N9    A    
C30   C109  S    
C94   O35   A    
C68   C84   A    
H9    O80   S    
C98   O43   A    
C4    O54   S    
C69   O2    A    
C16   O79   S    
C29   O22   A    
C40   C94   S    
C13   N2    A    
H18   O88   S    
C73   O86   S    
C27   C106  S    
O27   Zn12  S    
O39   Zn3   S    
C55   C104  A    
C59   C107  A    
O34   Zn7   S    
C56   C105  A    
C49   C66   A    
C9    C59   S    
C66   C84   A    
C112  O50   S    
C72   O85   S    
C63   C109  A    
O11   Zn6   S    
C10   C60   S    
C28   O21   A    
C80   O3    A    
C48   C97   S    
H1    O46   S    
O42   Zn4   S    
C70   O83   S    
C47   O78   A    
C12   C62   S    
C100  O41   A    
H6    O74   S    
H4    O70   S    
C21   C84   S    
C61   C78   A    
C32   C41   T    
O22   Zn8   S    
C20   C85   S    
O33   Zn2   S    
C79   O93   S    
O5    Zn8   S    
C54   C72   A    
C110  O46   S    
C36   O23   A    
N4    N14   A    
C27   O20   A    
C35   C44   T    
H21   O92   S    
C65   C109  A    
H25   O95   S    
C8    O63   S    
C102  N8    A    
C102  N6    A    
C77   O91   S    
C7    O60   D    
C93   O27   A    
C25   O12   A    
O16   Zn6   S    
O41   Zn4   S    
C63   C81   A    
C16   O77   D    
N13   N16   A    
O10   Zn5   S    
O3    Zn10  S    
C45   C99   S    
C74   C87   A    
C91   O4    A    
O35   Zn2   S    
C51   C101  A    
C37   C45   T    
C53   C71   A    
O19   Zn9   S    
C80   O5    A    
C14   O74   S    
C72   C87   A    
C8    O62   D    
O43   Zn4   S    
O26   Zn9   S    
C12   O71   D    
N3    N15   A    
N8    N10   A    
C26   O17   A    
O1    Zn1   S    
C3    O52   S    
C46   C100  S    
C4    O53   D    
H5    O72   S    
C54   C105  A    
C66   O80   S    
C19   N14   A    
C30   O24   A    
C25   O56   A    
C34   C43   T    
N1    N6    A    
O56   Zn7   S    
C94   O28   A    
C91   O8    A    
C11   C61   S    
H31   O61   S    
O20   Zn10  S    
C3    C52   S    
C23   O13   A    
C92   C102  S    
H27   O52   S    
C11   O70   S    
O23   Zn6   S    
C21   N10   A    
O2    Zn9   S    
C18   C87   S    
C82   C90   A    
C83   O96   S    
H16   O86   S    
C112  O49   D    
C57   C75   A    
O7    Zn10  S    
H3    O68   S    
C99   O42   A    
C18   N13   A    
O18   Zn8   S    
C2    N7    A    
C38   C46   T    
H14   O84   S    
C74   O87   S    
H22   O93   S    
C9    O64   D    
C96   O32   A    
C41   C95   S    
C23   O10   A    
C38   C80   S    
C26   O15   A    
C25   C32   S    
C14   C63   S    
C59   C76   A    
C99   O38   A    
C50   C111  S    
C43   C93   S    
C29   O25   A    
H13   O83   S    
C5    C54   S    
C36   O45   A    
C14   O73   D    
O89   Zn8   S    
C61   C107  A    
C28   O19   A    
C73   C86   A    
O13   Zn7   S    
C22   O9    A    
C52   C70   A    
C95   O29   A    
H8    O79   S    
C1    O1    A    
C6    O59   S    
C55   C73   A    
C100  O39   A    
C75   C88   A    
H23   O50   S    
N2    N12   A    
O67   Zn6   S    
C11   O69   D    
C15   O75   D    
C10   O66   D    
O24   Zn11  S    
C58   O7    A    
C49   C110  S    
O78   Zn5   S    
C9    O65   S    
C34   C47   S    
C53   C104  A    
C13   N4    A    
O30   Zn12  S    
C62   C79   A    
C70   C85   A    
C111  O48   S    
C8    C57   S    
C75   O88   S    
C64   C108  A    
C21   N1    A    
C39   C48   T    
H2    O65   S    
O17   Zn5   S    
C24   O16   A    
