data_mof_unit_66744.cif
_audit_creation_date              2012-12-11T14:19:18-0500
_audit_creation_method            fapswitch 2.2
_symmetry_space_group_name_H-M    P1
_symmetry_Int_Tables_number       1
_space_group_crystal_system       triclinic
_cell_length_a                    8.301636
_cell_length_b                    12.568356
_cell_length_c                    15.056406
_cell_angle_alpha                 94.993215
_cell_angle_beta                  99.354486
_cell_angle_gamma                 98.009145
_cell_volume                      1525.24101345

loop_
_atom_site_label
_atom_site_type_symbol
_atom_type_description
_atom_site_fract_x
_atom_site_fract_y
_atom_site_fract_z
_atom_type_partial_charge
Ba1   Ba    Ba6+2 0.153570 0.551840 0.456200 1.678948
Ba2   Ba    Ba6+2 0.656590 0.448150 0.543720 1.671779
C1    C     C_3   0.299241 0.773908 0.107786 -0.319637
C2    C     C_3   0.329559 0.757917 0.208796 0.399227
C3    C     C_3   0.585245 0.780176 0.673571 0.273149
C4    C     C_3   0.583846 0.900934 0.689372 -0.327660
C5    C     C_3   0.923171 0.158374 0.752866 0.335391
C6    C     C_3   0.986095 0.070908 0.806601 -0.392706
C7    C     C_3   0.436058 0.221943 0.791091 0.288402
C8    C     C_3   0.480267 0.196022 0.887618 -0.262362
C9    C     C_R   0.078654 0.186341 0.537272 -0.277062
C10   C     C_R   0.718443 0.817290 0.477952 -0.229371
C11   C     C_R   0.686718 0.997310 0.440651 0.011892
C12   C     C_3   0.955444 0.841416 0.213178 0.689114
C13   C     C_R   0.619150 0.888981 0.440365 0.085097
C14   C     C_R   0.883597 0.851813 0.518642 0.050459
C15   C     C_R   0.949879 0.964281 0.525227 -0.063645
C16   C     C_R   0.850471 0.038097 0.484577 -0.062087
C17   C     C_R   0.918307 0.150338 0.489763 0.048280
C18   C     C_R   0.178073 0.114292 0.573296 -0.007630
C19   C     C_R   0.113207 0.004955 0.569503 -0.095439
C20   C     C_R   0.233576 0.459885 0.766373 -0.282964
C21   C     C_R   0.135551 0.421723 0.827016 0.009838
C22   C     C_R   0.199989 0.433048 0.919969 -0.119231
C23   C     C_3   0.032414 0.931521 0.163069 -0.365604
C24   C     C_R   0.362713 0.488066 0.954159 0.012172
C25   C     C_R   0.453686 0.532957 0.890700 -0.117615
C26   C     C_R   0.389972 0.518428 0.798326 0.032004
C27   C     C_R   0.600100 0.554405 0.086013 -0.094799
C28   C     C_R   0.666584 0.570581 0.178057 0.115950
C29   C     C_R   0.414056 0.479003 0.212332 0.024960
C30   C     C_R   0.344279 0.464022 0.119928 -0.092855
C31   C     C_R   0.435268 0.502870 0.054217 -0.011047
C32   C     C_R   0.573118 0.534785 0.241197 -0.289471
C33   C     C_3   0.714810 0.306745 0.269381 0.309323
C34   C     C_3   0.683671 0.275812 0.166934 0.317383
C35   C     C_3   0.082987 0.685278 0.729157 0.302208
C36   C     C_3   0.130196 0.716613 0.831072 -0.388454
C37   C     C_3   0.165964 0.223582 0.325373 0.321143
C38   C     C_3   0.219929 0.118767 0.353356 -0.339112
H1    H     H_    0.219912 0.709341 0.225430 0.042516
H2    H     H_    0.649920 0.345238 0.131546 -0.072511
H3    H     H_    0.799578 0.255934 0.146417 -0.009335
H4    H     H_    0.187529 0.655783 0.703132 0.013059
H5    H     H_    0.974123 0.620406 0.715652 0.071102
H6    H     H_    0.245853 0.776215 0.846797 0.143200
H7    H     H_    0.149585 0.644717 0.866483 0.063287
H8    H     H_    0.029752 0.752949 0.856800 0.128157
H9    H     H_    0.042767 0.204131 0.281626 0.051266
H10   H     H_    0.158979 0.276217 0.387319 -0.011568
H11   H     H_    0.166535 0.760771 0.078089 0.101018
H12   H     H_    0.256568 0.072550 0.296213 0.179190
H13   H     H_    0.117125 0.067306 0.375055 0.066693
H14   H     H_    0.327543 0.136775 0.409283 0.129518
H15   H     H_    0.428859 0.708646 0.219842 0.083034
H16   H     H_    0.354857 0.714247 0.068683 0.108184
H17   H     H_    0.712964 0.766099 0.669556 0.013570
H18   H     H_    0.501636 0.749672 0.608208 0.045264
H19   H     H_    0.654875 0.933847 0.757258 0.131544
H20   H     H_    0.639786 0.942473 0.637162 0.050855
H21   H     H_    0.454722 0.916475 0.685709 0.138471
H22   H     H_    0.352512 0.856676 0.096702 0.222205
H23   H     H_    0.982519 0.916468 0.089282 0.110834
H24   H     H_    0.818489 0.120977 0.698589 0.072734
H25   H     H_    0.025502 0.194370 0.720238 -0.052870
H26   H     H_    0.017008 0.006225 0.760138 0.089986
H27   H     H_    0.098524 0.106400 0.856416 0.130133
H28   H     H_    0.891097 0.035364 0.844081 0.133995
H29   H     H_    0.304919 0.234498 0.779089 -0.059480
H30   H     H_    0.517116 0.297754 0.784239 0.100251
H31   H     H_    0.461686 0.263906 0.935244 0.107437
H32   H     H_    0.611711 0.184399 0.902148 0.164444
H33   H     H_    0.027562 0.844911 0.282508 0.011138
H34   H     H_    0.400497 0.121062 0.897592 0.166012
H35   H     H_    0.609369 0.047787 0.405215 0.126684
H36   H     H_    0.192769 0.953093 0.601113 0.097246
H37   H     H_    0.130445 0.270945 0.541976 0.069270
H38   H     H_    0.666468 0.732871 0.474633 0.062167
H39   H     H_    0.682921 0.580534 0.041516 0.084796
H40   H     H_    0.119324 0.400369 0.963467 0.081311
H41   H     H_    0.220941 0.419588 0.101531 0.097641
H42   H     H_    0.572307 0.583118 0.910360 0.078372
H43   H     H_    0.627644 0.544820 0.312339 0.078933
H44   H     H_    0.183583 0.451003 0.694648 0.062200
H45   H     H_    0.007516 0.012100 0.188296 0.120509
H46   H     H_    0.167390 0.937686 0.172310 0.143816
H47   H     H_    0.599838 0.324906 0.290957 0.013655
H48   H     H_    0.811675 0.379479 0.285990 -0.030888
O1    O     O_2   0.168170 0.764170 0.543850 -0.472313
O2    O     O_3   0.276754 0.270643 0.273932 -0.577489
O3    O     O_3   0.949648 0.740825 0.162358 -0.643154
O4    O     O_2   0.642110 0.235770 0.456130 -0.463258
O5    O     O_3   0.911620 0.370210 0.454030 -0.504119
O6    O     O_3   0.444310 0.304480 0.619110 -0.476416
O7    O     O_3   0.767082 0.219793 0.311602 -0.602983
O8    O     O_3   0.400800 0.556680 0.607590 -0.483457
O9    O     O_3   0.875770 0.359510 0.664420 -0.482048
O10   O     O_2   0.799829 0.430280 0.822848 -0.491799
O11   O     O_3   0.866941 0.233092 0.811282 -0.589384
O12   O     O_3   0.898670 0.629780 0.545890 -0.495034
O13   O     O_3   0.409490 0.443300 0.392340 -0.483204
O14   O     O_2   0.674250 0.555830 0.719690 -0.463575
O15   O     O_3   0.532293 0.731597 0.746414 -0.635109
O16   O     O_2   0.513320 0.113240 0.564966 -0.506516
O17   O     O_3   0.461115 0.136209 0.731097 -0.597439
O18   O     O_3   0.365980 0.695510 0.380810 -0.507249
O19   O     O_2   0.271973 0.883210 0.422152 -0.519901
O20   O     O_3   0.046407 0.777043 0.688907 -0.646353
O21   O     O_3   0.371449 0.858056 0.264586 -0.553929
O22   O     O_2   0.136040 0.444100 0.280280 -0.480936
O23   O     O_3   0.934510 0.640480 0.335500 -0.471077
O24   O     O_2   0.978729 0.541803 0.177935 -0.518890
P1    P     P_3+3 0.998660 0.747790 0.570900 0.973623
P2    P     P_3+3 0.306970 0.411860 0.294270 1.012229
P3    P     P_3+3 0.883730 0.626953 0.216176 1.007284
P4    P     P_3+3 0.811620 0.252200 0.429030 0.998812
P5    P     P_3+3 0.919188 0.363676 0.782378 0.960641
P6    P     P_3+3 0.406742 0.834558 0.379386 1.018607
P7    P     P_3+3 0.499612 0.591085 0.720249 0.950345
P8    P     P_3+3 0.397675 0.165195 0.620456 0.946860
S1    S     S_3+6 0.521985 0.162362 0.130932 -0.048203
O25   O     O_2   0.487190 0.101403 0.208875 -0.223408
O26   O     O_2   0.367083 0.201867 0.089748 -0.312755
O27   O     O_3   0.578328 0.077875 0.052988 -0.517546
H49   H     H_    0.694567 0.071895 0.077198 0.332011
S2    S     S_3+6 0.753076 0.863926 0.218115 -0.116168
O28   O     O_2   0.692534 0.792412 0.283567 -0.404103
O29   O     O_2   0.746741 0.979665 0.249700 -0.297456
O30   O     O_3   0.641429 0.828198 0.113912 -0.540835
H50   H     H_    0.688815 0.879305 0.075142 0.338680

loop_
_geom_bond_atom_site_label_1
_geom_bond_atom_site_label_2
_ccdc_geom_bond_type
C2    O21   S    
C3    O15   S    
C6    H26   S    
S2    O28   D    
O8    P7    S    
C34   H2    S    
C33   C34   S    
C14   P1    S    
C5    C6    S    
C30   H41   S    
C19   H36   S    
C9    C17   A    
C24   C25   A    
C35   C36   S    
C5    O11   S    
C11   C16   A    
C4    H21   S    
C22   C24   A    
C16   C17   A    
C23   H23   S    
C3    C4    S    
C5    H25   S    
C2    H1    S    
Ba2   O14   S    
C7    O17   S    
C27   C31   A    
Ba1   Ba2   S    
C33   H48   S    
S1    O27   S    
C9    H37   S    
Ba2   P4    S    
C22   H40   S    
C10   C14   A    
Ba2   O9    S    
C14   C15   A    
C10   H38   S    
S2    O29   D    
C21   C22   A    
O17   P8    S    
C11   H35   S    
C7    C8    S    
O22   P2    D    
O19   P6    D    
C36   H8    S    
Ba1   O18   S    
C8    H31   S    
Ba2   O12   S    
C20   C26   A    
O18   P6    S    
O13   P2    S    
C33   H47   S    
Ba1   O12   S    
O21   P6    S    
C28   P3    S    
Ba2   O5    S    
C12   O3    S    
O1    P1    D    
C9    C18   A    
C36   H6    S    
C28   C32   A    
C12   H33   S    
C4    H20   S    
Ba2   O6    S    
C7    H30   S    
C35   O20   S    
C37   C38   S    
C1    H11   S    
S2    O30   S    
C38   H12   S    
C15   C19   A    
O5    P4    S    
C20   H44   S    
O20   P1    S    
C27   C28   A    
Ba1   O22   S    
O11   P5    S    
C1    H16   S    
C24   C31   S    
C29   C30   A    
C27   H39   S    
C10   C13   A    
O7    P4    S    
C23   H45   S    
C15   C16   A    
S1    O25   D    
C29   C32   A    
Ba2   O4    S    
O4    P4    D    
C36   H7    S    
C3    H18   S    
C37   H9    S    
C6    H28   S    
C38   H14   S    
C11   C13   A    
C2    H15   S    
Ba1   P2    S    
C35   H5    S    
C1    C2    S    
Ba1   O13   S    
C18   P8    S    
O10   P5    D    
O30   H50   S    
C1    H22   S    
C29   P2    S    
Ba1   O1    S    
C37   O2    S    
C4    H19   S    
C25   H42   S    
O15   P7    S    
O12   P1    S    
C7    H29   S    
C26   P7    S    
C12   S2    S    
C21   P5    S    
C33   O7    S    
O6    P8    S    
Ba2   O13   S    
C13   P6    S    
C3    H17   S    
C30   C31   A    
C35   H4    S    
Ba2   O8    S    
C34   S1    S    
Ba1   O23   S    
C8    H34   S    
C17   P4    S    
Ba1   O8    S    
C23   H46   S    
O3    P3    S    
O2    P2    S    
C12   C23   S    
O9    P5    S    
C5    H24   S    
S1    O26   D    
Ba1   P1    S    
C37   H10   S    
C18   C19   A    
C6    H27   S    
Ba1   O5    S    
C38   H13   S    
C32   H43   S    
C25   C26   A    
C20   C21   A    
C34   H3    S    
O23   P3    S    
O24   P3    D    
O14   P7    D    
O27   H49   S    
O16   P8    D    
C8    H32   S    
