data_mof_unit_60092.cif
_audit_creation_date              2013-03-05T15:52:35-0500
_audit_creation_method            fapswitch 2.2
_symmetry_space_group_name_H-M    P1
_symmetry_Int_Tables_number       1
_space_group_crystal_system       triclinic
_cell_length_a                    43.884925
_cell_length_b                    30.181037
_cell_length_c                    31.855978
_cell_angle_alpha                 90.006217
_cell_angle_beta                  136.496842
_cell_angle_gamma                 90.000642
_cell_volume                      29045.4347637

loop_
_atom_site_label
_atom_site_type_symbol
_atom_site_description
_atom_site_fract_x
_atom_site_fract_y
_atom_site_fract_z
_atom_type_partial_charge
O1    O     O_R   0.566070 0.962660 0.066090 -0.575269
O2    O     O_R   0.433930 0.962660 0.933910 -0.575318
O3    O     O_R   0.066070 0.462660 0.066090 -0.575556
O4    O     O_R   0.933930 0.462660 0.933910 -0.578300
O5    O     O_R   0.566010 0.037250 0.066030 -0.617373
O6    O     O_R   0.433990 0.037250 0.933970 -0.617006
O7    O     O_R   0.066010 0.537250 0.066030 -0.615587
O8    O     O_R   0.933990 0.537250 0.933970 -0.616216
C1    C     C_R   0.586592 0.000045 0.086079 0.948063
C2    C     C_R   0.413414 0.000036 0.913930 0.947739
C3    C     C_R   0.086588 0.500038 0.086066 0.949925
C4    C     C_R   0.913420 0.500027 0.913896 0.945173
O9    O     O_R   0.499990 0.962670 0.061610 -0.589975
O10   O     O_R   0.500010 0.962670 0.938390 -0.590951
O11   O     O_R   0.999990 0.462670 0.061610 -0.596597
O12   O     O_R   0.000010 0.462670 0.938390 -0.590452
O13   O     O_R   0.499940 0.037260 0.061550 -0.609177
O14   O     O_R   0.500060 0.037260 0.938450 -0.608962
O15   O     O_R   0.999940 0.537260 0.061550 -0.604861
O16   O     O_R   0.000060 0.537260 0.938450 -0.609036
C5    C     C_R   0.500009 0.999971 0.081139 0.932233
C6    C     C_R   0.500013 0.999964 0.918882 0.933488
C7    C     C_R   0.000049 0.499983 0.081180 0.932913
C8    C     C_R   0.999998 0.499967 0.918868 0.934030
Zn1   Zn    Zn3+2 0.500000 0.950160 0.000000 1.150850
Zn2   Zn    Zn3+2 1.000000 0.450160 0.000000 1.141949
Zn3   Zn    Zn3+2 0.500000 0.049770 0.000000 1.098753
Zn4   Zn    Zn3+2 0.000000 0.549770 0.000000 1.102933
C9    C     C_3   0.540042 0.009465 0.303994 -0.268394
C10   C     C_3   0.459492 0.006850 0.695569 -0.268330
C11   C     C_3   0.019852 0.464076 0.284005 -0.280137
C12   C     C_3   0.960070 0.509927 0.696117 -0.268003
C13   C     C_3   0.511399 0.040404 0.247533 -0.084441
C14   C     C_3   0.486184 0.039498 0.750085 -0.084650
C15   C     C_3   0.042257 0.499788 0.278533 -0.083941
C16   C     C_3   0.989067 0.540539 0.752940 -0.084515
H1    H     H_    0.573819 0.016974 0.349491 0.199041
H2    H     H_    0.425303 0.012242 0.649695 0.199206
H3    H     H_    0.035925 0.433480 0.311971 0.194461
H4    H     H_    0.926384 0.517819 0.650709 0.199200
C17   C     C_1   0.499674 0.000020 0.125181 -0.040327
C18   C     C_1   0.500395 0.999991 0.874885 -0.039816
C19   C     C_1   0.000301 0.500141 0.125807 -0.043572
C20   C     C_1   0.000326 0.500012 0.874820 -0.039395
C21   C     C_1   0.499947 0.999979 0.374446 -0.045036
C22   C     C_1   0.500047 0.999971 0.625544 -0.045405
C23   C     C_1   0.000029 0.500216 0.374527 -0.047346
C24   C     C_1   0.000055 0.499979 0.625557 -0.044779
C25   C     C_3   0.527172 0.969303 0.262744 -0.189108
C26   C     C_3   0.474853 0.967550 0.739267 -0.188321
C27   C     C_3   0.977880 0.465805 0.213515 -0.200360
C28   C     C_3   0.972468 0.469621 0.736890 -0.188892
C29   C     C_3   0.498553 0.000652 0.206896 -0.026019
C30   C     C_3   0.501500 0.000605 0.793150 -0.026106
C31   C     C_3   0.000689 0.501595 0.209028 -0.022334
C32   C     C_3   0.001446 0.500644 0.793105 -0.026162
C33   C     C_3   0.486235 0.961184 0.249732 0.268268
C34   C     C_3   0.516189 0.962025 0.752635 0.268045
C35   C     C_3   0.959144 0.503288 0.222496 0.272236
C36   C     C_3   0.013312 0.461035 0.749814 0.268163
C37   C     C_3   0.498906 0.000361 0.290573 -0.022156
C38   C     C_3   0.501090 0.000356 0.709414 -0.022583
C39   C     C_3   0.000110 0.501491 0.291774 -0.020209
C40   C     C_3   0.001101 0.500352 0.709436 -0.022254
C41   C     C_3   0.457632 0.991609 0.193606 -0.213598
C42   C     C_3   0.542878 0.994153 0.806852 -0.213082
C43   C     C_3   0.981060 0.538821 0.216820 -0.209776
C44   C     C_3   0.042263 0.491134 0.806295 -0.213735
C45   C     C_3   0.470916 0.030990 0.234848 0.198730
C46   C     C_3   0.527151 0.032652 0.763217 0.198891
C47   C     C_3   0.022382 0.536486 0.286252 0.203239
C48   C     C_3   0.029441 0.530663 0.765519 0.198592
C49   C     C_1   0.499209 0.000237 0.162162 0.144887
C50   C     C_1   0.500877 0.000184 0.837920 0.145378
C51   C     C_1   0.000509 0.500674 0.163461 0.140805
C52   C     C_1   0.000786 0.500230 0.837835 0.145082
C53   C     C_1   0.499608 0.000162 0.336657 0.140783
C54   C     C_1   0.500382 0.000152 0.663327 0.140429
C55   C     C_1   0.000051 0.500757 0.337099 0.137914
C56   C     C_1   0.000397 0.500160 0.663350 0.140989
H5    H     H_    0.550016 0.943376 0.273670 0.201251
H6    H     H_    0.453676 0.940236 0.729999 0.201295
H7    H     H_    0.958973 0.436861 0.182746 0.193910
H8    H     H_    0.949321 0.443959 0.725656 0.201340
C57   C     C_R   0.842711 0.033577 0.313726 -0.045869
C58   C     C_R   0.157317 0.033496 0.686427 -0.046881
C59   C     C_R   0.342681 0.533484 0.313558 -0.046586
C60   C     C_R   0.657365 0.533335 0.686676 -0.046598
C61   C     C_R   0.865274 0.006967 0.365828 -0.140818
C62   C     C_R   0.134742 0.007024 0.634194 -0.140737
C63   C     C_R   0.365254 0.507056 0.365818 -0.140522
C64   C     C_R   0.634772 0.507127 0.634216 -0.140651
C65   C     C_R   0.842487 0.984668 0.374527 -0.176342
C66   C     C_R   0.157529 0.984905 0.625377 -0.175530
C67   C     C_R   0.342464 0.485043 0.374700 -0.175338
C68   C     C_R   0.657558 0.485391 0.625152 -0.175591
C69   C     C_R   0.796617 0.985503 0.330384 0.000683
C70   C     C_R   0.203400 0.985767 0.669513 0.000596
C71   C     C_R   0.296595 0.485946 0.330595 0.001010
C72   C     C_R   0.703428 0.486340 0.669230 0.000525
C73   C     C_R   0.773147 0.010768 0.276789 0.050366
C74   C     C_R   0.226880 0.010830 0.723271 0.050804
C75   C     C_R   0.273119 0.510937 0.276797 0.051004
C76   C     C_R   0.726922 0.511022 0.723268 0.050702
C77   C     C_R   0.796143 0.038041 0.270519 0.001947
C78   C     C_R   0.203897 0.037938 0.729702 0.002155
C79   C     C_R   0.296108 0.537971 0.270318 0.002185
C80   C     C_R   0.703957 0.537783 0.730013 0.002089
C81   C     C_R   0.773707 0.960055 0.337655 0.279622
C82   C     C_R   0.226302 0.960525 0.662068 0.279065
C83   C     C_R   0.273685 0.460811 0.338106 0.280250
C84   C     C_R   0.726320 0.461526 0.661450 0.279436
C85   C     C_R   0.727893 0.956823 0.289416 -0.182252
C86   C     C_R   0.272117 0.957279 0.710279 -0.181393
C87   C     C_R   0.227872 0.457528 0.289882 -0.184694
C88   C     C_R   0.772144 0.458272 0.709592 -0.182658
C89   C     C_R   0.704097 0.979753 0.234751 -0.056647
C90   C     C_R   0.295920 0.979979 0.765106 -0.056594
C91   C     C_R   0.204078 0.480090 0.234974 -0.055496
C92   C     C_R   0.795957 0.480518 0.764713 -0.056786
C93   C     C_R   0.726619 0.008189 0.229097 0.034702
C94   C     C_R   0.273408 0.008211 0.770962 0.034634
C95   C     C_R   0.226592 0.508305 0.229105 0.035602
C96   C     C_R   0.773449 0.508348 0.770935 0.033905
C97   C     C_R   0.702780 0.033451 0.175532 0.034586
C98   C     C_R   0.297255 0.033217 0.824733 0.034788
C99   C     C_R   0.202750 0.533257 0.175307 0.035173
C100  C     C_R   0.797301 0.532853 0.825077 0.035423
C101  C     C_R   0.725618 0.063049 0.172232 -0.190322
C102  C     C_R   0.274444 0.062676 0.828218 -0.188637
C103  C     C_R   0.225566 0.562687 0.171800 -0.187873
C104  C     C_R   0.774532 0.562046 0.828892 -0.185511
C105  C     C_R   0.771317 0.067703 0.220246 -0.041287
C106  C     C_R   0.228752 0.067409 0.780196 -0.043075
C107  C     C_R   0.271262 0.567410 0.219804 -0.043028
C108  C     C_R   0.728849 0.566910 0.780875 -0.042732
C109  C     C_R   0.657964 0.975970 0.186525 0.282095
C110  C     C_R   0.342055 0.976186 0.813305 0.282415
C111  C     C_R   0.157952 0.476189 0.186713 0.279793
C112  C     C_R   0.842097 0.476687 0.812874 0.282931
C113  C     C_R   0.634549 0.000955 0.133376 -0.239845
C114  C     C_R   0.365466 0.000911 0.866652 -0.239445
C115  C     C_R   0.134539 0.500924 0.133372 -0.238766
C116  C     C_R   0.865484 0.500875 0.866597 -0.240244
C117  C     C_R   0.656460 0.029490 0.127081 -0.106491
C118  C     C_R   0.343563 0.029164 0.873201 -0.106650
C119  C     C_R   0.156444 0.529183 0.126834 -0.106173
C120  C     C_R   0.843581 0.528589 0.873587 -0.104910
H9    H     H_    0.861045 0.963945 0.414502 0.203076
H10   H     H_    0.138973 0.964293 0.585299 0.203408
H11   H     H_    0.361009 0.464470 0.414801 0.203053
H12   H     H_    0.639013 0.464991 0.584896 0.203415
H13   H     H_    0.711013 0.936882 0.295806 0.232009
H14   H     H_    0.288990 0.937506 0.703750 0.232173
H15   H     H_    0.210990 0.437855 0.296472 0.230850
H16   H     H_    0.789013 0.438841 0.702800 0.231952
H17   H     H_    0.707938 0.084548 0.133226 0.208565
H18   H     H_    0.292154 0.084029 0.867373 0.208851
H19   H     H_    0.207858 0.584016 0.132631 0.208868
H20   H     H_    0.792291 0.583131 0.868301 0.208083
O17   O     O_R   0.537250 0.933800 0.537250 -0.626010
O18   O     O_R   0.462750 0.933800 0.462750 -0.625927
O19   O     O_R   0.037250 0.433800 0.537250 -0.624717
O20   O     O_R   0.962750 0.433800 0.462750 -0.629747
C121  C     C_R   0.499997 0.913212 0.499994 0.871376
C122  C     C_R   0.999998 0.413213 0.500005 0.862858
O21   O     O_R   0.537260 0.999870 0.475660 -0.626269
O22   O     O_R   0.462740 0.999870 0.524340 -0.626033
O23   O     O_R   0.037260 0.499870 0.475660 -0.614462
O24   O     O_R   0.962740 0.499870 0.524340 -0.625828
O25   O     O_R   0.462660 0.999960 0.401030 -0.579970
O26   O     O_R   0.537340 0.999960 0.598970 -0.580308
O27   O     O_R   0.962660 0.499960 0.401030 -0.584215
O28   O     O_R   0.037340 0.499960 0.598970 -0.579738
C123  C     C_R   0.499978 0.999816 0.418859 0.924646
C124  C     C_R   0.500021 0.999815 0.581138 0.924376
C125  C     C_R   0.999983 0.499805 0.418863 0.914948
C126  C     C_R   0.000022 0.499818 0.581141 0.924479
Zn5   Zn    Zn3+2 0.549780 0.999850 0.549790 1.085408
Zn6   Zn    Zn3+2 0.450220 0.999850 0.450210 1.086782
Zn7   Zn    Zn3+2 0.049780 0.499850 0.549790 1.098961
Zn8   Zn    Zn3+2 0.950220 0.499850 0.450210 1.081871
O29   O     O_R   0.537280 0.065930 0.537300 -0.589561
O30   O     O_R   0.462720 0.065930 0.462700 -0.588940
O31   O     O_R   0.037280 0.565930 0.537300 -0.584265
O32   O     O_R   0.962720 0.565930 0.462700 -0.589802
C127  C     C_R   0.500002 0.086399 0.499997 1.014729
C128  C     C_R   0.000004 0.586401 0.500012 1.015033
O33   O     O_R   0.999920 0.066060 0.534710 -0.592169
O34   O     O_R   0.000080 0.066060 0.465290 -0.593261
O35   O     O_R   0.499920 0.566060 0.534710 -0.592288
O36   O     O_R   0.500080 0.566060 0.465290 -0.592219
C129  C     C_R   0.999995 0.086776 0.499998 0.989063
C130  C     C_R   0.499996 0.586774 0.500000 0.987834
O37   O     O_R   0.933920 0.999970 0.468730 -0.604962
O38   O     O_R   0.066080 0.999970 0.531270 -0.605097
O39   O     O_R   0.433920 0.499970 0.468730 -0.604822
O40   O     O_R   0.566080 0.499970 0.531270 -0.605385
O41   O     O_R   0.933860 0.999980 0.399100 -0.617648
O42   O     O_R   0.066140 0.999980 0.600900 -0.617394
O43   O     O_R   0.433860 0.499980 0.399100 -0.617403
O44   O     O_R   0.566140 0.499980 0.600900 -0.617268
C131  C     C_R   0.913084 0.001841 0.413104 0.929791
C132  C     C_R   0.086922 0.001858 0.586902 0.929739
C133  C     C_R   0.413075 0.501859 0.413097 0.929154
C134  C     C_R   0.586934 0.501880 0.586914 0.928801
Zn9   Zn    Zn3+2 0.000000 0.999990 0.546450 1.076433
Zn10  Zn    Zn3+2 1.000000 0.999990 0.453550 1.075048
Zn11  Zn    Zn3+2 0.500000 0.499990 0.546450 1.077651
Zn12  Zn    Zn3+2 0.500000 0.499990 0.453550 1.076575
O45   O     O_R   0.000070 0.933930 0.534840 -0.626395
O46   O     O_R   0.999930 0.933930 0.465160 -0.626115
O47   O     O_R   0.500070 0.433930 0.534840 -0.626206
O48   O     O_R   0.499930 0.433930 0.465160 -0.626427
C135  C     C_R   0.000005 0.912985 0.500003 0.882437
C136  C     C_R   0.500001 0.412984 0.499999 0.882196
C137  C     C_R   0.966583 0.157441 0.488870 -0.068375
C138  C     C_R   0.033434 0.157447 0.511206 -0.069123
C139  C     C_R   0.466505 0.657437 0.488676 -0.068426
C140  C     C_R   0.533508 0.657437 0.511374 -0.068059
C141  C     C_R   1.000000 0.134710 0.500016 -0.197502
C142  C     C_R   0.500001 0.634706 0.500014 -0.196892
C143  C     C_R   0.034173 0.203904 0.512930 0.048371
C144  C     C_R   0.965851 0.203899 0.487168 0.048228
C145  C     C_R   0.534225 0.703896 0.513042 0.048813
C146  C     C_R   0.465774 0.703895 0.486965 0.048383
C147  C     C_R   0.000012 0.226947 0.500050 0.045745
C148  C     C_R   0.499995 0.726941 0.499991 0.047306
C149  C     C_R   0.068757 0.228022 0.528411 -0.128634
C150  C     C_R   0.931274 0.228013 0.471705 -0.126544
C151  C     C_R   0.568852 0.728013 0.528637 -0.125792
C152  C     C_R   0.431140 0.728009 0.471352 -0.124753
C153  C     C_R   0.569131 0.773936 0.529853 -0.180835
C154  C     C_R   0.430851 0.773930 0.470108 -0.180579
C155  C     C_R   0.069049 0.273944 0.529659 -0.189277
C156  C     C_R   0.930981 0.273935 0.470458 -0.183532
C157  C     C_R   0.534838 0.796770 0.515275 0.112263
C158  C     C_R   0.465141 0.796767 0.484677 0.111846
C159  C     C_R   0.034809 0.296776 0.515216 0.112466
C160  C     C_R   0.965213 0.296772 0.484884 0.110753
C161  C     C_R   0.499991 0.773437 0.499979 0.087870
C162  C     C_R   0.000012 0.273443 0.500052 0.087447
C163  C     C_R   0.534863 0.842751 0.515831 -0.212987
C164  C     C_R   0.465117 0.842747 0.484119 -0.213635
C165  C     C_R   0.034831 0.342756 0.515767 -0.226546
C166  C     C_R   0.965179 0.342753 0.484304 -0.216095
C167  C     C_R   0.499992 0.865499 0.499980 -0.055149
C168  C     C_R   0.000000 0.365503 0.500021 -0.056217
H21   H     H_    0.096241 0.211802 0.540495 0.184722
H22   H     H_    0.903791 0.211787 0.459622 0.184509
H23   H     H_    0.596380 0.711792 0.540836 0.184459
H24   H     H_    0.403615 0.711784 0.459160 0.185232
H25   H     H_    0.596176 0.791615 0.542056 0.166333
H26   H     H_    0.403803 0.791606 0.457898 0.166933
H27   H     H_    0.096058 0.291623 0.541766 0.165923
H28   H     H_    0.903972 0.291610 0.458354 0.166351
H29   H     H_    0.561576 0.860878 0.527572 0.166203
H30   H     H_    0.438405 0.860872 0.472381 0.166225
H31   H     H_    0.061505 0.360884 0.527406 0.165642
H32   H     H_    0.938504 0.360880 0.472658 0.166709
C169  C     C_R   0.985460 0.842083 0.449906 -0.222144
C170  C     C_R   0.014609 0.842099 0.550148 -0.222770
C171  C     C_R   0.485557 0.342079 0.449958 -0.223412
C172  C     C_R   0.514458 0.342090 0.550043 -0.223298
C173  C     C_R   0.000024 0.865004 0.500019 -0.073878
C174  C     C_R   0.500005 0.365000 0.499999 -0.074011
C175  C     C_R   0.015056 0.796048 0.550707 0.112243
C176  C     C_R   0.985038 0.796032 0.449369 0.111791
C177  C     C_R   0.514891 0.296039 0.550590 0.111999
C178  C     C_R   0.485128 0.296028 0.449412 0.111910
C179  C     C_R   0.000050 0.772752 0.500042 0.114921
C180  C     C_R   0.500011 0.272746 0.500001 0.114498
C181  C     C_R   0.030212 0.773050 0.601064 -0.197519
C182  C     C_R   0.969893 0.773018 0.399021 -0.196926
C183  C     C_R   0.529910 0.273039 0.600862 -0.198624
C184  C     C_R   0.470108 0.273017 0.399139 -0.198351
C185  C     C_R   0.530628 0.227017 0.601514 -0.093076
C186  C     C_R   0.469388 0.226994 0.398485 -0.093032
C187  C     C_R   0.030937 0.727027 0.601721 -0.092057
C188  C     C_R   0.969170 0.726996 0.398371 -0.087860
C189  C     C_R   0.516181 0.203160 0.551675 0.002570
C190  C     C_R   0.483836 0.203148 0.448324 0.002426
C191  C     C_R   0.016355 0.703167 0.551798 0.003199
C192  C     C_R   0.983741 0.703153 0.448290 0.003341
C193  C     C_R   0.500011 0.226264 0.500001 -0.019577
C194  C     C_R   0.000051 0.726270 0.500045 -0.019740
C195  C     C_R   0.516775 0.156768 0.551849 0.218561
C196  C     C_R   0.483234 0.156756 0.448144 0.218952
C197  C     C_R   0.016945 0.656774 0.551969 0.219459
C198  C     C_R   0.983123 0.656763 0.448105 0.224499
C199  C     C_R   0.500006 0.134151 0.499998 -0.285038
C200  C     C_R   0.000018 0.634155 0.500026 -0.284340
H33   H     H_    0.973912 0.860089 0.411009 0.172096
H34   H     H_    0.026147 0.860118 0.589036 0.172135
H35   H     H_    0.474109 0.360086 0.411123 0.172223
H36   H     H_    0.525903 0.360104 0.588876 0.172256
H37   H     H_    0.041592 0.790674 0.640050 0.171509
H38   H     H_    0.958512 0.790630 0.360033 0.171560
H39   H     H_    0.541190 0.290661 0.639786 0.171426
H40   H     H_    0.458827 0.290630 0.360214 0.171529
H41   H     H_    0.542194 0.210410 0.641095 0.212836
H42   H     H_    0.457818 0.210377 0.358902 0.212665
H43   H     H_    0.042610 0.710421 0.641369 0.212473
H44   H     H_    0.957496 0.710377 0.358725 0.212450
C201  C     C_2   0.525467 0.085561 0.247304 1.001004
O49   O     O_2   0.534886 0.113759 0.282756 -0.559677
O50   O     O_R   0.527712 0.095260 0.206729 -0.788079
H45   H     H_    0.537582 0.126817 0.211002 0.364437
C202  C     C_2   0.469325 0.083676 0.747558 1.001578
O51   O     O_2   0.458144 0.111234 0.710365 -0.560095
O52   O     O_R   0.466489 0.093195 0.787549 -0.787384
H46   H     H_    0.454653 0.124063 0.781332 0.364397
C203  C     C_2   0.089561 0.498071 0.311747 1.003677
O53   O     O_2   0.119068 0.496356 0.367417 -0.563948
O54   O     O_R   0.099746 0.498511 0.279163 -0.752438
H47   H     H_    0.132789 0.497246 0.306748 0.374641
C204  C     C_2   0.975527 0.585853 0.753707 1.001225
O55   O     O_2   0.966445 0.614159 0.718596 -0.559469
O56   O     O_R   0.973392 0.595576 0.794394 -0.787894
H48   H     H_    0.963896 0.627246 0.790500 0.364501
N1    N     N_R   0.634554 0.948124 0.192213 0.204470
O57   O     O_R   0.608806 0.965588 0.194734 -0.398341
O58   O     O_R   0.638151 0.905248 0.193342 -0.332604
N2    N     N_R   0.365470 0.948572 0.807427 0.204251
O59   O     O_R   0.391269 0.966258 0.805125 -0.397850
O60   O     O_R   0.361860 0.905678 0.805968 -0.331605
N3    N     N_R   0.134566 0.448353 0.192457 0.202362
O61   O     O_R   0.108081 0.465751 0.193652 -0.375999
O62   O     O_R   0.138708 0.405501 0.194556 -0.335579
N4    N     N_R   0.865535 0.449515 0.806669 0.204093
O63   O     O_R   0.891475 0.467608 0.804859 -0.399470
O64   O     O_R   0.861878 0.406596 0.804549 -0.335212
C205  C     C_2   0.630488 0.053899 0.068863 0.942159
O65   O     O_2   0.628755 0.094374 0.067961 -0.584149
O66   O     O_R   0.606794 0.030211 0.014940 -0.785647
H49   H     H_    0.589989 0.050307 0.978240 0.366983
C206  C     C_2   0.369522 0.053095 0.931739 0.942111
O67   O     O_2   0.371570 0.093561 0.933291 -0.582937
O68   O     O_R   0.392784 0.028960 0.985210 -0.784720
H50   H     H_    0.409550 0.048747 0.022184 0.366575
C207  C     C_2   0.130498 0.553049 0.068266 0.941600
O69   O     O_2   0.128407 0.593512 0.066642 -0.581471
O70   O     O_R   0.107311 0.528854 0.014851 -0.785233
H51   H     H_    0.090558 0.548596 0.977850 0.366464
C208  C     C_2   0.869487 0.551467 0.932761 0.945534
O71   O     O_2   0.872157 0.591898 0.935698 -0.586290
O72   O     O_R   0.891916 0.526347 0.985251 -0.798642
H52   H     H_    0.908671 0.545443 0.022790 0.369013
C209  C     C_2   0.790306 0.107360 0.218400 0.945005
O73   O     O_2   0.816233 0.131172 0.263308 -0.579140
O74   O     O_R   0.776823 0.118652 0.164326 -0.752507
H53   H     H_    0.791628 0.146648 0.168525 0.365520
C210  C     C_2   0.209815 0.106964 0.782307 0.946577
O75   O     O_2   0.183972 0.130949 0.737589 -0.575905
O76   O     O_R   0.223259 0.117965 0.836428 -0.749580
H54   H     H_    0.208499 0.145920 0.832423 0.368648
C211  C     C_2   0.290220 0.606920 0.217658 0.947124
O77   O     O_2   0.316108 0.630910 0.262372 -0.575420
O78   O     O_R   0.276748 0.617876 0.163508 -0.749452
H55   H     H_    0.291528 0.645804 0.167492 0.368731
C212  C     C_2   0.709975 0.606255 0.783444 0.945431
O79   O     O_2   0.684215 0.630523 0.739033 -0.576523
O80   O     O_R   0.723393 0.616746 0.837668 -0.749200
H56   H     H_    0.708684 0.644607 0.833991 0.368111
C213  C     C_2   0.932228 0.132504 0.478289 0.927019
O81   O     O_2   0.908125 0.106280 0.435986 -0.595617
O82   O     O_R   0.927791 0.139083 0.517088 -0.773639
H57   H     H_    0.903405 0.120267 0.505384 0.361870
C214  C     C_2   0.067813 0.132511 0.521844 0.927210
O83   O     O_2   0.091906 0.106311 0.564167 -0.594685
O84   O     O_R   0.072283 0.139064 0.483080 -0.779096
H58   H     H_    0.096684 0.120251 0.494824 0.361513
C215  C     C_2   0.432069 0.632495 0.477902 0.927363
O85   O     O_2   0.408024 0.606283 0.435573 -0.594979
O86   O     O_R   0.427488 0.639057 0.516546 -0.772681
H59   H     H_    0.403057 0.620239 0.504715 0.363389
C216  C     C_2   0.567994 0.632487 0.522277 0.926425
O87   O     O_2   0.592035 0.606337 0.564674 -0.595888
O88   O     O_R   0.572627 0.638965 0.483679 -0.773667
H60   H     H_    0.597088 0.620146 0.495600 0.362198
N5    N     N_R   0.533374 0.132387 0.603818 0.208868
O89   O     O_R   0.575109 0.134523 0.655385 -0.319979
O90   O     O_R   0.507150 0.106649 0.598923 -0.375252
N6    N     N_R   0.466600 0.132364 0.396153 0.208484
O91   O     O_R   0.424860 0.134503 0.344607 -0.318761
O92   O     O_R   0.492802 0.106626 0.401001 -0.377844
N7    N     N_R   0.033713 0.632396 0.604038 0.208299
O93   O     O_R   0.075489 0.634556 0.655481 -0.316300
O94   O     O_R   0.007598 0.606644 0.599358 -0.378685
N8    N     N_R   0.966346 0.632375 0.396032 0.205640
O95   O     O_R   0.924563 0.634510 0.344606 -0.330219
O96   O     O_R   0.992458 0.606635 0.400695 -0.356110
N9    N     N_R   0.440216 0.064996 0.218657 0.242921
O97   O     O_R   0.418573 0.088723 0.169843 -0.324486
O98   O     O_R   0.434275 0.071883 0.252616 -0.278031
N10   N     N_R   0.555673 0.068520 0.777248 0.242589
O99   O     O_R   0.575771 0.093569 0.824531 -0.326383
O100  O     O_R   0.561231 0.075734 0.742910 -0.276900
N11   N     N_R   0.046920 0.575194 0.325239 0.242298
O101  O     O_R   0.064325 0.602184 0.315434 -0.323020
O102  O     O_R   0.051373 0.583154 0.369578 -0.296162
N12   N     N_R   0.060537 0.564315 0.782114 0.243053
O103  O     O_R   0.082458 0.587788 0.831213 -0.324030
O104  O     O_R   0.066552 0.571139 0.748231 -0.277944
C217  C     C_2   0.411425 0.981468 0.133249 1.042846
O105  O     O_2   0.382426 0.975291 0.130365 -0.538466
O106  O     O_R   0.401720 0.979084 0.080750 -0.771380
H61   H     H_    0.369415 0.972133 0.042916 0.373104
C218  C     C_2   0.589644 0.986836 0.867658 1.042164
O107  O     O_2   0.618943 0.982736 0.870774 -0.538856
O108  O     O_R   0.599522 0.984642 0.920298 -0.772367
H62   H     H_    0.632205 0.979675 0.958431 0.373018
C219  C     C_2   0.959275 0.580762 0.180646 1.046987
O109  O     O_2   0.944938 0.606897 0.192272 -0.530146
O110  O     O_R   0.955528 0.589833 0.134062 -0.799773
H63   H     H_    0.940128 0.619058 0.112968 0.367762
C220  C     C_2   0.088346 0.480486 0.866547 1.042880
O111  O     O_2   0.117271 0.473923 0.869368 -0.538165
O112  O     O_R   0.098024 0.478086 0.919024 -0.771581
H64   H     H_    0.130245 0.470776 0.956787 0.372939
N13   N     N_R   0.472497 0.917334 0.250079 0.234065
O113  O     O_R   0.463331 0.886833 0.213433 -0.323430
O114  O     O_R   0.469275 0.908384 0.286666 -0.356447
N14   N     N_R   0.532612 0.919130 0.754917 0.234032
O115  O     O_R   0.543702 0.889247 0.793452 -0.323591
O116  O     O_R   0.536336 0.910424 0.718823 -0.355453
N15   N     N_R   0.913212 0.505078 0.190496 0.235017
O117  O     O_R   0.881517 0.505759 0.131220 -0.325441
O118  O     O_R   0.903584 0.506170 0.220643 -0.323576
N16   N     N_R   0.026541 0.417031 0.748953 0.234117
O119  O     O_R   0.035342 0.386427 0.785230 -0.323941
O120  O     O_R   0.029665 0.408042 0.712267 -0.356059
C221  C     C_2   0.867086 0.052280 0.301612 0.953803
O121  O     O_2   0.897637 0.078235 0.337655 -0.550440
O122  O     O_R   0.854577 0.040287 0.248417 -0.781112
H65   H     H_    0.873292 0.055298 0.244857 0.361582
C222  C     C_2   0.132925 0.052089 0.698562 0.954290
O123  O     O_2   0.102453 0.078141 0.662653 -0.547957
O124  O     O_R   0.145317 0.039873 0.751609 -0.779944
H66   H     H_    0.126597 0.054824 0.755195 0.363152
C223  C     C_2   0.367055 0.551978 0.301348 0.954043
O125  O     O_2   0.397548 0.578031 0.337203 -0.547754
O126  O     O_R   0.354612 0.539674 0.248286 -0.780052
H67   H     H_    0.373321 0.554565 0.244644 0.363313
C224  C     C_2   0.632969 0.551653 0.698925 0.954585
O127  O     O_2   0.602601 0.577866 0.663290 -0.547519
O128  O     O_R   0.645230 0.538990 0.751753 -0.778798
H68   H     H_    0.626515 0.553787 0.755441 0.363362
N17   N     N_R   0.796250 0.937507 0.393703 0.206222
O129  O     O_R   0.783597 0.898052 0.392356 -0.329017
O130  O     O_R   0.823629 0.959147 0.445034 -0.352934
N18   N     N_R   0.203748 0.938213 0.605867 0.206681
O131  O     O_R   0.216402 0.898846 0.606944 -0.325099
O132  O     O_R   0.176355 0.960015 0.554678 -0.352316
N19   N     N_R   0.296229 0.438646 0.394384 0.206541
O133  O     O_R   0.283534 0.399351 0.393442 -0.328006
O134  O     O_R   0.323668 0.460539 0.445506 -0.348899
N20   N     N_R   0.703749 0.439672 0.604972 0.206251
O135  O     O_R   0.716444 0.400499 0.605556 -0.329597
O136  O     O_R   0.676273 0.461773 0.554035 -0.352748

loop_
_geom_bond_atom_site_label_1
_geom_bond_atom_site_label_2
_geom_bond_distance
_ccdc_geom_bond_type
C71   C75   1.416441 A    
N15   O117  1.300243 A    
C211  O77   1.223158 D    
C110  N2    1.436877 S    
O40   C134  1.276561 A    
C114  C118  1.409029 A    
C121  C167  1.440013 S    
C40   C48   1.533563 S    
C75   C95   1.408343 A    
C206  O67   1.222957 D    
C222  O123  1.223169 D    
C172  C177  1.389923 A    
O24   C126  1.286980 A    
N10   O100  1.300214 A    
C59   C63   1.413131 A    
C82   N18   1.437916 S    
C60   C80   1.417621 A    
C67   C71   1.387084 A    
O37   C131  1.276244 A    
C16   C204  1.498378 S    
C9    C13   1.551648 S    
C72   C76   1.416427 A    
C145  C148  1.416766 A    
C7    C19   1.413688 S    
C38   C46   1.533502 S    
C28   H8    1.110099 S    
C153  C157  1.393414 A    
C12   C28   1.561422 S    
C185  C189  1.407343 A    
C30   C50   1.446183 S    
C65   H9    1.082499 S    
C171  C178  1.389933 A    
N2    O59   1.301013 A    
N17   O130  1.301423 A    
C150  C156  1.386336 A    
C152  H24   1.081249 S    
C187  C191  1.407348 A    
O38   C132  1.276366 A    
Zn5   O29   2.029847 S    
C13   C45   1.535845 S    
C130  C142  1.446625 S    
C202  O52   1.396722 S    
C36   N16   1.457641 S    
C192  C198  1.400287 A    
C219  O110  1.396550 S    
C41   C217  1.498770 S    
C102  C106  1.389790 A    
C147  C162  1.403304 A    
C210  O76   1.398251 S    
C183  H39   1.083907 S    
C62   C132  1.453114 S    
C19   C51   1.192985 T    
N4    O63   1.300994 A    
C196  C199  1.404391 A    
C164  H30   1.085062 S    
C14   C202  1.498429 S    
C57   C221  1.486881 S    
C58   C62   1.413077 A    
N8    O96   1.300704 A    
O16   Zn4   1.998593 S    
C205  O65   1.222976 D    
C140  C216  1.488509 S    
O7    Zn4   2.029703 S    
O15   C7    1.285533 A    
O18   C121  1.285483 A    
O76   H54   1.013827 S    
Zn10  O46   2.028218 S    
C152  C154  1.386331 A    
O9    C5    1.285894 A    
C59   C223  1.486786 S    
O36   Zn12  2.028326 S    
C101  C105  1.389701 A    
O26   Zn5   1.998318 S    
C39   C47   1.533375 S    
O27   Zn8   1.998318 S    
C14   C30   1.540905 S    
N5    O89   1.300956 A    
O8    Zn4   2.029609 S    
C178  C180  1.410977 A    
C33   N13   1.457642 S    
N7    O93   1.300960 A    
C106  C210  1.483698 S    
C27   H7    1.110083 S    
C77   C105  1.422115 A    
N11   O102  1.300172 A    
C175  C181  1.396418 A    
C1    C113  1.449189 S    
C83   N19   1.437936 S    
O3    Zn2   2.031275 S    
O11   Zn2   1.998907 S    
N6    O92   1.300714 A    
O86   H59   1.013845 S    
C33   C37   1.533011 S    
C91   C95   1.415719 A    
C66   H10   1.082488 S    
N9    O97   1.300279 A    
C35   C39   1.532920 S    
C164  C167  1.395459 A    
C102  H18   1.081068 S    
C36   C40   1.533029 S    
C122  C168  1.439937 S    
O35   C130  1.272410 A    
C217  O105  1.221951 D    
C42   C46   1.538585 S    
C25   C29   1.548133 S    
C27   C31   1.548166 S    
C45   N9    1.458281 S    
C224  O127  1.223187 D    
C99   C103  1.402236 A    
C88   H16   1.082184 S    
O3    C3    1.287236 A    
O66   H49   1.013873 S    
C97   C101  1.402310 A    
C59   C79   1.417399 A    
N1    O57   1.301020 A    
C165  C168  1.395446 A    
C176  C182  1.396399 A    
O78   H55   1.013825 S    
N19   O134  1.301423 A    
C98   C102  1.402209 A    
C75   C79   1.424150 A    
C218  O107  1.221985 D    
C213  O81   1.221974 D    
C3    C115  1.448979 S    
C86   H14   1.082188 S    
C149  H21   1.081250 S    
Zn6   O30   2.029750 S    
C209  O73   1.223161 D    
C169  H33   1.084765 S    
O19   Zn7   2.029030 S    
C120  C208  1.487781 S    
O112  H64   1.013757 S    
C151  H23   1.081241 S    
C17   C49   1.192980 T    
C24   C126  1.413857 S    
C138  C143  1.402665 A    
C9    C25   1.561419 S    
O5    C1    1.283706 A    
N15   O118  1.300222 A    
C10   H2    1.110191 S    
C12   C16   1.551654 S    
C21   C123  1.413836 S    
C107  C211  1.483702 S    
C109  N1    1.436884 S    
C203  O54   1.396609 S    
N11   O101  1.300263 A    
C68   H12   1.082464 S    
C64   C68   1.390150 A    
C25   C33   1.542427 S    
C90   C94   1.415716 A    
C20   C52   1.192968 T    
C28   C36   1.542425 S    
C35   C43   1.536248 S    
O5    Zn3   2.029703 S    
C111  C115  1.402817 A    
O110  H63   1.013727 S    
C37   C53   1.445864 S    
C201  O50   1.396762 S    
C92   C112  1.400219 A    
C112  N4    1.436847 S    
O17   Zn5   2.029030 S    
C29   C41   1.541343 S    
C82   C86   1.389709 A    
O18   Zn6   2.029127 S    
O8    C4    1.283851 A    
C31   C51   1.446113 S    
C108  C212  1.483638 S    
C197  N7    1.436585 S    
O10   Zn1   1.998990 S    
C111  N3    1.437016 S    
O24   Zn8   1.999062 S    
C191  C194  1.416068 A    
Zn9   O45   2.028139 S    
C58   C78   1.417378 A    
C48   N12   1.458283 S    
O23   C125  1.286873 A    
C220  O112  1.396496 S    
N16   O120  1.300202 A    
C207  O70   1.397153 S    
C9    C37   1.548399 S    
N20   O135  1.301358 A    
C10   C14   1.551623 S    
O13   Zn3   1.998670 S    
C11   C39   1.548539 S    
O20   Zn8   2.029127 S    
C12   C40   1.548401 S    
C169  C176  1.389919 A    
C5    C17   1.413673 S    
C170  C175  1.389933 A    
N3    O62   1.300987 A    
C180  C193  1.402872 A    
C32   C44   1.541326 S    
C88   C92   1.401415 A    
O36   C130  1.272476 A    
O38   Zn10  2.030727 S    
C93   C97   1.413530 A    
C69   C81   1.411507 A    
C95   C99   1.413514 A    
O46   C135  1.275338 A    
C104  C108  1.389944 A    
C71   C83   1.411561 A    
C103  H19   1.081077 S    
O15   Zn4   1.998670 S    
O35   Zn11  2.028406 S    
C85   C89   1.401481 A    
N14   O115  1.300276 A    
C87   C91   1.401508 A    
O4    C4    1.286939 A    
C206  O68   1.397117 S    
O44   Zn11  2.032204 S    
C65   C69   1.387012 A    
C84   C88   1.389841 A    
C179  C194  1.402872 A    
O21   C123  1.286968 A    
N12   O103  1.300276 A    
O22   C124  1.286927 A    
C14   C46   1.535865 S    
C186  H42   1.081843 S    
O14   C6    1.285930 A    
C38   C54   1.445777 S    
C11   C27   1.561313 S    
N18   O131  1.301352 A    
N7    O94   1.300712 A    
C30   C42   1.541439 S    
C113  C117  1.409345 A    
O30   C127  1.284534 A    
C157  C161  1.411026 A    
O27   C125  1.286740 A    
O10   C6    1.285854 A    
C192  C194  1.416033 A    
O48   C136  1.275353 A    
C155  H27   1.084048 S    
C97   C117  1.406100 A    
C139  C142  1.411325 A    
C46   N10   1.458319 S    
C35   N15   1.457520 S    
C68   C72   1.387152 A    
C129  C141  1.446701 S    
O41   Zn10  2.032207 S    
C195  C199  1.404378 A    
C139  C146  1.402667 A    
C61   C65   1.389880 A    
O40   Zn12  2.030727 S    
O17   C121  1.285479 A    
C216  O88   1.397866 S    
C15   C203  1.498422 S    
C15   C47   1.535953 S    
O33   C129  1.272430 A    
N19   O133  1.301358 A    
C190  C193  1.416071 A    
N2    O60   1.300972 A    
N17   O129  1.301353 A    
O43   C133  1.274360 A    
C21   C53   1.193079 T    
O26   C124  1.286608 A    
C214  O84   1.397870 S    
C34   C38   1.532950 S    
O21   Zn5   1.999062 S    
C219  O109  1.221956 D    
C70   C82   1.411551 A    
C213  O82   1.397874 S    
O39   C133  1.276373 A    
O52   H46   1.013806 S    
C170  C173  1.398297 A    
C210  O75   1.223158 D    
O88   H60   1.013846 S    
C212  O80   1.398250 S    
C158  C161  1.411035 A    
C26   C30   1.548172 S    
N4    O64   1.300972 A    
C138  C141  1.411366 A    
C215  O86   1.397872 S    
C223  O126  1.397943 S    
C66   C70   1.387052 A    
O84   H58   1.013845 S    
C197  C200  1.404438 A    
Zn8   O32   2.029750 S    
C25   H5    1.110103 S    
C204  O56   1.396766 S    
C79   C107  1.422224 A    
O34   C129  1.272507 A    
C184  H40   1.083907 S    
C175  C179  1.410969 A    
C148  C161  1.403310 A    
O74   H53   1.013827 S    
C221  O122  1.397951 S    
C70   C74   1.416506 A    
O80   H56   1.013826 S    
C170  H34   1.084766 S    
C208  O72   1.397241 S    
O28   C126  1.286607 A    
C96   C100  1.413529 A    
C205  O66   1.397021 S    
C10   C26   1.561451 S    
O54   H47   1.013825 S    
C211  O78   1.398253 S    
O41   C131  1.274188 A    
C40   C56   1.445888 S    
C101  H17   1.081012 S    
C63   C133  1.453291 S    
C62   C66   1.389946 A    
C185  H41   1.081842 S    
C222  O124  1.397948 S    
O12   Zn2   1.998990 S    
C29   C49   1.446122 S    
C18   C50   1.193022 T    
C187  H43   1.081841 S    
C157  C163  1.387853 A    
O128  H68   1.013771 S    
C26   C34   1.542490 S    
C137  C213  1.488569 S    
O19   C122  1.285434 A    
O1    C1    1.287472 A    
N10   O99   1.300280 A    
C137  C141  1.411409 A    
C110  C114  1.402602 A    
O72   H52   1.013496 S    
C22   C54   1.193041 T    
C57   C61   1.412932 A    
C100  C120  1.405899 A    
C153  H25   1.084049 S    
C207  O69   1.222950 D    
C160  C166  1.387869 A    
C73   C93   1.408292 A    
O50   H45   1.013753 S    
C149  C155  1.386322 A    
C115  C119  1.409035 A    
O124  H66   1.013772 S    
C139  C215  1.488530 S    
C169  C173  1.398270 A    
C16   C32   1.540770 S    
C144  C150  1.410914 A    
O68   H50   1.013870 S    
C84   N20   1.437929 S    
C151  C153  1.386338 A    
C104  H20   1.081155 S    
C156  H28   1.084048 S    
O23   Zn7   1.999062 S    
C76   C96   1.408401 A    
C72   C84   1.411652 A    
O42   Zn9   2.032204 S    
C163  C167  1.395470 A    
C10   C38   1.548379 S    
C8    C20   1.413652 S    
C11   C15   1.551614 S    
C67   H11   1.082491 S    
C195  N5    1.436552 S    
O32   C128  1.284605 A    
C144  C147  1.416729 A    
C76   C80   1.424212 A    
C26   H6    1.110111 S    
O47   C136  1.275341 A    
C109  C113  1.402694 A    
C155  C159  1.393406 A    
C209  O74   1.398253 S    
C112  C116  1.402432 A    
C33   C41   1.536287 S    
O6    C2    1.283750 A    
C58   C222  1.486795 S    
O4    Zn2   2.031374 S    
C81   N17   1.437911 S    
N8    O95   1.300950 A    
C34   N14   1.457672 S    
C103  C107  1.389814 A    
C159  C165  1.387824 A    
C91   C111  1.400128 A    
C196  N6    1.436570 S    
C117  C205  1.488358 S    
N3    O61   1.300866 A    
O22   Zn6   1.999062 S    
C203  O53   1.221937 D    
O33   Zn9   2.028406 S    
C41   C45   1.538567 S    
O2    Zn1   2.031374 S    
C43   C47   1.538522 S    
N13   O113  1.300232 A    
C60   C224  1.486653 S    
C165  H31   1.085069 S    
Zn11  O47   2.028139 S    
C64   C134  1.453909 S    
O56   H48   1.013752 S    
C128  C200  1.441280 S    
O37   Zn9   2.030733 S    
C36   C44   1.536291 S    
C172  C174  1.398309 A    
C201  O49   1.221961 D    
C177  C180  1.410975 A    
C9    H1    1.110188 S    
O108  H62   1.013802 S    
N5    O90   1.300709 A    
C4    C116  1.448512 S    
C172  H36   1.084762 S    
C74   C94   1.408341 A    
C143  C149  1.410892 A    
O13   C5    1.285853 A    
C189  C195  1.400318 A    
C171  C174  1.398308 A    
C105  C209  1.483743 S    
O70   H51   1.013869 S    
C190  C196  1.400325 A    
C32   C52   1.446100 S    
C13   C29   1.540788 S    
O82   H57   1.013847 S    
C23   C55   1.193107 T    
C116  C120  1.408411 A    
N6    O91   1.300959 A    
C140  C142  1.411306 A    
C220  O111  1.221954 D    
C98   C118  1.406063 A    
C43   C219  1.498805 S    
C39   C55   1.445904 S    
C202  O51   1.221978 D    
C191  C197  1.400361 A    
O7    C3    1.283834 A    
N9    O98   1.300220 A    
C145  C151  1.410895 A    
N20   O136  1.301426 A    
C182  C188  1.389166 A    
C183  C185  1.389177 A    
C80   C108  1.422436 A    
O29   C127  1.284562 A    
C182  H38   1.083910 S    
C217  O106  1.396467 S    
O45   C135  1.275315 A    
C198  N8    1.436508 S    
C60   C64   1.413347 A    
C158  C164  1.387849 A    
C47   N11   1.458211 S    
C163  H29   1.085062 S    
C224  O128  1.397937 S    
C89   C93   1.415684 A    
N16   O119  1.300231 A    
C92   C96   1.415804 A    
C34   C42   1.536273 S    
O16   C8    1.285821 A    
C181  H37   1.083904 S    
N1    O58   1.300977 A    
C42   C218  1.498666 S    
O106  H61   1.013761 S    
C2    C114  1.448901 S    
C218  O108  1.396304 S    
C90   C110  1.400039 A    
C44   C48   1.538562 S    
C137  C144  1.402672 A    
O11   C7    1.286212 A    
N13   O114  1.300201 A    
O1    Zn1   2.031275 S    
O9    Zn1   1.998907 S    
C135  C173  1.448123 S    
C127  C199  1.441199 S    
C57   C77   1.417225 A    
C100  C104  1.402041 A    
O28   Zn7   1.998318 S    
N12   O104  1.300215 A    
C73   C77   1.424176 A    
C166  C168  1.395436 A    
C177  C183  1.396413 A    
C15   C31   1.540729 S    
C188  H44   1.081843 S    
C178  C184  1.396415 A    
C118  C206  1.488221 S    
N18   O132  1.301426 A    
C138  C214  1.488555 S    
Zn7   O31   2.029847 S    
O31   C128  1.284532 A    
Zn12  O48   2.028218 S    
O25   C123  1.286607 A    
C156  C160  1.393401 A    
C94   C98   1.413550 A    
O42   C132  1.274274 A    
O6    Zn3   2.029609 S    
C176  C179  1.410990 A    
C78   C106  1.422244 A    
C136  C174  1.448204 S    
C160  C162  1.411045 A    
C143  C147  1.416750 A    
C44   C220  1.498789 S    
C216  O87   1.221994 D    
C86   C90   1.401455 A    
O34   Zn10  2.028326 S    
C61   C131  1.452707 S    
C184  C186  1.389185 A    
C146  C148  1.416757 A    
C186  C190  1.407345 A    
C22   C124  1.413748 S    
O25   Zn6   1.998318 S    
C27   C35   1.542364 S    
C13   C201  1.498380 S    
C146  C152  1.410896 A    
O2    C2    1.287271 A    
O43   Zn12  2.032207 S    
C214  O83   1.221989 D    
C37   C45   1.533552 S    
C154  H26   1.084047 S    
C171  H35   1.084763 S    
C87   H15   1.082182 S    
C89   C109  1.399986 A    
O14   Zn3   1.998593 S    
C188  C192  1.407343 A    
C85   H13   1.082187 S    
C31   C43   1.541460 S    
C81   C85   1.389676 A    
C212  O79   1.223152 D    
C24   C56   1.193097 T    
O20   C122  1.285487 A    
O126  H67   1.013771 S    
C23   C125  1.413903 S    
C215  O85   1.221969 D    
C223  O125  1.223167 D    
C6    C18   1.413733 S    
N14   O116  1.300174 A    
C11   H3    1.110202 S    
C140  C145  1.402670 A    
C181  C187  1.389196 A    
C159  C162  1.411021 A    
C198  C200  1.404374 A    
C12   H4    1.110190 S    
C154  C158  1.393410 A    
C204  O55   1.221961 D    
O39   Zn11  2.030733 S    
O122  H65   1.013768 S    
C16   C48   1.535837 S    
C63   C67   1.390050 A    
O12   C8    1.285909 A    
C221  O121  1.223153 D    
O44   C134  1.274485 A    
C74   C78   1.424196 A    
C83   C87   1.389749 A    
C208  O71   1.222936 D    
C150  H22   1.081251 S    
C166  H32   1.085068 S    
C69   C73   1.416516 A    
C28   C32   1.548127 S    
C99   C119  1.406029 A    
C119  C207  1.488228 S    
C189  C193  1.416072 A    
