data_mof_unit_23779.cif
_audit_creation_date              2012-12-10T17:42:42-0500
_audit_creation_method            fapswitch 2.2
_symmetry_space_group_name_H-M    P1
_symmetry_Int_Tables_number       1
_space_group_crystal_system       triclinic
_cell_length_a                    9.953902
_cell_length_b                    10.649058
_cell_length_c                    13.090178
_cell_angle_alpha                 90.791708
_cell_angle_beta                  69.781129
_cell_angle_gamma                 90.216062
_cell_volume                      1301.92746005

loop_
_atom_site_label
_atom_site_type_symbol
_atom_type_description
_atom_site_fract_x
_atom_site_fract_y
_atom_site_fract_z
_atom_type_partial_charge
C1    C     C_R   0.502179 0.739152 0.495518 0.836439
C2    C     C_R   0.367171 0.513675 0.822430 -0.099360
C3    C     C_R   0.437623 0.865414 0.321064 -0.183739
C4    C     C_R   0.419645 0.500689 0.704211 0.929540
C5    C     C_R   0.407825 0.929372 0.239105 -0.158826
C6    C     C_R   0.412545 0.059921 0.236947 -0.114328
C7    C     C_R   0.445512 0.127080 0.317465 -0.127236
C8    C     C_R   0.472879 0.063842 0.402498 0.072846
C9    C     C_R   0.470699 0.931988 0.403660 0.108803
C10   C     C_R   0.508052 0.871232 0.485370 -0.080570
C11   C     C_R   0.557990 0.936876 0.557473 -0.236515
C12   C     C_R   0.440428 0.517730 0.981101 0.015941
C13   C     C_R   0.561274 0.064806 0.555389 -0.200660
C14   C     C_R   0.510120 0.127887 0.483897 -0.126168
C15   C     C_R   0.798494 0.664639 0.641478 -0.115563
C16   C     C_R   0.502659 0.260591 0.494681 0.901133
C17   C     C_R   0.837138 0.742473 0.712944 -0.191347
C18   C     C_R   0.975319 0.739289 0.714588 -0.184916
C19   C     C_R   0.075904 0.658883 0.644195 -0.118339
C20   C     C_R   0.040665 0.578654 0.570897 0.052995
C21   C     C_R   0.896892 0.580133 0.570009 0.157153
C22   C     C_R   0.958523 0.424282 0.432372 -0.243087
C23   C     C_R   0.445786 0.460446 0.881945 -0.042779
C24   C     C_R   0.103660 0.426197 0.429743 0.583498
C25   C     C_R   0.580036 0.499452 0.296036 0.824672
C26   C     C_R   0.737840 0.340603 0.028153 -0.162377
C27   C     C_R   0.629332 0.481918 0.179194 -0.047399
C28   C     C_R   0.260356 0.602611 0.871376 -0.216675
C29   C     C_R   0.240741 0.647358 0.975539 -0.138604
C30   C     C_R   0.332688 0.609321 0.028725 -0.179739
C31   C     C_3   0.211868 0.363201 0.251391 -0.336942
C32   C     C_3   0.387688 0.196994 0.817425 -0.401918
C33   C     C_R   0.541749 0.479682 0.028553 0.063749
C34   C     C_R   0.639439 0.380532 0.980188 0.081860
C35   C     C_R   0.630774 0.316194 0.889432 -0.334388
C36   C     C_R   0.529642 0.351010 0.843934 0.537072
C37   C     C_R   0.545384 0.533751 0.125240 -0.226409
C38   C     C_R   0.731200 0.389890 0.128766 -0.209230
H1    H     H_    0.796361 0.348819 0.170980 0.142375
H2    H     H_    0.005199 0.800083 0.770191 0.137654
H3    H     H_    0.180352 0.662269 0.648939 0.193172
H4    H     H_    0.697742 0.234811 0.856691 0.166941
H5    H     H_    0.812454 0.265045 0.991872 0.133892
H6    H     H_    0.474507 0.608882 0.166434 0.123944
H7    H     H_    0.197979 0.643123 0.826882 0.137095
H8    H     H_    0.314650 0.652328 0.107223 0.118376
H9    H     H_    0.159103 0.717207 0.012852 0.138260
H10   H     H_    0.591535 0.889005 0.617245 0.147314
H11   H     H_    0.317896 0.330790 0.195779 0.191517
H12   H     H_    0.438263 0.764103 0.316990 0.146109
H13   H     H_    0.200641 0.463223 0.231703 0.157085
H14   H     H_    0.129654 0.304120 0.234434 0.156180
H15   H     H_    0.363975 0.138541 0.755092 0.200218
H16   H     H_    0.289921 0.253813 0.859249 0.171891
H17   H     H_    0.409610 0.132525 0.876053 0.169492
H18   H     H_    0.383804 0.877381 0.175864 0.128877
H19   H     H_    0.392937 0.109041 0.171631 0.127074
H20   H     H_    0.454242 0.227965 0.310333 0.172207
H21   H     H_    0.600241 0.114703 0.612052 0.219207
H22   H     H_    0.927148 0.361118 0.379270 0.158926
H23   H     H_    0.690967 0.674571 0.644649 0.187278
H24   H     H_    0.759239 0.805998 0.767153 0.142367
N1    N     N_R   0.856860 0.501200 0.500990 -0.135342
N2    N     N_R   0.142450 0.501280 0.501020 -0.161037
O1    O     O_R   0.385310 0.683220 0.500000 -0.645954
O2    O     O_3   0.507912 0.273230 0.765775 -0.613946
O3    O     O_R   0.614640 0.683250 0.500010 -0.632490
O4    O     O_R   0.328400 0.499950 0.653610 -0.639582
O5    O     O_R   0.557730 0.499970 0.653620 -0.601571
O6    O     O_R   0.385360 0.316750 0.499990 -0.574197
O7    O     O_R   0.614690 0.316780 0.500000 -0.592687
O8    O     O_R   0.442270 0.500030 0.346380 -0.582780
O9    O     O_R   0.671600 0.500050 0.346390 -0.616729
O10   O     O_3   0.206213 0.347766 0.359828 -0.579592
Zn1   Zn    Zn3+2 0.346880 0.499980 0.499990 0.966668
Zn2   Zn    Zn3+2 0.653120 0.500020 0.500010 0.953201

loop_
_geom_bond_atom_site_label_1
_geom_bond_atom_site_label_2
_ccdc_geom_bond_type
C32   H15   S    
C5    H18   S    
C19   C20   A    
C31   H14   S    
C7    C8    A    
O4    Zn1   S    
C12   C23   A    
C29   H9    S    
C28   C29   A    
C18   C19   A    
C22   H22   S    
C38   H1    S    
C36   O2    S    
N1    Zn2   S    
C27   C38   A    
O5    Zn2   S    
C34   C35   A    
C35   H4    S    
C18   H2    S    
C22   N1    A    
C26   C34   A    
C35   C36   A    
C8    C9    A    
C1    O1    A    
C9    C10   A    
C32   H17   S    
C25   O9    A    
C24   N2    A    
C13   C14   A    
C6    H19   S    
C11   H10   S    
C16   O7    A    
C31   H11   S    
O8    Zn1   S    
C32   H16   S    
C4    O5    A    
C3    H12   S    
C26   H5    S    
C33   C34   A    
C28   H7    S    
C16   O6    A    
C4    O4    A    
C26   C38   A    
C31   O10   S    
C33   C37   A    
C20   N2    A    
C2    C4    S    
C29   C30   A    
C3    C9    A    
C17   H24   S    
C17   C18   A    
C15   H23   S    
C25   O8    A    
O9    Zn2   S    
C14   C16   S    
O7    Zn2   S    
C2    C23   A    
C32   O2    S    
C15   C17   A    
C8    C14   A    
C7    H20   S    
C12   C30   A    
C30   H8    S    
C1    C10   S    
C31   H13   S    
C3    C5    A    
C6    C7    A    
C13   H21   S    
C25   C27   S    
O1    Zn1   S    
C37   H6    S    
C11   C13   A    
C24   O10   S    
C5    C6    A    
C27   C37   A    
C1    O3    A    
N2    Zn1   S    
C22   C24   A    
C21   N1    A    
C10   C11   A    
C15   C21   A    
C20   C21   A    
C23   C36   A    
O6    Zn1   S    
C2    C28   A    
O3    Zn2   S    
C12   C33   A    
C19   H3    S    
