data_mof_unit_5607.cif
_audit_creation_date              2013-03-05T16:42:03-0500
_audit_creation_method            fapswitch 2.2
_symmetry_space_group_name_H-M    P1
_symmetry_Int_Tables_number       1
_space_group_crystal_system       triclinic
_cell_length_a                    9.867551
_cell_length_b                    10.676926
_cell_length_c                    13.174635
_cell_angle_alpha                 90.683612
_cell_angle_beta                  69.926376
_cell_angle_gamma                 89.792613
_cell_volume                      1303.55972095

loop_
_atom_site_label
_atom_site_type_symbol
_atom_site_description
_atom_site_fract_x
_atom_site_fract_y
_atom_site_fract_z
_atom_type_partial_charge
O1    O     O_R   0.385310 0.683210 0.499990 -0.630458
O2    O     O_R   0.614650 0.683240 0.500000 -0.615258
C1    C     C_R   0.499351 0.739796 0.501041 0.923968
O3    O     O_R   0.328390 0.499940 0.653610 -0.600925
O4    O     O_R   0.557730 0.499980 0.653620 -0.620277
C2    C     C_R   0.419952 0.493548 0.703843 0.879101
Zn1   Zn    Zn3+2 0.346870 0.499980 0.499990 0.983145
Zn2   Zn    Zn3+2 0.653130 0.500020 0.500010 1.026474
O5    O     O_R   0.385350 0.316760 0.500000 -0.608209
O6    O     O_R   0.614690 0.316790 0.500010 -0.591398
O7    O     O_R   0.442270 0.500020 0.346380 -0.634599
O8    O     O_R   0.671610 0.500060 0.346390 -0.547454
C3    C     C_R   0.502063 0.260311 0.495542 0.920262
C4    C     C_R   0.580964 0.501355 0.295340 0.919788
C5    C     C_R   0.785256 0.391747 0.011355 -0.208678
H1    H     H_    0.886017 0.345539 0.966602 0.226011
C6    C     C_R   0.632696 0.491237 0.177133 -0.164375
C7    C     C_R   0.235002 0.543930 0.879306 -0.109328
C8    C     C_R   0.200030 0.569782 0.988498 -0.020502
C9    C     C_R   0.298058 0.542692 0.040156 -0.111634
C10   C     C_R   0.433459 0.485149 0.982841 0.092531
C11   C     C_R   0.459792 0.445220 0.875570 0.014816
C12   C     C_R   0.544757 0.468471 0.026961 0.058973
C13   C     C_R   0.674806 0.403841 0.967037 -0.030197
C14   C     C_R   0.689922 0.350733 0.865380 0.316679
C15   C     C_R   0.580038 0.367708 0.823182 -0.242262
C16   C     C_R   0.530517 0.516064 0.129027 -0.264435
C17   C     C_R   0.767107 0.437598 0.115102 0.339290
C18   C     C_R   0.367511 0.487343 0.821414 -0.095344
H2    H     H_    0.437008 0.569686 0.175830 0.167941
H3    H     H_    0.161977 0.574708 0.839004 0.176921
H4    H     H_    0.263371 0.567386 0.124728 0.148568
H5    H     H_    0.099565 0.617381 0.031786 0.192553
H6    H     H_    0.591985 0.322410 0.746610 0.195706
C19   C     C_R   0.374342 0.938642 0.540729 0.000772
C20   C     C_R   0.501624 0.871389 0.493711 -0.099385
C21   C     C_R   0.627697 0.931046 0.430073 -0.251376
H7    H     H_    0.723423 0.876802 0.386147 0.197195
C22   C     C_R   0.629821 0.060979 0.423272 0.308402
C23   C     C_R   0.504220 0.128324 0.484128 -0.176372
C24   C     C_R   0.375774 0.066193 0.535352 0.036048
C25   C     C_3   0.272056 0.084041 0.647944 -0.435157
C26   C     C_3   0.271935 0.942289 0.655555 0.128102
H8    H     H_    0.320214 0.134094 0.701772 0.219987
H9    H     H_    0.167099 0.123228 0.648846 0.235268
H10   H     H_    0.165218 0.900580 0.666027 0.125278
C27   C     C_R   0.890510 0.554887 0.583221 0.226093
N1    N     N_R   0.856940 0.500860 0.500710 -0.128163
C28   C     C_R   0.962952 0.433901 0.424371 -0.020170
H11   H     H_    0.937225 0.381942 0.362531 0.228994
C29   C     C_R   0.107037 0.434236 0.424103 -0.102229
N2    N     N_R   0.142580 0.500820 0.500710 -0.118838
C30   C     C_R   0.032911 0.554816 0.583239 0.286153
C31   C     C_3   0.022085 0.688936 0.617593 -0.538182
C32   C     C_3   0.867982 0.688908 0.617934 -0.445313
H12   H     H_    0.029134 0.700786 0.699575 0.221509
H13   H     H_    0.094873 0.749624 0.554304 0.221304
H14   H     H_    0.851637 0.750143 0.555347 0.234869
N3    N     N_R   0.885761 0.429963 0.154618 0.212358
O9    O     O_R   0.920327 0.527727 0.200086 -0.443190
O10   O     O_R   0.977189 0.337001 0.124767 -0.346780
N4    N     N_R   0.757365 0.122076 0.354904 0.218816
O11   O     O_R   0.884219 0.073612 0.339427 -0.361552
O12   O     O_R   0.746007 0.214653 0.295045 -0.383080
N5    N     N_R   0.336427 0.897360 0.733475 0.230690
O13   O     O_R   0.263453 0.822943 0.809904 -0.406427
O14   O     O_R   0.463251 0.934860 0.730344 -0.361683
H15   H     H_    0.189982 0.383106 0.361550 0.173719
H16   H     H_    0.786110 0.700475 0.700130 0.230685
N6    N     N_R   0.817167 0.282372 0.802076 0.197943
O15   O     O_R   0.804538 0.177342 0.755116 -0.360650
O16   O     O_R   0.942214 0.336871 0.772478 -0.443030

loop_
_geom_bond_atom_site_label_1
_geom_bond_atom_site_label_2
_geom_bond_distance
_ccdc_geom_bond_type
O4    Zn2   1.916772 S    
N4    O12   1.299988 A    
C12   C13   1.425251 A    
Zn2   N1    2.014342 S    
C21   H7    1.084144 S    
C7    H3    1.083626 S    
C11   C18   1.411084 A    
C12   C16   1.392699 A    
C20   C21   1.399555 A    
C19   C26   1.503366 S    
C24   C25   1.494597 S    
C19   C20   1.387639 A    
C27   C30   1.405225 A    
Zn2   O8    1.968769 S    
C31   H13   1.111804 S    
C26   N5    1.465242 S    
C2    C18   1.457367 S    
N4    O11   1.301447 A    
O2    C1    1.281927 A    
C29   N2    1.369200 A    
C21   C22   1.391011 A    
C7    C18   1.398253 A    
C5    C13   1.408197 A    
C30   C31   1.488990 S    
C13   C14   1.407695 A    
C16   H2    1.075434 S    
Zn1   O7    1.916774 S    
C4    C6    1.465405 S    
C5    C17   1.398326 A    
C32   H16   1.111816 S    
C25   H8    1.112859 S    
C1    C20   1.409206 S    
O3    Zn1   1.968768 S    
O1    Zn1   1.994113 S    
O6    C3    1.284959 A    
Zn2   O6    1.994113 S    
N1    C28   1.368252 A    
C26   H10   1.109669 S    
O8    C4    1.290605 A    
Zn1   N2    2.012593 S    
C7    C8    1.383396 A    
C29   H15   1.081702 S    
C10   C12   1.419489 A    
C8    H5    1.080564 S    
O4    C2    1.294257 A    
C19   C24   1.364409 A    
O7    C4    1.301537 A    
C31   H12   1.111674 S    
N3    O10   1.301679 A    
O3    C2    1.292296 A    
N5    O14   1.302573 A    
C25   C26   1.517961 S    
C11   C15   1.409327 A    
C5    H1    1.080141 S    
C6    C16   1.388980 A    
C27   N1    1.362999 A    
Zn1   O5    1.991395 S    
N3    O9    1.301012 A    
N6    O15   1.301236 A    
O5    C3    1.280918 A    
C9    C10   1.422385 A    
C27   C32   1.489434 S    
N5    O13   1.299698 A    
C9    H4    1.076414 S    
C17   N3    1.437797 S    
C22   C23   1.411929 A    
C28   H11   1.080827 S    
C22   N4    1.436161 S    
C32   H14   1.112104 S    
C31   C32   1.519073 S    
C23   C24   1.389799 A    
C3    C23   1.414740 S    
N6    O16   1.301336 A    
C14   N6    1.436950 S    
C28   C29   1.420571 A    
C14   C15   1.390103 A    
C10   C11   1.406887 A    
C6    C17   1.412170 A    
C15   H6    1.082508 S    
O2    Zn2   1.991396 S    
C8    C9    1.391792 A    
N2    C30   1.363259 A    
O1    C1    1.283331 A    
C25   H9    1.111797 S    
