data_mof_unit_19368.cif
_audit_creation_date              2012-12-10T18:12:44-0500
_audit_creation_method            fapswitch 2.2
_symmetry_space_group_name_H-M    P1
_symmetry_Int_Tables_number       1
_space_group_crystal_system       triclinic
_cell_length_a                    12.675314
_cell_length_b                    13.07338
_cell_length_c                    15.713331
_cell_angle_alpha                 92.340352
_cell_angle_beta                  103.531094
_cell_angle_gamma                 81.25841
_cell_volume                      2502.1239421

loop_
_atom_site_label
_atom_site_type_symbol
_atom_type_description
_atom_site_fract_x
_atom_site_fract_y
_atom_site_fract_z
_atom_type_partial_charge
C1    C     C_R   0.437987 0.691748 0.483302 0.917103
C2    C     C_R   0.599435 0.197386 0.508793 -0.180685
C3    C     C_R   0.286675 0.847826 0.455742 0.103766
C4    C     C_R   0.501953 0.499909 0.662040 0.884824
C5    C     C_R   0.259879 0.956927 0.455855 0.160357
C6    C     C_R   0.344452 0.018094 0.471229 0.460266
C7    C     C_R   0.451878 0.974217 0.463677 -0.137078
C8    C     C_R   0.476045 0.866968 0.451614 -0.219565
C9    C     C_R   0.539496 0.032457 0.475236 0.022559
C10   C     C_R   0.649164 0.983459 0.497258 -0.086056
C11   C     C_R   0.670792 0.879581 0.472309 0.355572
C12   C     C_3   0.504362 0.481594 0.917239 0.026653
C13   C     C_R   0.581178 0.827937 0.435453 0.491096
C14   C     C_R   0.521146 0.137932 0.466049 -0.229039
C15   C     C_R   0.705608 0.149784 0.550986 0.486734
C16   C     C_R   0.561724 0.308305 0.510049 0.893464
C17   C     C_R   0.398087 0.802556 0.460309 -0.164362
C18   C     C_R   0.078615 0.366747 0.360167 0.035601
C19   C     C_R   0.810940 0.617841 0.615233 0.219803
C20   C     C_R   0.923234 0.621044 0.649438 0.448222
C21   C     C_R   0.999075 0.554239 0.615499 0.070496
C22   C     C_R   0.965463 0.517142 0.529693 -0.113152
C23   C     C_3   0.516539 0.377469 0.022975 0.369589
C24   C     C_R   0.852308 0.508279 0.498007 0.054784
C25   C     C_R   0.040489 0.481589 0.477242 -0.045093
C26   C     C_R   0.002689 0.433732 0.396261 0.016948
C27   C     C_R   0.889395 0.444487 0.360682 0.160239
C28   C     C_R   0.498688 0.497946 0.337968 0.873916
C29   C     C_R   0.821819 0.451190 0.419249 0.240649
C30   C     C_R   0.151026 0.496003 0.499724 -0.172776
C31   C     C_R   0.189632 0.378826 0.387240 0.615521
C32   C     C_3   0.409096 0.524702 0.011664 0.543150
C33   C     C_3   0.490598 0.577580 0.976163 -0.301688
C34   C     C_3   0.503408 0.472271 0.082753 0.026957
C35   C     C_1   0.506675 0.494981 0.751841 -0.178643
C36   C     C_1   0.498538 0.486704 0.248694 -0.226761
C37   C     C_3   0.419908 0.429653 0.951330 -0.422266
C38   C     C_3   0.198049 0.781149 0.454777 -0.850689
C39   C     C_3   0.340531 0.123287 0.589988 0.071789
C40   C     C_3   0.299854 0.232447 0.618733 -0.287860
C41   C     C_3   0.329818 0.244500 0.718143 -1.012938
C42   C     C_3   0.142593 0.009882 0.445632 -0.924533
C43   C     C_3   0.588330 0.765694 0.298120 0.059595
C44   C     C_3   0.468519 0.791662 0.247660 -0.364303
C45   C     C_3   0.599589 0.428493 0.987990 0.481345
C46   C     C_3   0.461708 0.817553 0.152697 -0.958095
C47   C     C_3   0.267815 0.359817 0.267297 0.140877
C48   C     C_3   0.205969 0.302787 0.188688 -0.452541
C49   C     C_3   0.235372 0.329933 0.104269 -0.927163
C50   C     C_3   0.839556 0.435142 0.264180 -0.918363
C51   C     C_3   0.046327 0.268206 0.314261 -0.902551
C52   C     C_3   0.734499 0.679516 0.665477 -0.744001
C53   C     C_3   0.241663 0.629472 0.961353 0.093162
C54   C     C_3   0.236943 0.744462 0.984753 -0.350462
C55   C     C_3   0.150750 0.811877 0.918060 -0.965085
C56   C     C_3   0.586792 0.523822 0.047833 -0.351814
C57   C     C_3   0.103717 0.507443 0.678259 -0.861800
C58   C     C_3   0.972433 0.778099 0.697686 0.076638
C59   C     C_3   0.079990 0.775593 0.667920 -0.365519
C60   C     C_3   0.105357 0.884165 0.659331 -1.012787
C61   C     C_3   0.781255 0.349130 0.422140 -0.799595
C62   C     C_3   0.756983 0.307524 0.024817 0.100964
C63   C     C_3   0.878474 0.292870 0.022926 -0.324981
C64   C     C_3   0.938423 0.189742 0.063411 -1.000228
C65   C     C_3   0.514837 0.202211 0.988542 0.071916
C66   C     C_3   0.405554 0.162383 0.981513 -0.331376
C67   C     C_1   0.506731 0.488812 0.826962 0.027024
C68   C     C_3   0.397415 0.065465 0.924143 -0.979200
C69   C     C_3   0.886342 0.181558 0.615000 0.067200
C70   C     C_3   0.942885 0.133729 0.704452 -0.321951
C71   C     C_3   0.065325 0.141783 0.727180 -0.994288
C72   C     C_3   0.831512 0.853271 0.424064 0.071271
C73   C     C_3   0.884144 0.753822 0.386313 -0.312942
C74   C     C_3   0.921185 0.774554 0.303794 -0.992558
C75   C     C_1   0.500399 0.477296 0.173573 0.042054
C76   C     C_R   0.731844 0.041225 0.540128 -0.293762
H1    H     H_    0.479102 0.658917 0.954117 0.152975
H2    H     H_    0.430012 0.103984 0.619406 0.153646
H3    H     H_    0.295822 0.068070 0.614818 0.134366
H4    H     H_    0.337111 0.289615 0.589666 0.274121
H5    H     H_    0.209280 0.249440 0.594700 0.211474
H6    H     H_    0.288990 0.191697 0.748847 0.278116
H7    H     H_    0.302430 0.325265 0.736718 0.272204
H8    H     H_    0.420072 0.227077 0.743467 0.268850
H9    H     H_    0.090806 0.984695 0.383485 0.235614
H10   H     H_    0.109851 0.991488 0.501687 0.231993
H11   H     H_    0.134822 0.095303 0.442727 0.278380
H12   H     H_    0.443352 0.174257 0.427308 0.253030
H13   H     H_    0.627618 0.697666 0.266267 0.171915
H14   H     H_    0.633672 0.830695 0.292848 0.115432
H15   H     H_    0.424194 0.725112 0.250076 0.232691
H16   H     H_    0.427258 0.860060 0.277457 0.220532
H17   H     H_    0.513566 0.877754 0.148909 0.260811
H18   H     H_    0.375739 0.848823 0.121263 0.263832
H19   H     H_    0.488869 0.747070 0.117034 0.274873
H20   H     H_    0.354751 0.347290 0.262594 0.192032
H21   H     H_    0.237494 0.444617 0.260907 0.130643
H22   H     H_    0.226132 0.217793 0.198962 0.244920
H23   H     H_    0.181306 0.549716 0.550040 0.179039
H24   H     H_    0.116764 0.327140 0.179877 0.233994
H25   H     H_    0.211108 0.414033 0.090834 0.293605
H26   H     H_    0.191167 0.286255 0.048578 0.256542
H27   H     H_    0.324905 0.309665 0.109536 0.290088
H28   H     H_    0.767683 0.496538 0.245149 0.238064
H29   H     H_    0.898597 0.446777 0.224504 0.239090
H30   H     H_    0.811402 0.358797 0.248756 0.246956
H31   H     H_    0.997780 0.231648 0.351498 0.235687
H32   H     H_    0.996483 0.283482 0.247296 0.241029
H33   H     H_    0.118604 0.209998 0.310793 0.275884
H34   H     H_    0.654838 0.560427 0.089149 0.169409
H35   H     H_    0.742527 0.762747 0.665076 0.201764
H36   H     H_    0.647891 0.675799 0.641073 0.262010
H37   H     H_    0.756400 0.652704 0.734411 0.227862
H38   H     H_    0.158143 0.607970 0.951655 0.176795
H39   H     H_    0.266361 0.614366 0.897738 0.126619
H40   H     H_    0.217582 0.757627 0.050138 0.241864
H41   H     H_    0.318115 0.767901 0.987295 0.215038
H42   H     H_    0.173918 0.806113 0.854203 0.272332
H43   H     H_    0.146397 0.893929 0.939993 0.260119
H44   H     H_    0.068852 0.787622 0.910913 0.279939
H45   H     H_    0.351228 0.394786 0.909135 0.160415
H46   H     H_    0.137820 0.431893 0.653646 0.239310
H47   H     H_    0.166336 0.560029 0.690427 0.226384
H48   H     H_    0.086243 0.491204 0.742058 0.251510
H49   H     H_    0.973661 0.830379 0.755253 0.169349
H50   H     H_    0.902140 0.812929 0.645494 0.162767
H51   H     H_    0.149054 0.732613 0.715997 0.228131
H52   H     H_    0.073462 0.736326 0.603309 0.213236
H53   H     H_    0.036402 0.929903 0.612889 0.265250
H54   H     H_    0.181279 0.879995 0.634868 0.275291
H55   H     H_    0.118832 0.922902 0.724263 0.281996
H56   H     H_    0.812950 0.001082 0.567971 0.151356
H57   H     H_    0.694608 0.351778 0.387035 0.245462
H58   H     H_    0.826576 0.284936 0.390355 0.189256
H59   H     H_    0.799103 0.323640 0.490227 0.254158
H60   H     H_    0.724436 0.234431 0.002878 0.157102
H61   H     H_    0.749901 0.325115 0.093433 0.143177
H62   H     H_    0.886912 0.294577 0.954147 0.245494
H63   H     H_    0.917205 0.357350 0.059503 0.212882
H64   H     H_    0.924301 0.181440 0.129685 0.266340
H65   H     H_    0.027813 0.185380 0.068425 0.273952
H66   H     H_    0.908669 0.124599 0.021670 0.268992
H67   H     H_    0.115129 0.824700 0.449374 0.241805
H68   H     H_    0.582020 0.136122 0.006263 0.157141
H69   H     H_    0.519373 0.230292 0.923506 0.133035
H70   H     H_    0.397733 0.143133 0.047807 0.239852
H71   H     H_    0.336744 0.223522 0.953291 0.216501
H72   H     H_    0.411684 0.079796 0.858915 0.266708
H73   H     H_    0.314445 0.043004 0.915277 0.266698
H74   H     H_    0.459193 0.000347 0.955722 0.266197
H75   H     H_    0.919721 0.254447 0.610421 0.177159
H76   H     H_    0.907392 0.131667 0.560414 0.098839
H77   H     H_    0.905571 0.175168 0.755919 0.246923
H78   H     H_    0.192250 0.727061 0.398076 0.256174
H79   H     H_    0.930964 0.051347 0.704522 0.199649
H80   H     H_    0.104594 0.106477 0.674649 0.274373
H81   H     H_    0.105545 0.101248 0.789739 0.265645
H82   H     H_    0.077739 0.224270 0.735155 0.274898
H83   H     H_    0.897626 0.897761 0.457633 0.137739
H84   H     H_    0.778170 0.902944 0.369872 0.120979
H85   H     H_    0.955793 0.717538 0.436451 0.212791
H86   H     H_    0.824424 0.697938 0.369866 0.246447
H87   H     H_    0.848823 0.801250 0.250372 0.262422
H88   H     H_    0.965918 0.702059 0.282330 0.271872
H89   H     H_    0.216467 0.738029 0.517113 0.240991
H90   H     H_    0.976321 0.834518 0.316321 0.267453
N1    N     N_R   0.222180 0.444680 0.455580 -0.166832
N2    N     N_R   0.776980 0.554790 0.543960 -0.115356
O1    O     O_R   0.366730 0.627160 0.478790 -0.623823
O2    O     O_3   0.596632 0.738976 0.386070 -0.596749
O3    O     O_3   0.266612 0.318548 0.349418 -0.631918
O4    O     O_3   0.310210 0.571119 0.032395 -0.653311
O5    O     O_3   0.959225 0.678957 0.723485 -0.647456
O6    O     O_3   0.699537 0.386767 0.966277 -0.643034
O7    O     O_3   0.530938 0.276462 0.056688 -0.666148
O8    O     O_3   0.772502 0.209310 0.609357 -0.642348
O9    O     O_3   0.776376 0.826052 0.486521 -0.654820
O10   O     O_R   0.544830 0.662520 0.507160 -0.575347
O11   O     O_R   0.410960 0.482330 0.609040 -0.625863
O12   O     O_R   0.589060 0.517690 0.637410 -0.610638
O13   O     O_R   0.455170 0.337480 0.492840 -0.589131
O14   O     O_R   0.633270 0.372840 0.521210 -0.587867
O15   O     O_R   0.410940 0.482310 0.362590 -0.631930
O16   O     O_R   0.589040 0.517670 0.390960 -0.568157
O17   O     O_3   0.321338 0.119866 0.497627 -0.638695
Zn1   Zn    Zn3+2 0.381080 0.476390 0.481050 0.937433
Zn2   Zn    Zn3+2 0.618920 0.523610 0.518950 0.988155

loop_
_geom_bond_atom_site_label_1
_geom_bond_atom_site_label_2
_ccdc_geom_bond_type
C38   H89   S    
C66   C68   S    
C5    C42   S    
C34   C56   S    
C8    C13   A    
C23   C45   S    
C27   C29   A    
C70   H77   S    
C76   H56   S    
C38   H67   S    
C19   C20   A    
C18   C26   A    
C74   H90   S    
C43   C44   S    
C61   H57   S    
C7    C8    A    
O11   Zn1   S    
C55   H43   S    
C53   C54   S    
C50   H28   S    
C6    O17   S    
C26   C27   A    
C62   C63   S    
C72   H83   S    
C31   O3    S    
C15   O8    S    
C24   N2    A    
C28   O15   A    
O1    Zn1   S    
C49   H25   S    
C74   H87   S    
C16   O14   A    
C23   O7    S    
C64   H65   S    
C52   H36   S    
C59   H51   S    
C62   O6    S    
C73   C74   S    
C62   H60   S    
C12   C37   S    
C24   C29   A    
C73   H85   S    
C68   H73   S    
C53   O4    S    
C57   H46   S    
C10   C76   A    
C19   C52   S    
C46   H19   S    
C20   O5    S    
C3    C38   S    
C51   H32   S    
C22   C25   A    
C54   H40   S    
C61   H58   S    
C50   H29   S    
C47   H20   S    
C40   H4    S    
C70   C71   S    
C11   O9    S    
C69   O8    S    
C2    C16   S    
C9    C10   A    
C68   H72   S    
C27   C50   S    
C34   C75   S    
C33   C56   S    
C15   C76   A    
C32   O4    S    
C4    C35   S    
C59   C60   S    
C51   H33   S    
N2    Zn2   S    
C21   C22   A    
C65   O7    S    
C72   O9    S    
C4    O12   A    
C48   H24   S    
C60   H55   S    
C56   H34   S    
C43   O2    S    
C44   C46   S    
C18   C51   S    
C55   H44   S    
C71   H81   S    
C12   C67   S    
C29   C61   S    
C43   H14   S    
C70   H79   S    
C69   H75   S    
C39   H2    S    
C45   C56   S    
O15   Zn1   S    
C60   H54   S    
C39   C40   S    
C65   H68   S    
C16   O13   A    
C12   C45   S    
C52   H35   S    
C25   C26   A    
C52   H37   S    
C41   H8    S    
C30   H23   S    
C32   C34   S    
C9    C14   A    
C21   C57   S    
C73   H86   S    
C36   C75   T    
C57   H47   S    
C1    O10   A    
C47   C48   S    
C46   H18   S    
C35   C67   T    
C23   C34   S    
C42   H9    S    
C43   H13   S    
C32   C37   S    
C2    C15   A    
C66   H71   S    
C44   H15   S    
C42   H10   S    
O10   Zn2   S    
O12   Zn2   S    
C48   C49   S    
C31   N1    A    
C58   H50   S    
C63   H62   S    
C37   H45   S    
C58   C59   S    
C58   O5    S    
C19   N2    A    
C38   H78   S    
C4    O11   A    
C65   H69   S    
C49   H26   S    
C53   H38   S    
C61   H59   S    
C64   H64   S    
C25   C30   A    
C7    C9    A    
C71   H82   S    
C54   C55   S    
C13   O2    S    
C49   H27   S    
N1    Zn1   S    
C41   H6    S    
C69   H76   S    
C63   H63   S    
C40   H5    S    
C72   C73   S    
C3    C5    A    
C44   H16   S    
C60   H53   S    
C30   N1    A    
C47   O3    S    
O13   Zn1   S    
C6    C7    A    
C42   H11   S    
C48   H22   S    
C1    C17   S    
C8    C17   A    
C72   H84   S    
O16   Zn2   S    
C47   H21   S    
C32   C33   S    
C59   H52   S    
C14   H12   S    
C23   C37   S    
C45   O6    S    
C57   H48   S    
C74   H88   S    
C11   C13   A    
C33   H1    S    
C5    C6    A    
C46   H17   S    
C64   H66   S    
C71   H80   S    
C1    O1    A    
C3    C17   A    
C22   C24   A    
O14   Zn2   S    
C62   H61   S    
C28   O16   A    
C69   C70   S    
C2    C14   A    
C66   H70   S    
C68   H74   S    
C10   C11   A    
C63   C64   S    
C39   O17   S    
C20   C21   A    
C28   C36   S    
C58   H49   S    
C51   H31   S    
C65   C66   S    
C54   H41   S    
C50   H30   S    
C40   C41   S    
C18   C31   A    
C12   C33   S    
C53   H39   S    
C39   H3    S    
C55   H42   S    
C41   H7    S    
