data_mof_unit_36913.cif
_audit_creation_date              2012-12-10T20:52:09-0500
_audit_creation_method            fapswitch 2.2
_symmetry_space_group_name_H-M    P1
_symmetry_Int_Tables_number       1
_space_group_crystal_system       triclinic
_cell_length_a                    10.797009
_cell_length_b                    8.906418
_cell_length_c                    8.206298
_cell_angle_alpha                 89.981197
_cell_angle_beta                  91.119793
_cell_angle_gamma                 89.820674
_cell_volume                      788.984936437

loop_
_atom_site_label
_atom_site_type_symbol
_atom_type_description
_atom_site_fract_x
_atom_site_fract_y
_atom_site_fract_z
_atom_type_partial_charge
C1    C     C_R   0.499877 0.218467 0.499982 0.942958
C2    C     C_R   0.499824 0.781555 0.499998 0.940898
C3    C     C_R   0.875035 0.482107 0.503697 -0.087957
C4    C     C_R   0.128832 0.491573 0.495527 -0.084982
C5    C     C_R   0.943616 0.518940 0.644302 0.054844
C6    C     C_R   0.063622 0.418698 0.368334 -0.001389
C7    C     C_1   0.499716 0.065375 0.499982 -0.189048
C8    C     C_1   0.499675 0.934690 0.499957 -0.208347
C9    C     C_R   0.260254 0.498297 0.498333 0.881447
C10   C     C_R   0.740920 0.492341 0.501292 0.866977
C11   C     C_R   0.192245 0.289791 0.967264 -0.139022
C12   C     C_R   0.806883 0.263534 0.946111 -0.164030
C13   C     C_R   0.132981 0.375460 0.085250 -0.136970
C14   C     C_R   0.882975 0.315586 0.824625 -0.168796
C15   C     C_R   0.125415 0.323087 0.246018 0.109037
C16   C     C_R   0.898356 0.470859 0.801394 0.109597
C17   C     C_R   0.178150 0.181326 0.287856 0.128705
C18   C     C_R   0.847775 0.574597 0.909271 0.122215
C19   C     C_R   0.238950 0.098255 0.167925 -0.127318
C20   C     C_R   0.771117 0.520973 0.030746 -0.118560
C21   C     C_R   0.245649 0.151964 0.008606 -0.151700
C22   C     C_R   0.746968 0.366197 0.044541 -0.136519
C23   C     C_R   0.935835 0.420780 0.371084 -0.272906
C24   C     C_R   0.068416 0.541214 0.633749 -0.292691
H1    H     H_    0.292082 0.086419 0.916875 0.149044
H2    H     H_    0.685076 0.323679 0.135265 0.177443
H3    H     H_    0.197050 0.330014 0.843469 0.161220
H4    H     H_    0.790935 0.144347 0.960258 0.140189
H5    H     H_    0.093876 0.483508 0.051911 0.128655
H6    H     H_    0.923086 0.235697 0.740981 0.130748
H7    H     H_    0.280571 0.990780 0.198342 0.143381
H8    H     H_    0.726052 0.601248 0.108096 0.167078
H9    H     H_    0.885236 0.359841 0.280098 0.170603
H10   H     H_    0.119586 0.579345 0.740985 0.158800
N1    N     N_1   0.500020 0.500030 0.073640 -0.064348
N2    N     N_1   0.499980 0.499970 0.926360 -0.036832
O1    O     O_R   0.499990 0.285340 0.636850 -0.615897
O2    O     O_R   0.500010 0.714660 0.363150 -0.624709
O3    O     O_R   0.500010 0.285350 0.363100 -0.625600
O4    O     O_R   0.499990 0.714650 0.636900 -0.610919
O5    O     O_R   0.316750 0.500000 0.636870 -0.641080
O6    O     O_R   0.683250 0.500000 0.363130 -0.662458
O7    O     O_R   0.316770 0.500020 0.363120 -0.608710
O8    O     O_R   0.683230 0.499980 0.636880 -0.593674
Zn1   Zn    Zn3+2 0.499990 0.499990 0.682780 0.982413
Zn2   Zn    Zn3+2 0.500010 0.500010 0.317220 0.953029
N3    N     N_3   0.172293 0.118498 0.449148 -0.485054
H11   H     H_    0.122481 0.186770 0.527760 0.175697
H12   H     H_    0.122978 0.017890 0.440288 0.177618
N4    N     N_3   0.865436 0.732888 0.885240 -0.462237
H13   H     H_    0.959089 0.755557 0.908322 0.168529
H14   H     H_    0.815689 0.794489 0.970609 0.170634

loop_
_geom_bond_atom_site_label_1
_geom_bond_atom_site_label_2
_ccdc_geom_bond_type
N4    H14   S    
C2    O4    A    
C10   O6    A    
C2    O2    A    
C9    O5    A    
N1    N2    T    
C10   O8    A    
C11   H3    S    
C3    C5    A    
C19   H7    S    
N4    H13   S    
C6    C15   S    
C22   H2    S    
N2    Zn1   S    
N3    H12   S    
C3    C10   S    
C11   C13   A    
C5    C24   A    
C14   H6    S    
O3    Zn2   S    
C6    C23   A    
C13   H5    S    
C19   C21   A    
C12   C14   A    
C18   C20   A    
C13   C15   A    
C20   H8    S    
O4    Zn1   S    
C4    C24   A    
O7    Zn2   S    
C14   C16   A    
O2    Zn2   S    
C9    O7    A    
C1    O3    A    
O1    Zn1   S    
N3    H11   S    
C12   C22   A    
C7    C8    T    
O8    Zn1   S    
C18   N4    S    
C4    C6    A    
O6    Zn2   S    
C15   C17   A    
C21   H1    S    
C17   C19   A    
C5    C16   S    
O5    Zn1   S    
C12   H4    S    
C4    C9    S    
C1    C7    S    
N1    Zn2   S    
C3    C23   A    
C11   C21   A    
C16   C18   A    
C2    C8    S    
C17   N3    S    
C20   C22   A    
C1    O1    A    
C23   H9    S    
C24   H10   S    
