data_mof_unit_58114.cif
_audit_creation_date              2012-12-10T16:52:42-0500
_audit_creation_method            fapswitch 2.2
_symmetry_space_group_name_H-M    P1
_symmetry_Int_Tables_number       1
_space_group_crystal_system       triclinic
_cell_length_a                    12.948246
_cell_length_b                    10.904729
_cell_length_c                    9.87337
_cell_angle_alpha                 92.38153
_cell_angle_beta                  95.426448
_cell_angle_gamma                 92.550022
_cell_volume                      1385.00084445

loop_
_atom_site_label
_atom_site_type_symbol
_atom_type_description
_atom_site_fract_x
_atom_site_fract_y
_atom_site_fract_z
_atom_type_partial_charge
C1    C     C_R   0.499224 0.266103 0.497049 0.886207
C2    C     C_R   0.021617 0.454802 0.530930 -0.107705
C3    C     C_R   0.980167 0.562651 0.473764 -0.014064
C4    C     C_R   0.874093 0.585512 0.486640 0.078636
C5    C     C_R   0.852833 0.389447 0.596449 0.423773
C6    C     C_R   0.957926 0.371357 0.593091 -0.239222
C7    C     C_2   0.532049 0.931913 0.404984 -0.402480
C8    C     C_2   0.516432 0.869012 0.516166 0.301323
C9    C     C_2   0.550009 0.067043 0.411698 0.575814
C10   C     C_2   0.490846 0.133884 0.488281 -0.322452
C11   C     C_2   0.443899 0.424252 0.913629 0.132728
C12   C     C_R   0.301721 0.501357 0.475172 0.848997
C13   C     C_2   0.433972 0.436451 0.064938 0.122737
C14   C     C_R   0.502874 0.734824 0.503594 0.707237
C15   C     C_R   0.698404 0.499704 0.525075 0.851567
C16   C     C_R   0.810615 0.493416 0.538606 -0.142289
C17   C     C_R   0.190563 0.513356 0.463267 -0.197190
C18   C     C_R   0.046598 0.642807 0.406525 0.534287
C19   C     C_R   0.150244 0.614261 0.399152 -0.379997
C20   C     C_R   0.126754 0.430896 0.525659 0.468046
Cu1   Cu    Cu3+1 0.500020 0.500020 0.638640 0.990039
Cu2   Cu    Cu3+1 0.499980 0.499980 0.361360 0.985704
H1    H     H_    0.432351 0.091497 0.544998 0.117252
H2    H     H_    0.402526 0.346307 0.857973 0.067485
H3    H     H_    0.367010 0.389870 0.101599 0.046773
H4    H     H_    0.988340 0.288488 0.634818 0.196372
H5    H     H_    0.200982 0.673436 0.346453 0.176068
H6    H     H_    0.532264 0.884638 0.306059 0.134124
N1    N     N_2   0.498860 0.498660 0.846770 0.020710
N2    N     N_2   0.498840 0.498630 0.152900 0.028177
O1    O     O_R   0.500020 0.321960 0.617050 -0.582721
O2    O     O_R   0.499980 0.321920 0.382890 -0.546094
O3    O     O_R   0.349010 0.500000 0.598060 -0.551824
O4    O     O_R   0.348980 0.499950 0.363910 -0.609757
O5    O     O_R   0.500020 0.678080 0.617110 -0.571000
O6    O     O_R   0.499980 0.678040 0.382950 -0.633908
O7    O     O_R   0.651020 0.500050 0.636090 -0.606295
O8    O     O_R   0.650990 0.500000 0.401940 -0.555595
C21   C     C_3   0.829675 0.709098 0.456075 -0.790669
H7    H     H_    0.880372 0.783826 0.510215 0.244729
H8    H     H_    0.822237 0.722118 0.344945 0.253749
H9    H     H_    0.752131 0.720203 0.492668 0.172036
O9    O     O_3   0.519511 0.613267 0.902335 -0.494175
C22   C     C_3   0.621436 0.651897 0.874008 -0.020436
H10   H     H_    0.631052 0.675675 0.770181 0.177188
H11   H     H_    0.679287 0.582939 0.903439 0.141233
H12   H     H_    0.643485 0.740853 0.929755 0.075706
O10   O     O_3   0.595430 0.521461 0.116388 -0.464058
C23   C     C_3   0.628799 0.642742 0.165079 -0.015120
H13   H     H_    0.647096 0.656754 0.273980 0.166345
H14   H     H_    0.571204 0.711174 0.133127 0.137266
H15   H     H_    0.704585 0.666482 0.127006 0.073694
O11   O     O_3   0.788564 0.298797 0.643050 -0.569460
C24   C     C_3   0.803219 0.301730 0.786553 -0.255903
H16   H     H_    0.791368 0.394764 0.831765 0.158185
H17   H     H_    0.881322 0.270900 0.822849 0.144165
H18   H     H_    0.744687 0.237182 0.823717 0.200622
O12   O     O_3   0.008189 0.741115 0.336065 -0.572975
C25   C     C_3   0.061860 0.852145 0.385708 -0.374859
H19   H     H_    0.135650 0.865240 0.338048 0.169841
H20   H     H_    0.076877 0.857797 0.498953 0.152916
H21   H     H_    0.012929 0.929603 0.356533 0.187222
O13   O     O_3   0.168724 0.330942 0.589312 -0.577374
C26   C     C_3   0.172874 0.234168 0.490825 -0.380074
H22   H     H_    0.226738 0.258514 0.413712 0.153454
H23   H     H_    0.094309 0.207016 0.439827 0.162958
H24   H     H_    0.203055 0.152925 0.542728 0.182746
O14   O     O_3   0.532533 0.928446 0.644745 -0.576236
C27   C     C_3   0.444774 0.910829 0.718317 -0.291355
H25   H     H_    0.456665 0.835141 0.788898 0.223145
H26   H     H_    0.370313 0.893665 0.652208 0.122755
H27   H     H_    0.436801 0.995514 0.781971 0.174909
O15   O     O_3   0.618807 0.126893 0.332777 -0.554978
C28   C     C_3   0.705880 0.056811 0.314247 -0.265439
H28   H     H_    0.685387 0.980030 0.237504 0.137466
H29   H     H_    0.740397 0.021792 0.412026 0.172032
H30   H     H_    0.766335 0.116886 0.274409 0.187285

loop_
_geom_bond_atom_site_label_1
_geom_bond_atom_site_label_2
_ccdc_geom_bond_type
C12   C17   S    
C4    C16   A    
C27   H27   S    
C25   H19   S    
O9    C22   S    
C4    C21   S    
C15   O8    A    
Cu1   O5    S    
C10   H1    S    
Cu2   O6    S    
O15   C28   S    
C11   H2    S    
C22   H12   S    
C23   H15   S    
C26   H22   S    
C7    H6    S    
C20   O13   S    
C2    C3    A    
C12   O3    A    
C7    C8    D    
C21   H8    S    
C26   H23   S    
C2    C6    A    
Cu1   Cu2   S    
N1    O9    S    
C12   O4    A    
Cu1   O1    S    
C13   H3    S    
C6    H4    S    
Cu2   O2    S    
C5    C6    A    
N2    O10   S    
O10   C23   S    
C17   C19   A    
C22   H11   S    
C8    O14   S    
C21   H9    S    
O14   C27   S    
C14   O6    A    
C27   H25   S    
Cu2   O4    S    
C24   H17   S    
C25   H20   S    
C11   C13   S    
Cu1   O3    S    
C28   H28   S    
C28   H29   S    
C21   H7    S    
C2    C20   A    
C15   C16   S    
Cu2   O8    S    
C26   H24   S    
C13   N2    D    
C1    O1    A    
C17   C20   A    
Cu1   O7    S    
C22   H10   S    
C11   N1    D    
C3    C18   A    
C7    C9    S    
C23   H13   S    
C9    C10   D    
C5    O11   S    
C14   O5    A    
C27   H26   S    
C18   O12   S    
C24   H16   S    
C18   C19   A    
C5    C16   A    
C8    C14   S    
Cu2   N2    S    
C25   H21   S    
O12   C25   S    
O11   C24   S    
Cu1   N1    S    
C9    O15   S    
C1    O2    A    
C15   O7    A    
C1    C10   S    
C3    C4    A    
C28   H30   S    
C19   H5    S    
C23   H14   S    
C24   H18   S    
O13   C26   S    
