data_mof_unit_49566.cif
_audit_creation_date              2013-03-05T16:42:04-0500
_audit_creation_method            fapswitch 2.2
_symmetry_space_group_name_H-M    P1
_symmetry_Int_Tables_number       1
_space_group_crystal_system       triclinic
_cell_length_a                    9.864408
_cell_length_b                    10.679108
_cell_length_c                    13.126894
_cell_angle_alpha                 90.019312
_cell_angle_beta                  69.901091
_cell_angle_gamma                 89.968626
_cell_volume                      1298.6139361

loop_
_atom_site_label
_atom_site_type_symbol
_atom_site_description
_atom_site_fract_x
_atom_site_fract_y
_atom_site_fract_z
_atom_type_partial_charge
O1    O     O_R   0.385310 0.683210 0.499990 -0.609399
O2    O     O_R   0.614650 0.683240 0.500000 -0.626458
C1    C     C_R   0.501284 0.740081 0.497117 0.879074
O3    O     O_R   0.328390 0.499940 0.653610 -0.610865
O4    O     O_R   0.557730 0.499980 0.653620 -0.620852
C2    C     C_R   0.419846 0.493812 0.704182 0.856497
Zn1   Zn    Zn3+2 0.346870 0.499980 0.499990 0.937537
Zn2   Zn    Zn3+2 0.653130 0.500020 0.500010 0.926395
O5    O     O_R   0.385350 0.316760 0.500000 -0.615840
O6    O     O_R   0.614690 0.316790 0.500010 -0.630233
O7    O     O_R   0.442270 0.500020 0.346380 -0.613463
O8    O     O_R   0.671610 0.500060 0.346390 -0.614864
C3    C     C_R   0.501560 0.259961 0.496712 0.872804
C4    C     C_R   0.580184 0.499484 0.295685 0.869939
C5    C     C_R   0.772958 0.368429 0.019610 -0.200207
H1    H     H_    0.829671 0.387969 0.162747 0.153078
H2    H     H_    0.773385 0.279427 0.829509 0.152336
H3    H     H_    0.868504 0.313853 0.977509 0.139731
C6    C     C_R   0.628673 0.481860 0.179091 -0.059156
C7    C     C_R   0.233499 0.539184 0.881422 -0.199484
C8    C     C_R   0.194899 0.556020 0.992622 -0.145325
C9    C     C_R   0.293518 0.528508 0.043941 -0.197960
C10   C     C_R   0.430579 0.476717 0.984858 0.091093
C11   C     C_R   0.458668 0.440608 0.876437 0.090216
C12   C     C_R   0.540774 0.459465 0.029582 0.081956
C13   C     C_R   0.666030 0.388685 0.973125 0.178693
C14   C     C_R   0.680989 0.337225 0.872363 -0.272170
C15   C     C_R   0.578425 0.362553 0.824517 -0.227088
C16   C     C_R   0.530688 0.512846 0.128471 -0.254999
C17   C     C_R   0.752862 0.412841 0.123738 -0.206144
C18   C     C_R   0.367285 0.485630 0.822256 -0.122692
H4    H     H_    0.443130 0.575101 0.170633 0.148828
H5    H     H_    0.160895 0.571902 0.841302 0.152276
H6    H     H_    0.258389 0.545686 0.130124 0.133826
H7    H     H_    0.090788 0.595912 0.038425 0.148687
H8    H     H_    0.593588 0.319882 0.746603 0.175914
C19   C     C_R   0.386345 0.936255 0.479767 0.142389
C20   C     C_R   0.508570 0.871495 0.480393 -0.108236
C21   C     C_R   0.639533 0.935198 0.460361 -0.233449
H9    H     H_    0.738837 0.886188 0.452531 0.167121
C22   C     C_R   0.639725 0.064642 0.459938 -0.228426
H10   H     H_    0.739135 0.113511 0.451831 0.165120
C23   C     C_R   0.508925 0.128602 0.479668 -0.102502
C24   C     C_R   0.386558 0.063998 0.479264 0.132932
C25   C     C_3   0.234178 0.071664 0.555792 -0.480221
C26   C     C_3   0.234122 0.929735 0.556659 -0.492800
H11   H     H_    0.225362 0.113739 0.635375 0.203739
H12   H     H_    0.160489 0.112225 0.516634 0.200200
H13   H     H_    0.225978 0.889403 0.636670 0.198973
H14   H     H_    0.159983 0.888166 0.518401 0.201489
C27   C     C_R   0.905768 0.593995 0.550353 0.159745
N1    N     N_R   0.856940 0.500860 0.500710 -0.110224
C28   C     C_R   0.954646 0.414013 0.441941 -0.143630
H15   H     H_    0.920987 0.343123 0.396772 0.140327
C29   C     C_R   0.098657 0.414065 0.441857 -0.127325
H16   H     H_    0.173674 0.343201 0.396594 0.148284
N2    N     N_R   0.142580 0.500820 0.500710 -0.099279
C30   C     C_R   0.048215 0.593409 0.550912 0.172387
C31   C     C_3   0.001439 0.625262 0.668527 -0.510046
C32   C     C_3   0.847303 0.626418 0.668498 -0.120093
H17   H     H_    0.022073 0.547688 0.717730 0.192960
H18   H     H_    0.042114 0.718160 0.682953 0.200654
H19   H     H_    0.777864 0.552797 0.720456 0.202932
N3    N     N_3   0.781655 0.751149 0.688871 -0.435776
H20   H     H_    0.843190 0.814514 0.630357 0.185653
H21   H     H_    0.680383 0.745439 0.680220 0.215421

loop_
_geom_bond_atom_site_label_1
_geom_bond_atom_site_label_2
_geom_bond_distance
_ccdc_geom_bond_type
O1    C1    1.284584 A    
O4    Zn2   1.909811 S    
C10   C11   1.406955 A    
O6    C3    1.284317 A    
C19   C20   1.392090 A    
C8    H7    1.082893 S    
C5    H3    1.083796 S    
C22   H10   1.083593 S    
Zn2   N1    2.013667 S    
C28   C29   1.420210 A    
C6    C17   1.399582 A    
C32   N3    1.464558 S    
Zn2   O8    1.961395 S    
N3    H20   1.047239 S    
C7    C8    1.387741 A    
C29   H16   1.081768 S    
C29   N2    1.368549 A    
C2    C18   1.458292 S    
C12   C13   1.420023 A    
C11   C18   1.410675 A    
C31   C32   1.520629 S    
C21   C22   1.382355 A    
C27   C30   1.407704 A    
O1    Zn1   1.993339 S    
C28   H15   1.081751 S    
C24   C25   1.495761 S    
Zn1   O7    1.909814 S    
C22   C23   1.402728 A    
C26   H13   1.112407 S    
C13   C14   1.392319 A    
O4    C2    1.294036 A    
C19   C24   1.364199 A    
O3    Zn1   1.961394 S    
C7    H5    1.082333 S    
Zn2   O6    1.993339 S    
O8    C4    1.291885 A    
O2    C1    1.284066 A    
C16   H4    1.079293 S    
N2    C30   1.362123 A    
C10   C12   1.413746 A    
C23   C24   1.392246 A    
C12   C16   1.389459 A    
C20   C21   1.403032 A    
C9    H6    1.078877 S    
O7    C4    1.292848 A    
C32   H19   1.110119 S    
C6    C16   1.387993 A    
C31   H17   1.111496 S    
H1    C17   1.083216 S    
C27   N1    1.364436 A    
H2    C14   1.083932 S    
C25   C26   1.515712 S    
C3    C23   1.418336 S    
N1    C28   1.368115 A    
C15   H8    1.081922 S    
C5    C17   1.394931 A    
O3    C2    1.292465 A    
C25   H11   1.112666 S    
C21   H9    1.083632 S    
Zn1   O5    1.992909 S    
C26   H14   1.112103 S    
C9    C10   1.419016 A    
C5    C13   1.404964 A    
O5    C3    1.284174 A    
C27   C32   1.497474 S    
C25   H12   1.112121 S    
C31   H18   1.110669 S    
C19   C26   1.495623 S    
C8    C9    1.391670 A    
C30   C31   1.490687 S    
C4    C6    1.450261 S    
Zn1   N2    2.011987 S    
O2    Zn2   1.992910 S    
C11   C15   1.414226 A    
C1    C20   1.418568 S    
C14   C15   1.388453 A    
C7    C18   1.402273 A    
N3    H21   1.045285 S    
