data_mof_unit_28756.cif
_audit_creation_date              2012-12-10T19:44:57-0500
_audit_creation_method            fapswitch 2.2
_symmetry_space_group_name_H-M    P1
_symmetry_Int_Tables_number       1
_space_group_crystal_system       triclinic
_cell_length_a                    15.053554
_cell_length_b                    10.823519
_cell_length_c                    13.683675
_cell_angle_alpha                 90.111483
_cell_angle_beta                  89.435077
_cell_angle_gamma                 89.745538
_cell_volume                      2229.37961848

loop_
_atom_site_label
_atom_site_type_symbol
_atom_type_description
_atom_site_fract_x
_atom_site_fract_y
_atom_site_fract_z
_atom_type_partial_charge
C1    C     C_R   0.497558 0.262148 0.499743 0.781962
C2    C     C_R   0.502458 0.737822 0.500197 0.798620
C3    C     C_R   0.038880 0.313594 0.610205 0.143764
C4    C     C_R   0.960978 0.691344 0.399642 0.154565
C5    C     C_R   0.303096 0.248283 0.263836 0.227127
C6    C     C_R   0.703075 0.753941 0.729974 0.226189
C7    C     C_R   0.341201 0.188344 0.344483 -0.145855
C8    C     C_R   0.662283 0.813300 0.650671 -0.149277
C9    C     C_R   0.420449 0.120491 0.333285 0.100288
C10   C     C_R   0.582476 0.879183 0.664456 0.100494
C11   C     C_R   0.460403 0.110660 0.240473 -0.162585
C12   C     C_R   0.544181 0.886675 0.758206 -0.159605
C13   C     C_R   0.422730 0.170205 0.160323 -0.197629
C14   C     C_R   0.584161 0.826873 0.836861 -0.194886
C15   C     C_R   0.344856 0.239565 0.172045 -0.111492
C16   C     C_R   0.662923 0.760143 0.822752 -0.109504
C17   C     C_R   0.467871 0.933154 0.420393 -0.247419
C18   C     C_R   0.532375 0.066698 0.579242 -0.246556
C19   C     C_R   0.504322 0.871666 0.500528 -0.080420
C20   C     C_R   0.495805 0.128257 0.499164 -0.080186
C21   C     C_R   0.538151 0.938828 0.580467 0.011752
C22   C     C_R   0.462564 0.061048 0.418816 0.012056
C23   C     C_R   0.328824 0.496424 0.500599 0.807678
C24   C     C_R   0.671182 0.502438 0.499544 0.843167
C25   C     C_R   0.557702 0.424729 0.792542 0.026367
C26   C     C_R   0.442325 0.575307 0.207453 0.028424
C27   C     C_R   0.442370 0.575293 0.793988 0.022888
C28   C     C_R   0.557746 0.424878 0.206008 0.039381
C29   C     C_R   0.441082 0.577249 0.897098 -0.007443
C30   C     C_R   0.559106 0.423024 0.102896 -0.008974
C31   C     C_R   0.500085 0.500112 0.948163 0.081270
C32   C     C_R   0.500082 0.500128 0.051831 0.079039
C33   C     C_R   0.559072 0.422929 0.895613 -0.008606
C34   C     C_R   0.441049 0.577242 0.104382 -0.009565
C35   C     C_R   0.382578 0.654316 0.950117 -0.216663
C36   C     C_R   0.617642 0.346001 0.049876 -0.216650
C37   C     C_R   0.382517 0.654251 0.052838 -0.206234
C38   C     C_R   0.617648 0.345982 0.947156 -0.208221
C39   C     C_R   0.814033 0.590553 0.439622 0.073166
C40   C     C_R   0.185748 0.405754 0.560224 0.065428
C41   C     C_R   0.767645 0.506577 0.499095 -0.063917
C42   C     C_R   0.232301 0.491974 0.502043 -0.094814
C43   C     C_R   0.812138 0.425301 0.559682 -0.271260
C44   C     C_R   0.187474 0.576561 0.444628 -0.251000
C45   C     C_R   0.904064 0.419838 0.558137 0.072820
C46   C     C_R   0.095580 0.582072 0.446755 0.091800
C47   C     C_R   0.953077 0.504727 0.501918 0.001929
C48   C     C_R   0.046562 0.496547 0.502554 -0.004207
C49   C     C_R   0.908484 0.597866 0.446083 0.046153
C50   C     C_R   0.091054 0.403350 0.558347 0.047607
C51   C     C_R   0.946239 0.327548 0.611303 -0.204352
C52   C     C_R   0.053272 0.677151 0.396826 -0.236871
Cu1   Cu    Cu3+1 0.500010 0.499980 0.597420 0.940306
Cu2   Cu    Cu3+1 0.499990 0.500020 0.402580 0.956207
H1    H     H_    0.440893 0.881271 0.359681 0.151947
H2    H     H_    0.559544 0.118525 0.639878 0.152155
H3    H     H_    0.602600 0.365930 0.750998 0.122441
H4    H     H_    0.397387 0.634047 0.248996 0.122048
H5    H     H_    0.397646 0.634287 0.753559 0.128869
H6    H     H_    0.602471 0.365883 0.246435 0.127463
H7    H     H_    0.336876 0.714625 0.912161 0.137737
H8    H     H_    0.663353 0.285707 0.087834 0.137274
H9    H     H_    0.336716 0.714453 0.091944 0.137426
H10   H     H_    0.663430 0.285753 0.908050 0.137389
H11   H     H_    0.774362 0.361015 0.604369 0.141621
H12   H     H_    0.225006 0.642518 0.401248 0.141540
H13   H     H_    0.904772 0.264811 0.652581 0.159007
H14   H     H_    0.093678 0.745453 0.359414 0.132448
H15   H     H_    0.316739 0.286311 0.109580 0.136505
H16   H     H_    0.693042 0.713602 0.884162 0.135217
H17   H     H_    0.309867 0.195097 0.415843 0.091123
H18   H     H_    0.691985 0.807708 0.578344 0.094686
H19   H     H_    0.521466 0.058613 0.230609 0.131547
H20   H     H_    0.482628 0.936998 0.769940 0.130959
H21   H     H_    0.454398 0.163552 0.089134 0.150051
H22   H     H_    0.553734 0.831544 0.908789 0.149122
N1    N     N_R   0.499960 0.499900 0.743810 -0.182706
N2    N     N_R   0.500040 0.500100 0.256190 -0.181828
O1    O     O_R   0.500000 0.319630 0.582270 -0.596748
O2    O     O_R   0.500000 0.680370 0.417730 -0.589763
O3    O     O_R   0.499990 0.319660 0.417730 -0.574275
O4    O     O_R   0.500010 0.680340 0.582270 -0.572189
O5    O     O_R   0.370260 0.499960 0.582280 -0.595548
O6    O     O_R   0.629740 0.500040 0.417720 -0.561338
O7    O     O_R   0.370250 0.499990 0.417740 -0.573377
O8    O     O_R   0.629750 0.500010 0.582260 -0.583135
N3    N     N_3   0.763568 0.656879 0.368332 -0.589314
H23   H     H_    0.791432 0.644277 0.298767 0.220857
H24   H     H_    0.755596 0.749302 0.388139 0.226284
N4    N     N_3   0.234921 0.323332 0.621681 -0.638396
H25   H     H_    0.282889 0.276353 0.580010 0.210193
H26   H     H_    0.265698 0.374122 0.676708 0.249433
C53   C     C_3   0.080243 0.201914 0.661592 -0.340605
C54   C     C_3   0.016632 0.101608 0.698245 -0.914511
H27   H     H_    0.974715 0.136940 0.759518 0.252351
H28   H     H_    0.974277 0.067859 0.637896 0.255989
H29   H     H_    0.055763 0.022109 0.726066 0.250136
H30   H     H_    0.125954 0.154820 0.609088 0.224979
H31   H     H_    0.117961 0.234563 0.725966 0.229278
C55   C     C_3   0.926134 0.815768 0.364671 -0.394216
C56   C     C_3   0.894883 0.895685 0.450802 -0.845421
H32   H     H_    0.845281 0.847120 0.496966 0.240353
H33   H     H_    0.952471 0.919651 0.497111 0.253579
H34   H     H_    0.864691 0.982486 0.423237 0.240645
H35   H     H_    0.979463 0.868756 0.326937 0.193043
H36   H     H_    0.875179 0.807644 0.307784 0.187108
N5    N     N_3   0.222789 0.319216 0.274021 -0.589448
H37   H     H_    0.174458 0.276563 0.231402 0.202813
H38   H     H_    0.199509 0.315667 0.346170 0.217829
N6    N     N_3   0.784601 0.686310 0.717488 -0.587865
H39   H     H_    0.832709 0.730011 0.759754 0.205345
H40   H     H_    0.806764 0.692346 0.645051 0.215635

loop_
_geom_bond_atom_site_label_1
_geom_bond_atom_site_label_2
_ccdc_geom_bond_type
N3    H23   S    
C53   C54   S    
C12   H20   S    
C27   C29   A    
C34   C37   A    
N5    H38   S    
C44   H12   S    
C39   N3    S    
Cu2   O6    S    
C39   C41   A    
Cu1   Cu2   S    
C55   H35   S    
C26   N2    A    
C23   C42   S    
C23   O5    A    
C4    C52   A    
C25   N1    A    
Cu1   O1    S    
C7    H17   S    
C9    C22   S    
C45   C51   A    
C1    O3    A    
C18   C21   A    
C46   C52   A    
Cu2   N2    S    
C45   C47   A    
N6    H39   S    
C26   C34   A    
C31   C32   A    
N5    H37   S    
C31   C33   A    
Cu1   O8    S    
C28   N2    A    
C17   H1    S    
Cu2   O2    S    
C52   H14   S    
C18   H2    S    
C40   C42   A    
C56   H33   S    
C24   C41   S    
C6    N6    S    
C42   C44   A    
C36   H8    S    
C37   H9    S    
C3    C50   A    
C44   C46   A    
C38   H10   S    
C28   H6    S    
C10   C21   S    
C15   H15   S    
C46   C48   A    
C8    H18   S    
C25   H3    S    
C56   H32   S    
C13   H21   S    
C16   H16   S    
C3    C53   S    
C11   H19   S    
C5    C7    A    
C3    C51   A    
C6    C8    A    
C54   H29   S    
Cu1   O4    S    
C32   C34   A    
Cu1   N1    S    
C9    C11   A    
N4    H26   S    
C47   C48   A    
C43   H11   S    
C35   H7    S    
C51   H13   S    
C54   H28   S    
C26   H4    S    
C10   C12   A    
C8    C10   A    
C39   C49   A    
C12   C14   A    
C56   H34   S    
C13   C15   A    
C1    O1    A    
C14   C16   A    
C2    O4    A    
C5    N5    S    
C7    C9    A    
C53   H31   S    
C1    C20   S    
C35   C37   A    
C2    C19   S    
C41   C43   A    
C33   C38   A    
C20   C22   A    
C27   N1    A    
Cu2   O7    S    
C47   C49   A    
C29   C35   A    
C55   H36   S    
C17   C22   A    
C4    C55   S    
C30   C36   A    
C4    C49   A    
Cu1   O5    S    
C36   C38   A    
C24   O6    A    
C28   C30   A    
C43   C45   A    
C27   H5    S    
C30   C32   A    
C11   C13   A    
N4    H25   S    
C40   C50   A    
C48   C50   A    
C55   C56   S    
C17   C19   A    
C18   C20   A    
C54   H27   S    
N6    H40   S    
C5    C15   A    
C2    O2    A    
C6    C16   A    
C29   C31   A    
C23   O7    A    
C25   C33   A    
N3    H24   S    
C40   N4    S    
C24   O8    A    
C53   H30   S    
Cu2   O3    S    
C14   H22   S    
C19   C21   A    
