data_mof_unit_17117.cif
_audit_creation_date              2013-03-05T15:59:58-0500
_audit_creation_method            fapswitch 2.2
_symmetry_space_group_name_H-M    P1
_symmetry_Int_Tables_number       1
_space_group_crystal_system       triclinic
_cell_length_a                    12.607941
_cell_length_b                    13.135776
_cell_length_c                    19.233831
_cell_angle_alpha                 90.555772
_cell_angle_beta                  102.424692
_cell_angle_gamma                 82.451193
_cell_volume                      3083.28163952

loop_
_atom_site_label
_atom_site_type_symbol
_atom_site_description
_atom_site_fract_x
_atom_site_fract_y
_atom_site_fract_z
_atom_type_partial_charge
O1    O     O_R   0.366740 0.627160 0.482470 -0.550373
O2    O     O_R   0.544830 0.662520 0.505920 -0.654037
C1    C     C_R   0.438528 0.691379 0.489775 0.881280
O3    O     O_R   0.410920 0.482320 0.590130 -0.615057
O4    O     O_R   0.589010 0.517690 0.613590 -0.633013
C2    C     C_R   0.501166 0.498443 0.634269 0.838492
Zn1   Zn    Zn3+2 0.381090 0.476390 0.484340 0.972172
Zn2   Zn    Zn3+2 0.618910 0.523610 0.515660 0.915006
O5    O     O_R   0.455170 0.337480 0.494080 -0.581055
O6    O     O_R   0.633260 0.372840 0.517530 -0.598978
O7    O     O_R   0.410990 0.482310 0.386410 -0.620553
O8    O     O_R   0.589080 0.517680 0.409870 -0.652922
C3    C     C_R   0.561165 0.308281 0.508503 0.934631
C4    C     C_R   0.499225 0.500158 0.365964 0.864113
C5    C     C_R   0.446364 0.431843 0.741644 0.083604
C6    C     C_R   0.447621 0.440003 0.813859 -0.213066
H1    H     H_    0.402077 0.390452 0.837519 0.157234
C7    C     C_R   0.507301 0.509283 0.856198 0.015850
C8    C     C_R   0.568664 0.573130 0.826180 0.120284
C9    C     C_R   0.563505 0.567481 0.752710 -0.239247
H2    H     H_    0.605653 0.617485 0.727237 0.146103
C10   C     C_R   0.503275 0.498239 0.710470 -0.094554
N1    N     N_R   0.504270 0.597273 0.968986 -0.193407
N2    N     N_R   0.500023 0.596078 0.037313 -0.181966
C11   C     C_R   0.494910 0.506768 0.070281 0.343327
N3    N     N_R   0.495095 0.418685 0.033241 -0.137978
N4    N     N_R   0.500213 0.419869 0.965132 -0.176712
C12   C     C_R   0.505571 0.509053 0.931942 0.272287
C13   C     C_R   0.426591 0.443262 0.171420 0.556651
C14   C     C_R   0.426648 0.444602 0.244103 -0.294456
H3    H     H_    0.372133 0.401209 0.264428 0.160079
C15   C     C_R   0.497244 0.501310 0.290358 -0.084762
C16   C     C_R   0.565373 0.559987 0.264070 -0.194525
H4    H     H_    0.619675 0.604904 0.299277 0.162968
C17   C     C_R   0.562166 0.562921 0.191723 -0.246793
H5    H     H_    0.614902 0.609170 0.171994 0.168708
C18   C     C_R   0.493294 0.504860 0.145381 -0.024812
C19   C     C_R   0.704603 0.059775 0.457446 -0.306265
H6    H     H_    0.700628 0.872911 0.403239 0.146932
H7    H     H_    0.777795 0.031045 0.438581 0.171431
C20   C     C_R   0.597117 0.198037 0.505721 -0.290782
C21   C     C_R   0.296475 0.840067 0.497771 0.551119
C22   C     C_R   0.262471 0.945671 0.493537 -0.278214
C23   C     C_R   0.334317 0.012666 0.483040 -0.226087
C24   C     C_R   0.440829 0.974483 0.474724 0.111692
C25   C     C_R   0.463844 0.869608 0.460915 0.012826
C26   C     C_R   0.525689 0.036392 0.479857 -0.037036
C27   C     C_R   0.620402 0.999210 0.453797 0.028893
C28   C     C_R   0.630586 0.901210 0.425507 -0.189523
C29   C     C_R   0.553543 0.836470 0.429529 -0.186270
C30   C     C_R   0.522590 0.131617 0.514025 0.402906
C31   C     C_R   0.693820 0.159252 0.483537 0.458283
C32   C     C_R   0.397483 0.801093 0.480285 -0.244483
H8    H     H_    0.305076 0.093881 0.480967 0.215298
H9    H     H_    0.182330 0.975949 0.502226 0.166423
H10   H     H_    0.565269 0.760328 0.408178 0.166607
C33   C     C_R   0.087721 0.348188 0.398415 -0.302556
H11   H     H_    0.254375 0.335298 0.386500 0.129986
H12   H     H_    0.877866 0.321288 0.377919 0.174767
H13   H     H_    0.065323 0.292104 0.358058 0.147575
N5    N     N_R   0.222200 0.444680 0.463280 -0.103509
C34   C     C_R   0.807349 0.627849 0.586596 0.234547
C35   C     C_R   0.918664 0.631205 0.615606 -0.228609
C36   C     C_R   0.997047 0.575247 0.585982 -0.225809
C37   C     C_R   0.966265 0.515228 0.526438 0.018880
C38   C     C_R   0.854642 0.499566 0.505506 0.167950
C39   C     C_R   0.043388 0.468590 0.488395 -0.014073
C40   C     C_R   0.011301 0.397226 0.434937 0.150073
C41   C     C_R   0.903266 0.376511 0.418307 -0.240878
C42   C     C_R   0.826023 0.427814 0.452622 -0.129851
C43   C     C_R   0.151001 0.493069 0.499766 -0.018472
C44   C     C_R   0.194068 0.372764 0.414025 0.023999
N6    N     N_R   0.776960 0.554780 0.536340 -0.146685
H14   H     H_    0.180178 0.551255 0.536013 0.143559
H15   H     H_    0.081236 0.581198 0.610469 0.126729
H16   H     H_    0.947001 0.679740 0.659494 0.141941
H17   H     H_    0.745206 0.407766 0.437636 0.240421
C45   C     C_3   0.388671 0.347726 0.701751 -0.404558
C46   C     C_3   0.264631 0.380550 0.680559 -0.313732
C47   C     C_3   0.207308 0.300034 0.634595 -0.854734
H18   H     H_    0.238287 0.289062 0.584792 0.293155
H19   H     H_    0.221609 0.225584 0.664201 0.249145
H20   H     H_    0.117754 0.325832 0.620277 0.239891
H21   H     H_    0.230513 0.391696 0.729200 0.211451
H22   H     H_    0.247348 0.454660 0.650528 0.225726
H23   H     H_    0.422226 0.324773 0.654367 0.245211
H24   H     H_    0.405130 0.277670 0.736439 0.177851
O9    O     O_3   0.446930 0.162442 0.555279 -0.605413
C48   C     C_3   0.481891 0.111807 0.622215 -0.382572
H25   H     H_    0.421920 0.137163 0.655315 0.195171
H26   H     H_    0.563373 0.131109 0.650395 0.164370
H27   H     H_    0.483192 0.027426 0.617391 0.184019
O10   O     O_3   0.228936 0.775396 0.516793 -0.588805
C49   C     C_3   0.248065 0.770779 0.591776 -0.328452
H28   H     H_    0.226691 0.847377 0.614076 0.155451
H29   H     H_    0.334569 0.739293 0.615622 0.147892
H30   H     H_    0.194877 0.718318 0.607424 0.179297
C50   C     C_3   0.723150 0.711094 0.605478 -0.366993
C51   C     C_3   0.766141 0.790366 0.660251 -0.441761
C52   C     C_3   0.674277 0.874774 0.667890 -0.912168
H31   H     H_    0.645655 0.919411 0.617114 0.269854
H32   H     H_    0.604343 0.841583 0.681218 0.252602
H33   H     H_    0.705182 0.927505 0.710747 0.256741
H34   H     H_    0.801498 0.751884 0.712816 0.228209
H35   H     H_    0.830139 0.827834 0.642478 0.235936
H36   H     H_    0.685674 0.755696 0.555798 0.240568
H37   H     H_    0.660631 0.676029 0.625556 0.235059
C53   C     C_3   0.639940 0.643791 0.872946 -0.399139
C54   C     C_3   0.719524 0.693122 0.837624 -0.390393
C55   C     C_3   0.794257 0.753015 0.891167 -0.858747
H38   H     H_    0.744828 0.814570 0.914930 0.263671
H39   H     H_    0.845254 0.700819 0.934168 0.266430
H40   H     H_    0.849376 0.788965 0.863728 0.247644
H41   H     H_    0.771317 0.632729 0.814459 0.231749
H42   H     H_    0.672095 0.747545 0.794915 0.232109
H43   H     H_    0.585526 0.706654 0.891683 0.216499
H44   H     H_    0.689571 0.598197 0.919983 0.216022
O11   O     O_3   0.354164 0.390847 0.124501 -0.600976
C56   C     C_3   0.380619 0.284313 0.138972 -0.302453
H45   H     H_    0.355317 0.262639 0.188093 0.154281
H46   H     H_    0.469462 0.257978 0.142918 0.158058
H47   H     H_    0.334539 0.243031 0.094242 0.200676
O12   O     O_3   0.775340 0.219490 0.483276 -0.607409
C57   C     C_3   0.855682 0.198283 0.546661 -0.292280
H48   H     H_    0.894933 0.116955 0.549318 0.153687
H49   H     H_    0.820665 0.216452 0.594497 0.161694
H50   H     H_    0.920931 0.247611 0.547620 0.192211

loop_
_geom_bond_atom_site_label_1
_geom_bond_atom_site_label_2
_geom_bond_distance
_ccdc_geom_bond_type
C45   H24   1.112300 S    
C14   C15   1.399720 A    
O10   C49   1.410671 S    
C21   O10   1.382308 S    
C8    C9    1.402242 A    
H11   C44   1.081877 S    
C3    C20   1.463513 S    
O12   C57   1.411036 S    
C38   C42   1.402127 A    
C24   C25   1.404855 A    
Zn1   O7    2.003019 S    
N3    N4    1.325725 A    
C13   C14   1.397769 A    
C17   C18   1.399249 A    
C47   H20   1.110408 S    
C21   C32   1.416575 A    
C14   H3    1.083046 S    
C16   C17   1.384152 A    
C31   O12   1.377861 S    
C5    C45   1.514357 S    
C19   C31   1.395628 A    
C35   H16   1.079963 S    
C5    C6    1.388910 A    
C2    C10   1.460177 S    
C53   C54   1.536543 S    
C7    C8    1.416820 A    
C28   C29   1.386855 A    
O5    C3    1.310668 A    
O11   C56   1.411397 S    
Zn1   N5    2.053651 S    
C11   C18   1.449486 S    
C55   H38   1.110889 S    
C5    C10   1.412343 A    
C17   H5    1.083661 S    
C6    H1    1.084839 S    
C37   C39   1.413214 A    
N1    N2    1.327079 A    
C34   N6    1.386243 A    
C48   H26   1.113381 S    
C20   C31   1.408747 A    
C19   C27   1.397709 A    
C8    C53   1.527512 S    
C45   H23   1.107940 S    
C24   C26   1.413292 A    
C51   H34   1.110478 S    
C34   C50   1.519126 S    
C42   H17   1.064579 S    
C46   H21   1.111623 S    
C41   C42   1.390584 A    
O3    Zn1   1.990739 S    
C56   H46   1.114555 S    
C51   H35   1.111961 S    
C39   C40   1.414765 A    
C7    C12   1.461728 S    
N2    C11   1.354414 A    
C47   H19   1.110609 S    
C4    C15   1.449224 S    
C45   C46   1.532892 S    
C40   C41   1.392801 A    
C33   H13   1.083630 S    
C26   C30   1.407225 A    
C49   H30   1.107907 S    
C11   N3    1.352884 A    
C38   N6    1.375482 A    
C52   H33   1.110272 S    
C29   H10   1.081744 S    
C50   H37   1.101109 S    
C35   C36   1.372914 A    
O1    C1    1.301592 A    
C22   C23   1.388295 A    
C34   C35   1.400629 A    
C43   H14   1.076438 S    
C26   C27   1.419620 A    
Zn2   O8    1.990739 S    
C52   H32   1.110708 S    
C16   H4    1.083637 S    
N1    C12   1.354569 A    
C9    H2    1.078829 S    
C48   H27   1.109648 S    
C49   H29   1.113911 S    
C55   H40   1.110555 S    
C54   H41   1.111987 S    
H12   C41   1.084097 S    
C57   H50   1.109164 S    
N5    C44   1.357121 A    
C22   H9    1.082976 S    
C27   C28   1.393829 A    
H6    C28   1.083910 S    
O8    C4    1.304836 A    
C37   C38   1.419743 A    
O3    C2    1.305521 A    
C21   C22   1.394859 A    
C33   C40   1.398602 A    
C46   H22   1.108972 S    
C23   C24   1.412233 A    
C57   H49   1.114114 S    
C56   H47   1.109235 S    
Zn1   O5    1.928861 S    
O1    Zn1   1.964884 S    
C53   H44   1.112296 S    
Zn2   O6    1.964884 S    
O2    Zn2   1.928860 S    
C9    C10   1.402015 A    
C47   H18   1.111041 S    
O6    C3    1.306634 A    
C30   O9    1.386179 S    
O4    Zn2   2.003018 S    
C56   H45   1.110949 S    
C13   O11   1.385924 S    
C25   C29   1.411466 A    
C50   H36   1.106077 S    
C51   C52   1.524812 S    
C15   C16   1.398547 A    
C53   H43   1.110926 S    
O2    C1    1.313811 A    
C54   C55   1.526044 S    
C36   C37   1.398361 A    
C19   H7    1.084230 S    
C1    C32   1.465132 S    
N5    C43   1.347152 A    
O4    C2    1.309125 A    
C25   C32   1.409713 A    
Zn2   N6    2.041272 S    
O7    C4    1.306049 A    
C36   H15   1.077303 S    
C39   C43   1.406286 A    
C33   C44   1.389523 A    
C49   H28   1.113142 S    
C55   H39   1.110808 S    
C54   H42   1.109562 S    
C46   C47   1.526518 S    
C23   H8    1.080168 S    
O9    C48   1.410523 S    
C6    C7    1.399780 A    
C50   C51   1.539234 S    
C13   C18   1.407362 A    
N4    C12   1.355855 A    
C52   H31   1.109810 S    
C48   H25   1.106710 S    
C20   C30   1.397256 A    
C57   H48   1.113571 S    
