data_mof_unit_53468.cif
_audit_creation_date              2012-12-11T15:31:43-0500
_audit_creation_method            fapswitch 2.2
_symmetry_space_group_name_H-M    P1
_symmetry_Int_Tables_number       1
_space_group_crystal_system       triclinic
_cell_length_a                    6.945026
_cell_length_b                    14.783064
_cell_length_c                    21.310437
_cell_angle_alpha                 74.835413
_cell_angle_beta                  90.328572
_cell_angle_gamma                 90.420118
_cell_volume                      2111.6561197

loop_
_atom_site_label
_atom_site_type_symbol
_atom_type_description
_atom_site_fract_x
_atom_site_fract_y
_atom_site_fract_z
_atom_type_partial_charge
O1    O     O_R   0.648150 0.130050 0.214300 -0.537083
O2    O     O_R   0.351850 0.869950 0.785700 -0.537083
O3    O     O_R   0.320490 0.006660 0.340150 -0.544066
O4    O     O_R   0.679510 0.993340 0.659850 -0.544066
O5    O     O_R   0.146100 0.869940 0.285700 -0.539011
O6    O     O_R   0.853900 0.130060 0.714300 -0.539011
C1    C     C_R   0.489298 0.001581 0.367146 0.676985
C2    C     C_R   0.510702 0.998419 0.632854 0.676985
O7    O     O_R   0.318690 0.137980 0.218120 -0.537567
O8    O     O_R   0.681310 0.862020 0.781880 -0.537568
O9    O     O_R   0.144280 0.002190 0.162800 -0.541672
O10   O     O_R   0.855720 0.997810 0.837200 -0.541673
C3    C     C_R   0.487773 0.175505 0.205947 0.699327
C4    C     C_R   0.512227 0.824494 0.794053 0.699327
O11   O     O_R   0.649960 0.997790 0.337200 -0.541224
O12   O     O_R   0.350040 0.002210 0.662800 -0.541224
O13   O     O_3   0.479300 0.955290 0.231990 -0.371152
O14   O     O_3   0.520700 0.044710 0.768010 -0.371152
V1    V     V_3+5 0.206040 0.008290 0.253340 1.429499
V2    V     V_3+5 0.793960 0.991710 0.746660 1.429499
O15   O     O_R   0.814320 0.993320 0.159850 -0.544323
O16   O     O_R   0.185680 0.006680 0.840150 -0.544323
C5    C     C_R   0.982814 0.998374 0.132846 0.677681
C6    C     C_R   0.017186 0.001626 0.867154 0.677680
O17   O     O_R   0.816120 0.862000 0.281880 -0.540893
O18   O     O_R   0.183880 0.138000 0.718120 -0.540893
C7    C     C_R   0.984555 0.824480 0.294204 0.706873
C8    C     C_R   0.015445 0.175520 0.705796 0.706873
V3    V     V_3+5 0.705540 0.991700 0.246660 1.424597
V4    V     V_3+5 0.294460 0.008300 0.753340 1.424597
O19   O     O_3   0.982150 0.044700 0.268010 -0.367589
O20   O     O_3   0.017850 0.955300 0.731990 -0.367589
C9    C     C_R   0.992079 0.723149 0.321784 -0.068391
C10   C     C_R   0.007921 0.276851 0.678216 -0.068391
C11   C     C_R   0.000180 0.566534 0.307324 0.153961
C12   C     C_R   0.999820 0.433465 0.692676 0.153961
C13   C     C_R   0.995055 0.663279 0.281146 -0.189823
C14   C     C_R   0.004945 0.336720 0.718854 -0.189823
C15   C     C_R   0.993894 0.686963 0.389147 -0.216082
C16   C     C_R   0.006105 0.313037 0.610853 -0.216082
C17   C     C_R   0.997853 0.589110 0.417902 0.061214
C18   C     C_R   0.002147 0.410889 0.582098 0.061214
C19   C     C_R   0.001220 0.528667 0.375661 0.098586
C20   C     C_R   0.998780 0.471332 0.624339 0.098586
C21   C     C_R   0.998125 0.549715 0.487003 0.075174
C22   C     C_R   0.001875 0.450285 0.512997 0.075174
C23   C     C_R   0.005446 0.393500 0.469021 -0.200670
C24   C     C_R   0.994553 0.606500 0.530979 -0.200670
C25   C     C_R   0.005183 0.431820 0.402308 -0.175577
C26   C     C_R   0.994817 0.568179 0.597692 -0.175577
H1    H     H_    0.007908 0.383772 0.371842 0.162521
H2    H     H_    0.992091 0.616228 0.628158 0.162521
H3    H     H_    0.008801 0.262268 0.582738 0.095929
H4    H     H_    0.991199 0.737732 0.417262 0.095929
H5    H     H_    0.006576 0.308007 0.771141 0.129298
H6    H     H_    0.993424 0.691993 0.228859 0.129298
H7    H     H_    0.008472 0.318196 0.484203 0.118596
H8    H     H_    0.991528 0.681804 0.515796 0.118596
C27   C     C_3   0.820729 0.994768 0.977314 -0.118609
C28   C     C_3   0.179271 0.005232 0.022686 -0.118610
C29   C     C_3   0.915460 0.920168 0.033683 -0.142553
C30   C     C_3   0.084540 0.079831 0.966317 -0.142553
H9    H     H_    0.845631 0.854365 0.061840 0.106146
H10   H     H_    0.154369 0.145635 0.938160 0.106146
C31   C     C_3   0.992159 0.998939 0.062227 -0.007511
C32   C     C_3   0.007841 0.001060 0.937773 -0.007511
C33   C     C_3   0.897524 0.073556 0.006659 -0.135487
C34   C     C_3   0.102476 0.926444 0.993341 -0.135487
H11   H     H_    0.812686 0.134130 0.012593 0.103276
H12   H     H_    0.187313 0.865870 0.987407 0.103276
C35   C     C_3   0.681114 0.994597 0.479468 -0.119712
C36   C     C_3   0.318886 0.005403 0.520532 -0.119713
C37   C     C_3   0.602926 0.073436 0.507852 -0.136007
C38   C     C_3   0.397073 0.926564 0.492148 -0.136008
H13   H     H_    0.687772 0.134055 0.514804 0.101463
H14   H     H_    0.312228 0.865944 0.485196 0.101463
H15   H     H_    0.830579 0.990202 0.462320 0.108549
H16   H     H_    0.169421 0.009798 0.537680 0.108549
C39   C     C_3   0.502526 0.999003 0.562253 -0.006128
C40   C     C_3   0.497474 0.000996 0.437747 -0.006128
C41   C     C_3   0.580767 0.920180 0.534683 -0.141591
C42   C     C_3   0.419233 0.079820 0.465317 -0.141591
H17   H     H_    0.647042 0.854265 0.563749 0.105360
H18   H     H_    0.352958 0.145735 0.436251 0.105360
C43   C     C_R   0.497008 0.276700 0.178132 -0.038848
C44   C     C_R   0.502992 0.723300 0.821868 -0.038848
C45   C     C_R   0.504567 0.433561 0.191535 -0.074523
C46   C     C_R   0.495433 0.566439 0.808465 -0.074523
C47   C     C_R   0.500360 0.337128 0.218558 -0.129695
C48   C     C_R   0.499640 0.662872 0.781442 -0.129695
C49   C     C_R   0.497567 0.312447 0.110574 -0.204643
C50   C     C_R   0.502433 0.687553 0.889426 -0.204643
C51   C     C_R   0.500473 0.410288 0.081647 0.086226
C52   C     C_R   0.499527 0.589711 0.918353 0.086226
C53   C     C_R   0.504247 0.470540 0.123761 0.146591
C54   C     C_R   0.495753 0.529460 0.876239 0.146592
C55   C     C_R   0.498846 0.450122 0.012731 0.062867
C56   C     C_R   0.501154 0.549878 0.987269 0.062868
C57   C     C_R   0.505290 0.606386 0.031541 -0.185691
C58   C     C_R   0.494710 0.393614 0.968459 -0.185691
C59   C     C_R   0.506903 0.567298 0.098200 -0.161233
C60   C     C_R   0.493097 0.432701 0.901800 -0.161233
H19   H     H_    0.505867 0.738374 0.917550 0.089293
H20   H     H_    0.494133 0.261626 0.082450 0.089293
H21   H     H_    0.500794 0.690386 0.729062 0.110753
H22   H     H_    0.499206 0.309614 0.270937 0.110754
H23   H     H_    0.507100 0.479478 0.223733 0.146688
H24   H     H_    0.492899 0.520522 0.776267 0.146688
H25   H     H_    0.507221 0.681746 0.016533 0.116507
H26   H     H_    0.492779 0.318254 0.983467 0.116507
H27   H     H_    0.509866 0.613576 0.130174 0.132080
H28   H     H_    0.490134 0.386423 0.869826 0.132080
I1    I     I_    0.005580 0.484031 0.239107 -0.518361
I2    I     I_    0.994420 0.515969 0.760893 -0.518361
H29   H     H_    0.672513 0.990497 0.958427 0.109675
H30   H     H_    0.327487 0.009503 0.041573 0.109675

loop_
_geom_bond_atom_site_label_1
_geom_bond_atom_site_label_2
_ccdc_geom_bond_type
C32   C34   S    
C46   C54   A    
C58   H26   S    
C54   C60   A    
O13   V3    S    
C60   H28   S    
C49   H20   S    
O4    C2    A    
V1    O19   S    
C55   C56   A    
C43   C49   A    
C23   C25   A    
C21   C22   A    
C7    C9    S    
O9    V1    S    
C9    C15   A    
C38   H14   S    
C30   C33   S    
C10   C16   A    
C11   C13   A    
C36   C39   S    
O3    C1    A    
C27   C32   S    
C46   H24   S    
C15   H4    S    
C49   C51   A    
C52   C56   A    
O12   V4    S    
C57   H25   S    
C28   C30   S    
C18   C22   A    
C29   H9    S    
O7    C3    A    
C36   H16   S    
C50   H19   S    
C27   C33   S    
O5    C7    A    
C13   H6    S    
O7    V1    S    
O6    C8    A    
C14   H5    S    
O8    V2    S    
C31   C33   S    
C45   C53   A    
C47   H22   S    
C2    C39   S    
C26   H2    S    
O3    V1    S    
O14   V4    S    
C11   C19   A    
C30   H10   S    
C6    C32   S    
C24   C26   A    
C12   I2    S    
C2    O12   A    
C38   C40   S    
C17   C19   A    
C18   C20   A    
C58   C60   A    
C35   C40   S    
C41   H17   S    
O11   V3    S    
O17   V3    S    
C27   C29   S    
C30   C32   S    
C4    C44   S    
C36   C38   S    
C44   C48   A    
C39   C41   S    
C43   C47   A    
C19   C25   A    
C1    O11   A    
C25   H1    S    
O15   V3    S    
C9    C13   A    
C33   H11   S    
C23   H7    S    
O10   V2    S    
O1    V3    S    
C37   C39   S    
C52   C54   A    
C28   C34   S    
C40   C42   S    
C57   C59   A    
C46   C48   A    
C28   C31   S    
C56   C57   A    
C42   H18   S    
O15   C5    A    
O8    C4    A    
O16   C6    A    
C12   C20   A    
O1    C3    A    
C37   H13   S    
C38   C41   S    
C12   C14   A    
C51   C55   A    
C37   C42   S    
C35   H15   S    
C55   C58   A    
C35   C37   S    
V2    O20   S    
C21   C24   A    
C20   C26   A    
C22   C23   A    
O16   V4    S    
C10   C14   A    
C48   H21   S    
C16   C18   A    
C24   H8    S    
O5    V1    S    
O17   C7    A    
O6    V2    S    
O10   C6    A    
O18   C8    A    
O2    V4    S    
C5    C31   S    
C45   C47   A    
V3    O19   S    
C44   C50   A    
V4    O20   S    
C29   C34   S    
C50   C52   A    
C51   C53   A    
C59   H27   S    
O9    C5    A    
O13   V1    S    
C11   I1    S    
O14   V2    S    
O2    C4    A    
C28   H30   S    
C8    C10   S    
O4    V2    S    
C29   C31   S    
C45   H23   S    
C15   C17   A    
C27   H29   S    
C16   H3    S    
C3    C43   S    
C34   H12   S    
C17   C21   A    
C36   C42   S    
C53   C59   A    
C1    C40   S    
C35   C41   S    
O18   V4    S    
