data_mof_unit_54598.cif
_audit_creation_date              2013-03-05T16:47:42-0500
_audit_creation_method            fapswitch 2.2
_symmetry_space_group_name_H-M    P1
_symmetry_Int_Tables_number       1
_space_group_crystal_system       triclinic
_cell_length_a                    10.863147
_cell_length_b                    12.964292
_cell_length_c                    11.734098
_cell_angle_alpha                 98.767185
_cell_angle_beta                  93.669153
_cell_angle_gamma                 92.167444
_cell_volume                      1627.99470565

loop_
_atom_site_label
_atom_site_type_symbol
_atom_site_description
_atom_site_fract_x
_atom_site_fract_y
_atom_site_fract_z
_atom_type_partial_charge
O1    O     O_R   0.506570 0.354460 0.582000 -0.532996
O2    O     O_R   0.493430 0.645540 0.418000 -0.532658
O3    O     O_R   0.490940 0.341410 0.386200 -0.615037
O4    O     O_R   0.509060 0.658590 0.613800 -0.615179
C1    C     C_R   0.497105 0.299451 0.479334 0.843794
C2    C     C_R   0.502837 0.700549 0.520667 0.844194
O5    O     O_R   0.327460 0.506540 0.597900 -0.559262
O6    O     O_R   0.672540 0.493460 0.402100 -0.559066
O7    O     O_R   0.311830 0.493480 0.402100 -0.595878
O8    O     O_R   0.688170 0.506520 0.597900 -0.596212
C3    C     C_R   0.262499 0.503460 0.500106 0.838450
C4    C     C_R   0.737508 0.496569 0.499894 0.837315
Cu1   Cu    Cu3+1 0.509250 0.507730 0.615930 1.006953
Cu2   Cu    Cu3+1 0.490750 0.492270 0.384070 1.007211
H1    H     H_    0.237385 0.613470 0.010134 0.159706
H2    H     H_    0.762199 0.386131 0.989399 0.159665
C5    C     C_R   0.218462 0.666325 0.190907 -0.199638
C6    C     C_R   0.781972 0.333190 0.808787 -0.201191
H3    H     H_    0.271769 0.738609 0.191241 0.146034
H4    H     H_    0.728779 0.260875 0.808520 0.145238
C7    C     C_R   0.169132 0.643761 0.292838 0.550984
C8    C     C_R   0.831592 0.355820 0.706918 0.550971
C9    C     C_R   0.105205 0.546795 0.292036 0.058043
C10   C     C_R   0.894797 0.453113 0.707837 0.059156
C11   C     C_R   0.085835 0.476689 0.188024 -0.241183
C12   C     C_R   0.913520 0.523346 0.811797 -0.242094
H5    H     H_    0.035342 0.402655 0.185713 0.151310
H6    H     H_    0.963560 0.597591 0.814137 0.151002
C13   C     C_R   0.132904 0.501079 0.086825 -0.142069
C14   C     C_R   0.866392 0.498808 0.912895 -0.142069
H7    H     H_    0.118807 0.446189 0.007296 0.170751
H8    H     H_    0.880005 0.553786 0.992393 0.170773
C15   C     C_R   0.199543 0.595509 0.088350 -0.181308
C16   C     C_R   0.800226 0.404152 0.911287 -0.180387
C17   C     C_R   0.927261 0.510535 0.400653 -0.238690
C18   C     C_R   0.072755 0.489613 0.599359 -0.236617
H9    H     H_    0.871650 0.519602 0.323398 0.205479
H10   H     H_    0.128352 0.480535 0.676621 0.205109
C19   C     C_R   0.871541 0.493659 0.500789 -0.048816
C20   C     C_R   0.128478 0.506459 0.499212 -0.048760
C21   C     C_R   0.945400 0.480633 0.601107 0.035526
C22   C     C_R   0.054623 0.519475 0.398878 0.033999
C23   C     C_R   0.509254 0.813694 0.532163 -0.034794
C24   C     C_R   0.490547 0.186309 0.467859 -0.034172
C25   C     C_R   0.419739 0.018108 0.360225 -0.190047
C26   C     C_R   0.579896 0.981909 0.639862 -0.191243
C27   C     C_R   0.430797 0.126168 0.368794 -0.206112
C28   C     C_R   0.568942 0.873846 0.631251 -0.206245
C29   C     C_R   0.541489 0.138150 0.557252 -0.151152
C30   C     C_R   0.458205 0.861855 0.442808 -0.150047
C31   C     C_R   0.530636 0.030250 0.549654 0.141784
C32   C     C_R   0.469010 0.969762 0.450428 0.141594
H11   H     H_    0.409742 0.815464 0.367638 0.192437
H12   H     H_    0.589950 0.184549 0.632417 0.191224
H13   H     H_    0.609058 0.837193 0.700975 0.149952
H14   H     H_    0.390720 0.162829 0.299059 0.149950
H15   H     H_    0.372441 0.972554 0.283720 0.140943
H16   H     H_    0.627138 0.027464 0.716393 0.140177
N1    N     N_R   0.523180 0.519350 0.790130 -0.236137
N2    N     N_R   0.476820 0.480650 0.209870 -0.236260
C33   C     C_R   0.404470 0.385171 0.024601 -0.267608
C34   C     C_R   0.595458 0.614868 0.975402 -0.267968
C35   C     C_R   0.411150 0.398179 0.145609 0.007085
C36   C     C_R   0.588793 0.601852 0.854393 0.007126
C37   C     C_R   0.536847 0.553622 0.155758 0.513333
C38   C     C_R   0.463145 0.446382 0.844244 0.513208
C39   C     C_R   0.533281 0.542804 0.033173 -0.079116
C40   C     C_R   0.466684 0.457216 0.966829 -0.079186
H17   H     H_    0.636869 0.658049 0.811773 0.142447
H18   H     H_    0.363053 0.341996 0.188231 0.142521
H19   H     H_    0.349902 0.318950 0.977393 0.203035
H20   H     H_    0.649992 0.681109 0.022613 0.203062
N3    N     N_R   0.398213 0.357223 0.777370 0.122903
O9    O     O_R   0.441988 0.265514 0.779641 -0.420849
O10   O     O_R   0.282336 0.362927 0.745357 -0.414744
N4    N     N_R   0.601799 0.642769 0.222635 0.122899
O11   O     O_R   0.557963 0.734472 0.220482 -0.420933
O12   O     O_R   0.717718 0.637086 0.254507 -0.415592
O13   O     O_3   0.190790 0.712220 0.395362 -0.614011
C41   C     C_3   0.118452 0.799673 0.390664 -0.363353
H21   H     H_    0.018505 0.776021 0.373057 0.192339
H22   H     H_    0.149813 0.846853 0.325368 0.156570
H23   H     H_    0.129553 0.850474 0.476106 0.205212
O14   O     O_3   0.811098 0.287347 0.604181 -0.612711
C42   C     C_3   0.877927 0.197163 0.611498 -0.360572
H24   H     H_    0.837390 0.149291 0.672021 0.154787
H25   H     H_    0.977615 0.217177 0.637060 0.190053
H26   H     H_    0.871980 0.148418 0.524794 0.205656

loop_
_geom_bond_atom_site_label_1
_geom_bond_atom_site_label_2
_geom_bond_distance
_ccdc_geom_bond_type
C24   C29   1.395651 A    
C28   H13   1.083341 S    
C38   C40   1.421688 A    
N3    O9    1.300472 A    
C19   C21   1.416999 A    
C42   H24   1.112278 S    
O5    C3    1.302556 A    
C25   H15   1.084009 S    
N1    C36   1.359540 A    
C9    C22   1.485908 S    
C34   C39   1.411571 A    
N2    C35   1.359535 A    
O1    C1    1.298898 A    
C17   H9    1.080888 S    
C10   C12   1.405050 A    
N1    C38   1.383056 A    
C29   H12   1.082484 S    
C13   C15   1.395601 A    
O4    Cu1   1.959837 S    
C33   C35   1.400992 A    
C17   C22   1.385778 A    
C34   C36   1.401000 A    
H2    C16   1.082488 S    
C29   C31   1.388087 A    
C30   C32   1.388120 A    
C23   C28   1.403320 A    
C37   N4    1.428402 S    
C24   C27   1.403326 A    
C33   H19   1.081573 S    
C20   C22   1.417097 A    
Cu1   Cu2   2.691344 S    
C26   H16   1.083989 S    
C10   C21   1.485745 S    
N3    O10   1.298504 A    
C18   C21   1.385690 A    
O2    C2    1.298911 A    
C5    C15   1.396632 A    
C41   H23   1.109367 S    
C25   C27   1.389214 A    
C11   C13   1.396953 A    
C26   C28   1.389154 A    
C30   H11   1.082496 S    
C14   C16   1.395482 A    
C42   H25   1.115111 S    
C31   C32   1.414549 A    
C18   C20   1.397975 A    
N4    O11   1.300484 A    
C41   H22   1.112548 S    
C25   C32   1.398118 A    
C37   C39   1.421681 A    
C38   N3    1.428406 S    
C26   C31   1.398091 A    
C5    C7    1.407184 A    
C39   C40   1.401601 A    
C8    O14   1.383960 S    
C17   C19   1.397946 A    
O7    Cu2   1.968919 S    
O7    C3    1.290434 A    
C35   H18   1.081371 S    
O6    C4    1.302544 A    
C7    O13   1.383049 S    
C34   H20   1.081577 S    
C36   H17   1.081370 S    
O14   C42   1.410037 S    
C6    C16   1.396652 A    
O3    Cu2   1.959836 S    
O8    C4    1.290472 A    
O4    C2    1.292018 A    
C1    C24   1.450992 S    
N2    C37   1.383045 A    
C12   C14   1.396797 A    
C2    C23   1.451014 S    
C7    C9    1.411431 A    
C8    C10   1.411347 A    
O1    Cu1   1.964854 S    
C42   H26   1.109559 S    
O6    Cu2   1.971828 S    
C6    C8    1.408145 A    
N4    O12   1.298513 A    
C41   H21   1.114594 S    
O3    C1    1.292018 A    
O8    Cu1   1.968919 S    
C23   C30   1.395731 A    
Cu1   N1    2.022048 S    
C11   H5    1.083127 S    
Cu2   N2    2.022046 S    
C12   H6    1.083132 S    
C4    C19   1.457350 S    
C18   H10   1.080915 S    
C13   H7    1.082466 S    
C14   H8    1.082476 S    
C33   C40   1.411586 A    
C5    H3    1.082157 S    
C6    H4    1.082010 S    
C9    C11   1.405148 A    
C3    C20   1.457286 S    
O2    Cu2   1.964855 S    
O13   C41   1.409558 S    
O5    Cu1   1.971828 S    
H1    C15   1.082481 S    
C27   H14   1.083342 S    
