data_mof_unit_38382.cif
_audit_creation_date              2013-03-05T15:54:27-0500
_audit_creation_method            fapswitch 2.2
_symmetry_space_group_name_H-M    P1
_symmetry_Int_Tables_number       1
_space_group_crystal_system       triclinic
_cell_length_a                    15.746979
_cell_length_b                    10.704526
_cell_length_c                    10.047576
_cell_angle_alpha                 85.958094
_cell_angle_beta                  91.074948
_cell_angle_gamma                 95.203314
_cell_volume                      1682.35418126

loop_
_atom_site_label
_atom_site_type_symbol
_atom_site_description
_atom_site_fract_x
_atom_site_fract_y
_atom_site_fract_z
_atom_type_partial_charge
O1    O     O_R   0.500000 0.316780 0.614690 -0.667310
O2    O     O_R   0.499990 0.316750 0.385360 -0.574347
C1    C     C_R   0.507869 0.261156 0.505060 0.952382
O3    O     O_R   0.376780 0.500000 0.614650 -0.604025
O4    O     O_R   0.376770 0.499980 0.385310 -0.564545
C2    C     C_R   0.338602 0.500089 0.499166 0.905251
Zn1   Zn    Zn3+2 0.500010 0.500020 0.653130 0.998731
Zn2   Zn    Zn3+2 0.499990 0.499980 0.346870 1.123565
O5    O     O_R   0.500010 0.683250 0.614640 -0.621633
O6    O     O_R   0.500000 0.683220 0.385310 -0.544513
O7    O     O_R   0.623230 0.500020 0.614690 -0.646744
O8    O     O_R   0.623220 0.500000 0.385350 -0.549483
C3    C     C_R   0.494755 0.739933 0.494702 0.898524
C4    C     C_R   0.661531 0.500526 0.501060 0.899765
C5    C     C_3   0.966896 0.387493 0.554736 0.161466
C6    C     C_3   0.022501 0.408661 0.429887 0.293400
C7    C     C_1   0.250112 0.500267 0.498155 0.014144
C8    C     C_1   0.750107 0.499183 0.503409 -0.016843
C9    C     C_3   0.028520 0.479529 0.627482 0.190108
C10   C     C_3   0.084695 0.500429 0.502835 -0.150184
C11   C     C_3   0.977120 0.591498 0.578733 -0.289963
C12   C     C_3   0.915765 0.497424 0.503667 -0.174846
C13   C     C_3   0.033166 0.609933 0.452219 0.196484
C14   C     C_3   0.971743 0.518419 0.378715 0.153690
C15   C     C_1   0.175141 0.500320 0.499772 0.252900
C16   C     C_1   0.825146 0.498001 0.504127 0.211090
H1    H     H_    0.958560 0.666702 0.640050 0.242556
C17   C     C_R   0.493883 0.082104 0.755028 -0.263201
H2    H     H_    0.532543 0.165680 0.781097 0.198983
C18   C     C_R   0.456077 0.001494 0.858028 0.326091
C19   C     C_R   0.403256 0.894419 0.825518 0.497230
C20   C     C_R   0.400742 0.859239 0.694087 0.447165
C21   C     C_R   0.455498 0.927224 0.597631 -0.159910
C22   C     C_R   0.488620 0.048582 0.622359 0.003123
C23   C     C_R   0.521374 0.128195 0.514752 -0.183190
C24   C     C_R   0.547947 0.077926 0.399298 0.202511
C25   C     C_R   0.524942 0.951837 0.379055 0.207601
C26   C     C_R   0.484085 0.874279 0.483607 -0.229288
C27   C     C_R   0.387165 0.312206 0.137750 0.218826
C28   C     C_R   0.351873 0.211101 0.064942 0.332724
C29   C     C_R   0.346682 0.226543 0.926465 0.415167
C30   C     C_R   0.393153 0.327055 0.861935 -0.188430
H3    H     H_    0.389900 0.330237 0.756193 0.249375
C31   C     C_R   0.445905 0.414131 0.930164 -0.026643
C32   C     C_R   0.443681 0.412590 0.074058 -0.029378
N1    N     N_R   0.499210 0.498800 0.142780 -0.170244
C33   C     C_R   0.559874 0.570844 0.067448 0.351359
C34   C     C_R   0.556714 0.576180 0.925502 0.435156
N2    N     N_R   0.499180 0.498720 0.857170 -0.167614
O9    O     O_3   0.046968 0.314408 0.352999 -0.600677
H4    H     H_    0.992982 0.272023 0.319544 0.385353
O10   O     O_3   0.354206 0.821147 0.919054 -0.651190
H5    H     H_    0.355543 0.863507 0.003633 0.408314
O11   O     O_3   0.343701 0.759617 0.662843 -0.664143
H6    H     H_    0.334359 0.764373 0.564853 0.324830
N3    N     N_R   0.538918 0.905445 0.251229 0.267163
O12   O     O_R   0.608759 0.940410 0.186150 -0.235811
O13   O     O_R   0.476056 0.844936 0.190154 -0.328796
N4    N     N_R   0.634755 0.628768 0.129503 0.258031
O14   O     O_R   0.709668 0.616642 0.082105 -0.235718
O15   O     O_R   0.629430 0.698612 0.228458 -0.298900
N5    N     N_R   0.334047 0.332782 0.244973 0.245944
O16   O     O_R   0.330902 0.255489 0.351208 -0.395218
O17   O     O_R   0.268412 0.396063 0.216528 -0.293555
O18   O     O_3   0.310218 0.104982 0.128301 -0.669432
H7    H     H_    0.341034 0.086206 0.213180 0.386774
O19   O     O_3   0.298228 0.144024 0.849513 -0.706502
H8    H     H_    0.266396 0.078147 0.907738 0.412750
O20   O     O_3   0.615535 0.660478 0.859759 -0.689227
H9    H     H_    0.609852 0.651345 0.763772 0.386471
N6    N     N_R   0.932719 0.264576 0.611439 0.263139
O21   O     O_R   0.984391 0.180759 0.650285 -0.248128
O22   O     O_R   0.850883 0.237612 0.622863 -0.313506
N7    N     N_R   0.943365 0.539525 0.240860 0.264789
O23   O     O_R   0.999157 0.558320 0.146135 -0.220670
O24   O     O_R   0.862547 0.535964 0.211237 -0.270518
N8    N     N_R   0.067643 0.732301 0.394372 0.272642
O25   O     O_R   0.016173 0.816368 0.355442 -0.251907
O26   O     O_R   0.149488 0.758670 0.382176 -0.326212
N9    N     N_R   0.057964 0.456575 0.764643 0.273822
O27   O     O_R   0.002997 0.439769 0.860633 -0.233587
O28   O     O_R   0.138745 0.452547 0.792045 -0.298160
N10   N     N_R   0.602303 0.154935 0.307063 0.259862
O29   O     O_R   0.573959 0.188685 0.188956 -0.378766
O30   O     O_R   0.673548 0.210357 0.349888 -0.328679
O31   O     O_3   0.468218 0.027363 0.989474 -0.700505
H10   H     H_    0.507269 0.104778 0.993260 0.372890

loop_
_geom_bond_atom_site_label_1
_geom_bond_atom_site_label_2
_geom_bond_distance
_ccdc_geom_bond_type
C31   N2    1.361349 A    
C29   C30   1.374828 A    
C4    C8    1.395922 S    
C23   C24   1.399060 A    
C8    C16   1.182746 T    
C19   O10   1.381470 S    
C29   O19   1.382807 S    
N8    O25   1.300199 A    
O10   H5    0.990027 S    
C5    C9    1.532323 S    
N5    O16   1.302467 A    
N7    O24   1.299329 A    
N10   O29   1.298801 A    
C17   H2    1.080675 S    
C9    C11   1.552391 S    
C6    O9    1.398121 S    
C18   C19   1.407821 A    
O7    C4    1.300634 A    
C10   C15   1.425274 S    
C24   N10   1.437048 S    
C5    C6    1.535187 S    
N3    O12   1.301924 A    
C22   C23   1.404491 A    
C2    C7    1.393474 S    
O5    C3    1.315113 A    
N5    O17   1.302848 A    
N1    C33   1.375290 A    
C25   N3    1.436985 S    
C5    C12   1.538693 S    
C33   C34   1.423439 A    
C13   C14   1.530998 S    
C18   O31   1.374772 S    
C34   O20   1.376901 S    
C6    C10   1.536694 S    
C27   C32   1.451627 A    
C11   H1    1.110137 S    
C17   C22   1.403717 A    
N4    O14   1.301067 A    
C6    C14   1.534075 S    
C11   C12   1.555532 S    
C9    N9    1.457247 S    
C30   C31   1.398968 A    
O3    Zn1   1.971501 S    
C20   O11   1.380374 S    
C21   C22   1.392529 A    
N8    O26   1.300302 A    
N4    O15   1.293771 A    
N7    O23   1.300185 A    
O19   H8    0.989709 S    
Zn1   N2    2.049453 S    
N9    O28   1.300353 A    
C27   C28   1.415127 A    
N6    O22   1.300223 A    
O31   H10   0.988665 S    
C32   N1    1.419095 A    
O1    C1    1.301609 A    
Zn1   O7    1.985503 S    
C25   C26   1.418546 A    
C19   C20   1.397394 A    
C10   C13   1.537548 S    
C1    C23   1.454312 S    
Zn2   O8    1.971501 S    
O9    H4    0.991130 S    
C13   N8    1.457353 S    
C3    C26   1.459225 S    
O3    C2    1.296753 A    
C28   C29   1.391283 A    
N10   O30   1.301124 A    
O8    C4    1.299851 A    
C28   O18   1.380024 S    
C11   C13   1.552046 S    
C12   C14   1.539325 S    
C30   H3    1.061011 S    
C31   C32   1.445754 A    
Zn1   O5    1.972226 S    
C27   N5    1.417559 S    
O11   H6    0.991194 S    
C24   C25   1.393415 A    
O1    Zn1   2.025681 S    
O2    Zn2   1.972228 S    
N9    O27   1.300152 A    
O6    C3    1.300007 A    
O4    Zn2   1.985501 S    
C5    N6    1.457003 S    
C21   C26   1.411942 A    
C7    C15   1.181029 T    
C20   C21   1.424935 A    
C9    C10   1.538573 S    
C17   C18   1.405008 A    
O2    C1    1.312604 A    
N6    O21   1.300213 A    
C14   N7    1.456099 S    
O4    C2    1.302323 A    
C34   N2    1.378546 A    
N3    O13   1.301124 A    
O20   H9    0.977833 S    
Zn2   N1    2.051337 S    
C33   N4    1.434544 S    
Zn2   O6    2.025680 S    
O18   H7    0.990549 S    
C12   C16   1.427640 S    
