data_mof_unit_36011.cif
_audit_creation_date              2012-12-11T15:44:56-0500
_audit_creation_method            fapswitch 2.2
_symmetry_space_group_name_H-M    P1
_symmetry_Int_Tables_number       1
_space_group_crystal_system       triclinic
_cell_length_a                    19.467168
_cell_length_b                    11.079465
_cell_length_c                    18.665005
_cell_angle_alpha                 90.152445
_cell_angle_beta                  89.811575
_cell_angle_gamma                 90.044284
_cell_volume                      4025.73946237

loop_
_atom_site_label
_atom_site_type_symbol
_atom_type_description
_atom_site_fract_x
_atom_site_fract_y
_atom_site_fract_z
_atom_type_partial_charge
C1    C     C_R   0.761065 0.536808 0.648343 0.587175
C2    C     C_R   0.181519 0.127259 0.561410 0.215839
C3    C     C_R   0.453053 0.919894 0.973121 -0.012811
C4    C     C_R   0.034217 0.246712 0.951987 0.243805
C5    C     C_R   0.036713 0.236655 0.026786 0.253005
C6    C     C_R   0.527213 0.747637 0.955628 0.249015
C7    C     C_R   0.529668 0.734848 0.029987 0.258139
C8    C     C_3   0.927295 0.509502 0.053060 -0.282154
C9    C     C_3   0.920354 0.517526 0.972645 -0.236922
C10   C     C_3   0.449093 0.044584 0.056337 -0.252140
C11   C     C_3   0.447016 0.054169 0.975324 -0.230836
C12   C     C_R   0.760146 0.532261 0.851622 0.517129
C13   C     C_R   0.318475 0.627966 0.438630 0.214855
C14   C     C_R   0.237732 0.528598 0.146744 0.552819
C15   C     C_R   0.260152 0.032348 0.851521 0.519700
C16   C     C_R   0.737685 0.028392 0.146697 0.558676
C17   C     C_R   0.773306 0.126364 0.852506 0.559917
C18   C     C_R   0.227033 0.128674 0.146763 0.576299
C19   C     C_R   0.273135 0.625746 0.852341 0.560145
C20   C     C_R   0.727290 0.627967 0.146976 0.580981
C21   C     C_R   0.970762 0.347850 0.852214 0.528739
C22   C     C_R   0.032519 0.345421 0.145288 0.573945
C23   C     C_R   0.469485 0.847781 0.853166 0.534103
C24   C     C_R   0.681291 0.625733 0.561289 0.215174
C25   C     C_R   0.530788 0.845083 0.146371 0.588525
C26   C     C_R   0.751944 0.111561 0.414048 0.050850
C27   C     C_R   0.248255 0.111597 0.585922 0.047471
C28   C     C_R   0.251725 0.611625 0.414220 0.047625
C29   C     C_R   0.748025 0.611533 0.586089 0.050483
C30   C     C_R   0.697611 0.148884 0.457443 -0.049580
C31   C     C_R   0.302587 0.149072 0.542478 -0.046041
C32   C     C_R   0.197347 0.648416 0.457819 -0.045518
C33   C     C_R   0.802311 0.649490 0.542837 -0.050309
C34   C     C_R   0.711141 0.174126 0.530493 0.021833
C35   C     C_3   0.662352 0.267681 0.445797 0.155615
C36   C     C_R   0.289012 0.173287 0.469346 0.031688
C37   C     C_R   0.210968 0.672799 0.530965 0.032763
C38   C     C_R   0.788806 0.674617 0.469814 0.020796
C39   C     C_3   0.337404 0.268934 0.553513 0.154563
C40   C     C_3   0.162103 0.767719 0.447072 0.153597
C41   C     C_3   0.837189 0.768811 0.554770 0.156700
C42   C     C_3   0.685003 0.300560 0.520370 0.335977
C43   C     C_3   0.315226 0.299897 0.478486 0.336733
C44   C     C_3   0.184476 0.799172 0.522044 0.337020
C45   C     C_R   0.238900 0.536850 0.351728 0.587221
C46   C     C_3   0.814674 0.801278 0.480177 0.335389
C47   C     C_R   0.775345 0.146623 0.560718 0.005365
C48   C     C_R   0.224718 0.146023 0.439268 0.003848
C49   C     C_R   0.275394 0.646134 0.560825 0.004291
C50   C     C_R   0.724728 0.646565 0.439381 0.005279
C51   C     C_R   0.991600 0.326039 0.421663 0.030918
C52   C     C_R   0.999304 0.332454 0.572687 0.020324
C53   C     C_R   0.500788 0.832575 0.427283 0.022556
C54   C     C_R   0.508493 0.826051 0.578279 0.029301
C55   C     C_R   0.001967 0.101537 0.425343 -0.030606
C56   C     C_R   0.261097 0.036856 0.648307 0.586356
C57   C     C_R   0.999281 0.107000 0.573788 -0.031842
C58   C     C_R   0.500723 0.606920 0.425502 -0.031350
C59   C     C_R   0.498094 0.601583 0.573925 -0.030958
C60   C     C_R   0.004102 0.995205 0.464126 -0.118571
C61   C     C_R   0.998361 0.998163 0.537839 -0.119618
C62   C     C_R   0.501654 0.498048 0.461131 -0.120396
C63   C     C_R   0.496004 0.495197 0.534840 -0.117956
C64   C     C_R   0.998971 0.218664 0.536581 -0.012179
C65   C     C_R   0.997860 0.215636 0.460239 -0.002159
C66   C     C_R   0.502303 0.715655 0.539369 -0.004110
C67   C     C_R   0.738929 0.036800 0.351691 0.587182
C68   C     C_R   0.501178 0.718688 0.463041 -0.010212
C69   C     C_R   0.000641 0.438046 0.530687 0.000002
C70   C     C_R   0.977074 0.430984 0.459926 -0.001205
C71   C     C_R   0.523009 0.931141 0.540331 -0.001436
C72   C     C_R   0.499463 0.938181 0.469584 0.000208
C73   C     C_R   0.789216 0.166481 0.637858 0.574501
C74   C     C_R   0.210842 0.166423 0.362230 0.574849
C75   C     C_R   0.289273 0.666500 0.637872 0.573549
C76   C     C_R   0.710880 0.666444 0.362242 0.575080
C77   C     C_R   0.021928 0.551127 0.557296 0.277001
C78   C     C_R   0.829892 0.130975 0.512831 -0.071188
C79   C     C_R   0.954575 0.535452 0.424737 0.278368
C80   C     C_R   0.545344 0.035771 0.575884 0.278774
C81   C     C_R   0.478041 0.051200 0.443360 0.276362
C82   C     C_R   0.008698 0.653999 0.516575 -0.186016
C83   C     C_R   0.977109 0.645963 0.450407 -0.154097
C84   C     C_R   0.522372 0.146134 0.550792 -0.152543
C85   C     C_R   0.490836 0.154104 0.484615 -0.186772
C86   C     C_R   0.743847 0.076297 0.074780 0.017559
C87   C     C_R   0.250877 0.067600 0.925520 0.042576
C88   C     C_R   0.244088 0.576655 0.074844 0.010756
C89   C     C_R   0.170091 0.132842 0.487397 -0.069265
C90   C     C_R   0.750745 0.567653 0.925704 0.040922
C91   C     C_R   0.808345 0.098306 0.045746 -0.039450
C92   C     C_R   0.232334 0.974190 0.971814 0.002850
C93   C     C_R   0.308856 0.593823 0.045114 -0.031314
C94   C     C_R   0.729300 0.475296 0.971567 -0.003062
C95   C     C_R   0.816477 0.109886 0.973225 0.002621
C96   C     C_R   0.232499 0.986913 0.044828 -0.006783
C97   C     C_R   0.316680 0.604076 0.972515 0.014631
C98   C     C_R   0.730146 0.486167 0.044536 -0.010790
C99   C     C_R   0.695120 0.086406 0.954148 -0.104937
C100  C     C_R   0.329998 0.633682 0.512617 -0.070587
C101  C     C_R   0.272469 0.191541 0.029669 -0.088360
C102  C     C_R   0.194801 0.587186 0.954428 -0.103666
C103  C     C_R   0.778016 0.685619 0.031084 -0.079599
C104  C     C_R   0.685588 0.079974 0.028150 0.201290
C105  C     C_R   0.274104 0.177614 0.955034 0.197160
C106  C     C_R   0.185528 0.583662 0.028628 0.197079
C107  C     C_R   0.779197 0.673151 0.956300 0.205812
C108  C     C_3   0.875542 0.035128 0.054349 -0.264417
C109  C     C_3   0.168756 0.899112 0.973274 -0.226128
C110  C     C_3   0.374901 0.526511 0.053342 -0.266529
C111  C     C_R   0.670162 0.630287 0.487191 -0.069628
C112  C     C_3   0.665354 0.401130 0.972474 -0.228539
C113  C     C_3   0.884055 0.046273 0.973984 -0.227334
C114  C     C_3   0.172204 0.905164 0.054240 -0.249252
C115  C     C_3   0.382875 0.535965 0.972866 -0.234457
C116  C     C_3   0.669158 0.405710 0.053624 -0.250745
C117  C     C_R   0.761124 0.097285 0.926327 0.003027
C118  C     C_R   0.247559 0.098289 0.074642 -0.007224
C119  C     C_R   0.260796 0.594799 0.926022 0.004339
C120  C     C_R   0.748639 0.595299 0.075323 -0.004432
C121  C     C_R   0.971227 0.344918 0.646562 0.573526
C122  C     C_R   0.818688 0.126311 0.438766 0.214273
C123  C     C_R   0.027303 0.343650 0.351927 0.575967
C124  C     C_R   0.472706 0.843584 0.648043 0.576036
C125  C     C_R   0.528791 0.845015 0.353428 0.573677
C126  C     C_R   0.012105 0.333116 0.071284 -0.033586
C127  C     C_R   0.001298 0.347625 0.922341 -0.042241
C128  C     C_R   0.501809 0.826729 0.075765 -0.011261
C129  C     C_R   0.489936 0.844331 0.926850 -0.020020
C130  C     C_R   0.990701 0.438301 0.039099 0.052100
C131  C     C_R   0.985204 0.445655 0.966704 0.015903
C132  C     C_R   0.458195 0.911641 0.045900 -0.035615
Cr1   Cr    Cr6+3 0.885860 0.491680 0.749630 1.046718
Cr2   Cr    Cr6+3 0.112430 0.179310 0.249850 1.021508
Cr3   Cr    Cr6+3 0.387570 0.679310 0.750150 1.031760
Cr4   Cr    Cr6+3 0.612430 0.679310 0.249850 1.021602
Cr5   Cr    Cr6+3 0.114140 0.491680 0.250370 1.045592
Cr6   Cr    Cr6+3 0.385860 0.991680 0.749630 1.042187
Cr7   Cr    Cr6+3 0.614140 0.991680 0.250370 1.043447
Cr8   Cr    Cr6+3 0.730490 0.332970 0.748720 1.008261
Cr9   Cr    Cr6+3 0.269510 0.332970 0.251280 1.005570
Cr10  Cr    Cr6+3 0.230490 0.832970 0.748720 1.018152
Cr11  Cr    Cr6+3 0.769510 0.832970 0.251280 1.002075
Cr12  Cr    Cr6+3 0.887570 0.179310 0.750150 1.031526
H1    H     H_    0.880363 0.127731 0.533092 0.149763
H2    H     H_    0.284886 0.279280 0.051697 0.156338
H3    H     H_    0.150487 0.589358 0.919432 0.147113
H4    H     H_    0.794339 0.770969 0.053673 0.155697
H5    H     H_    0.871030 0.939790 0.071879 0.164245
H6    H     H_    0.177596 0.809264 0.950336 0.148653
H7    H     H_    0.368806 0.431718 0.071334 0.162249
H8    H     H_    0.673552 0.310986 0.949225 0.145383
H9    H     H_    0.912394 0.090907 0.085286 0.122023
H10   H     H_    0.123581 0.947141 0.950889 0.220236
H11   H     H_    0.413377 0.580102 0.083512 0.122720
H12   H     H_    0.119420 0.134554 0.467523 0.149047
H13   H     H_    0.620408 0.450428 0.950574 0.216715
H14   H     H_    0.926464 0.106547 0.957850 0.177174
H15   H     H_    0.126348 0.946891 0.078935 0.208746
H16   H     H_    0.426605 0.592623 0.955906 0.172044
H17   H     H_    0.623823 0.447999 0.078903 0.201908
H18   H     H_    0.882850 0.958083 0.945548 0.205782
H19   H     H_    0.187913 0.819151 0.079491 0.117788
H20   H     H_    0.379517 0.447554 0.944947 0.204307
H21   H     H_    0.684057 0.318516 0.078062 0.115905
H22   H     H_    0.938498 0.597888 0.078829 0.160525
H23   H     H_    0.380671 0.636066 0.532445 0.147934
H24   H     H_    0.875537 0.466438 0.951992 0.143309
H25   H     H_    0.493511 0.091979 0.080149 0.192259
H26   H     H_    0.397252 0.085566 0.954289 0.169781
H27   H     H_    0.886047 0.455394 0.079026 0.126348
H28   H     H_    0.926558 0.610748 0.951696 0.184961
H29   H     H_    0.399064 0.066071 0.082158 0.131906
H30   H     H_    0.492846 0.100099 0.952283 0.167256
H31   H     H_    0.106154 0.756452 0.440165 0.148531
H32   H     H_    0.893350 0.758014 0.561153 0.153526
H33   H     H_    0.606215 0.256160 0.439557 0.152832
H34   H     H_    0.619691 0.626547 0.466883 0.150842
H35   H     H_    0.393368 0.258455 0.560636 0.148894
H36   H     H_    0.007709 0.910374 0.436254 0.116267
H37   H     H_    0.995488 0.916619 0.568786 0.116980
H38   H     H_    0.504268 0.416286 0.430013 0.115779
H39   H     H_    0.492376 0.410370 0.562461 0.116795
H40   H     H_    0.998096 0.090315 0.368118 0.177555
H41   H     H_    0.004732 0.098777 0.630903 0.185861
H42   H     H_    0.495062 0.598650 0.368380 0.182648
H43   H     H_    0.501806 0.590450 0.631129 0.180578
H44   H     H_    0.612881 0.135759 0.087948 0.324971
H45   H     H_    0.022927 0.740553 0.535502 0.128167
H46   H     H_    0.284884 0.257919 0.862956 0.338504
H47   H     H_    0.115049 0.644875 0.090505 0.333970
H48   H     H_    0.792014 0.755864 0.865322 0.341084
H49   H     H_    0.064471 0.180642 0.860671 0.324590
H50   H     H_    0.031026 0.102399 0.091058 0.314412
H51   H     H_    0.566847 0.696055 0.864494 0.323009
H52   H     H_    0.534658 0.598193 0.091651 0.309339
H53   H     H_    0.855372 0.153495 0.343302 0.327970
H54   H     H_    0.145690 0.155684 0.657250 0.325743
H55   H     H_    0.354089 0.656458 0.342792 0.325308
H56   H     H_    0.974575 0.723710 0.416514 0.124606
H57   H     H_    0.644468 0.652597 0.656831 0.329094
H58   H     H_    0.739998 0.335957 0.389301 0.335071
H59   H     H_    0.259197 0.336431 0.609653 0.331609
H60   H     H_    0.239859 0.835996 0.390680 0.331875
H61   H     H_    0.759169 0.836354 0.611112 0.335041
H62   H     H_    0.779054 0.359929 0.498698 0.306897
H63   H     H_    0.221349 0.360336 0.500115 0.307020
H64   H     H_    0.278178 0.860188 0.500098 0.306974
H65   H     H_    0.720480 0.860091 0.501637 0.307040
H66   H     H_    0.618211 0.421182 0.563879 0.305700
H67   H     H_    0.524691 0.223844 0.585049 0.125492
H68   H     H_    0.638947 0.308596 0.619837 0.266737
H69   H     H_    0.380744 0.419745 0.432783 0.302863
H70   H     H_    0.360791 0.304865 0.378679 0.270070
H71   H     H_    0.118812 0.918810 0.568033 0.303300
H72   H     H_    0.139117 0.804388 0.621995 0.271411
H73   H     H_    0.881412 0.922110 0.437065 0.305332
H74   H     H_    0.860853 0.809302 0.380815 0.266147
H75   H     H_    0.906906 0.607863 0.344013 0.325261
H76   H     H_    0.064135 0.642957 0.634294 0.326345
H77   H     H_    0.435619 0.142921 0.366778 0.324293
H78   H     H_    0.476444 0.240699 0.466062 0.127823
H79   H     H_    0.592828 0.108406 0.656920 0.326370
H80   H     H_    0.651013 0.085921 0.918836 0.139699
N1    N     N_3   0.627488 0.329335 0.566854 -0.648912
N2    N     N_3   0.372642 0.327265 0.431355 -0.655852
N3    N     N_3   0.127150 0.826421 0.569373 -0.654384
N4    N     N_3   0.872241 0.830208 0.433863 -0.649912
O1    O     O_R   0.957020 0.451640 0.669920 -0.459869
O2    O     O_R   0.168040 0.093290 0.169870 -0.488694
O3    O     O_R   0.331960 0.593290 0.830130 -0.496449
O4    O     O_R   0.668040 0.593290 0.169870 -0.487784
O5    O     O_R   0.945600 0.250580 0.824860 -0.502753
O6    O     O_R   0.054400 0.250580 0.175140 -0.506934
O7    O     O_R   0.445600 0.750580 0.824860 -0.502884
O8    O     O_R   0.554400 0.750580 0.175140 -0.502613
O9    O     O_3   0.834640 0.334650 0.749500 -0.290599
O10   O     O_3   0.165360 0.334650 0.250500 -0.284925
O11   O     O_3   0.334640 0.834650 0.749500 -0.289077
O12   O     O_R   0.042980 0.451640 0.330080 -0.475138
O13   O     O_3   0.665360 0.834650 0.250500 -0.283149
O14   O     O_R   0.821450 0.543440 0.674610 -0.502859
O15   O     O_R   0.178550 0.543440 0.325390 -0.505550
O16   O     O_R   0.321450 0.043440 0.674610 -0.503427
O17   O     O_R   0.678550 0.043440 0.325390 -0.506070
O18   O     O_R   0.715320 0.458650 0.668100 -0.498304
O19   O     O_R   0.284680 0.458650 0.331900 -0.499072
O20   O     O_R   0.215320 0.958650 0.668100 -0.498039
O21   O     O_R   0.784680 0.958650 0.331900 -0.499502
O22   O     O_R   0.737170 0.209590 0.674530 -0.502375
O23   O     O_R   0.457020 0.951640 0.669920 -0.471678
O24   O     O_R   0.262830 0.209590 0.325470 -0.495842
O25   O     O_R   0.237170 0.709590 0.674530 -0.495414
O26   O     O_R   0.762830 0.709590 0.325470 -0.503430
O27   O     O_R   0.832710 0.092740 0.669580 -0.465276
O28   O     O_R   0.167290 0.092740 0.330420 -0.472918
O29   O     O_R   0.332710 0.592740 0.669580 -0.467766
O30   O     O_R   0.667290 0.592740 0.330420 -0.471828
O31   O     O_R   0.946290 0.250060 0.676040 -0.556005
O32   O     O_R   0.053710 0.250060 0.323960 -0.556595
O33   O     O_R   0.446290 0.750060 0.676040 -0.554168
O34   O     O_R   0.542980 0.951640 0.330080 -0.464253
O35   O     O_R   0.553710 0.750060 0.323960 -0.559225
O36   O     O_R   0.956270 0.452200 0.830470 -0.505519
O37   O     O_R   0.043730 0.452200 0.169530 -0.481602
O38   O     O_R   0.456270 0.952200 0.830470 -0.508887
O39   O     O_R   0.543730 0.952200 0.169530 -0.496226
O40   O     O_R   0.820760 0.543950 0.823440 -0.509123
O41   O     O_R   0.179240 0.543950 0.176560 -0.496562
O42   O     O_R   0.320760 0.043950 0.823440 -0.508228
O43   O     O_R   0.679240 0.043950 0.176560 -0.495397
O44   O     O_R   0.714570 0.459210 0.828640 -0.515717
O45   O     O_R   0.736470 0.210100 0.823360 -0.512262
O46   O     O_R   0.285430 0.459210 0.171360 -0.538817
O47   O     O_R   0.214570 0.959210 0.828640 -0.516423
O48   O     O_R   0.785430 0.959210 0.171360 -0.538448
O49   O     O_3   0.619264 0.070293 0.052292 -0.698928
O50   O     O_3   0.295082 0.274333 0.913967 -0.725419
O51   O     O_3   0.118976 0.581467 0.053235 -0.683182
O52   O     O_3   0.804688 0.767655 0.916166 -0.723232
O53   O     O_3   0.059071 0.152643 0.910735 -0.678854
O54   O     O_3   0.063365 0.131751 0.053981 -0.663033
O55   O     O_3   0.561618 0.664106 0.913698 -0.679475
O56   O     O_R   0.263530 0.210100 0.176640 -0.518625
O57   O     O_3   0.564935 0.637156 0.055739 -0.656367
O58   O     O_3   0.872663 0.132399 0.391610 -0.741408
O59   O     O_3   0.127881 0.136650 0.608781 -0.742984
O60   O     O_3   0.372024 0.637883 0.391206 -0.743402
O61   O     O_3   0.627257 0.631687 0.608394 -0.741071
O62   O     O_3   0.689238 0.341317 0.390680 -0.668759
O63   O     O_3   0.309871 0.343674 0.607951 -0.667187
O64   O     O_3   0.189173 0.842641 0.392663 -0.670091
O65   O     O_3   0.809919 0.842260 0.609961 -0.665038
O66   O     O_3   0.736851 0.388945 0.523034 -0.686378
O67   O     O_R   0.236470 0.710100 0.823360 -0.510289
O68   O     O_3   0.263449 0.388194 0.475175 -0.685893
O69   O     O_3   0.236122 0.887852 0.525234 -0.685847
O70   O     O_3   0.762701 0.889298 0.477456 -0.686373
O71   O     O_3   0.917467 0.525785 0.361898 -0.677167
O72   O     O_3   0.060759 0.557561 0.619035 -0.666192
O73   O     O_3   0.439359 0.057468 0.381539 -0.668296
O74   O     O_3   0.582526 0.026281 0.638647 -0.675225
O75   O     O_R   0.763530 0.710100 0.176640 -0.518188
O76   O     O_R   0.831960 0.093290 0.830130 -0.494883

loop_
_geom_bond_atom_site_label_1
_geom_bond_atom_site_label_2
_ccdc_geom_bond_type
Cr1   O36   S    
C58   C62   A    
C58   H42   S    
C51   C123  S    
C34   C42   S    
C56   O20   A    
Cr10  O25   S    
Cr12  O5    S    
C90   C107  A    
C124  O23   A    
C59   C66   A    
C92   C109  S    
C35   O62   S    
C29   C33   A    
C35   C42   S    
H69   N2    S    
C22   O6    A    
C108  H9    S    
C103  C120  A    
Cr11  O26   S    
C5    C126  A    
C7    C128  A    
C97   C115  S    
H46   O50   S    
C85   H78   S    
C45   O15   A    
C57   H41   S    
C24   O61   S    
H75   O71   S    
C93   C110  S    
C98   C120  A    
Cr2   O10   S    
C96   C114  S    
H74   N4    S    
C25   O39   A    
C9    C131  S    
Cr10  O11   S    
C101  H2    S    
Cr12  O27   S    
C63   H39   S    
C27   C31   A    
H72   N3    S    
C48   C74   S    
C28   C32   A    
C18   O2    A    
Cr5   O41   S    
C108  C113  S    
C50   C76   S    
C1    C29   S    
C15   O47   A    
C109  H10   S    
H68   N1    S    
C67   O21   A    
C41   H32   S    
Cr11  O48   S    
H60   O64   S    
Cr7   O17   S    
C20   C120  S    
C16   O43   A    
Cr6   O42   S    
Cr7   O39   S    
H49   O53   S    
Cr11  O21   S    
C4    C127  A    
C70   C79   A    
C3    C129  A    
C46   O70   S    
C4    C5    A    
C81   O73   S    
C17   O45   A    
C57   C61   A    
C6    C7    A    
C59   C63   A    
C33   C38   A    
C115  H16   S    
C37   C44   S    
C130  C131  A    
C14   C88   S    
C76   O30   A    
C77   C82   A    
C69   C70   A    
C44   N3    S    
C127  C131  A    
H62   O66   S    
C3    C11   S    
H73   N4    S    
Cr5   O15   S    
H58   O62   S    
C94   C98   A    
C31   C36   A    
C103  C107  A    
Cr10  O47   S    
C102  C119  A    
C2    O59   S    
C41   O65   S    
C69   C77   A    
C86   C104  A    
C14   O41   A    
C95   C117  A    
C10   H25   S    
C19   O67   A    
Cr4   O13   S    
Cr8   O18   S    
C101  C118  A    
C12   C90   S    
C25   C128  S    
Cr1   O14   S    
C92   C96   A    
C53   C68   A    
C110  H11   S    
C42   O66   S    
C55   H40   S    
C49   C75   S    
C59   H43   S    
C76   O26   A    
C8    H27   S    
C23   O7    A    
C56   O16   A    
Cr4   O35   S    
C105  O50   S    
Cr1   O9    S    
C107  O52   S    
C121  O1    A    
C30   C34   A    
C5    O54   S    
C116  H17   S    
Cr8   O22   S    
C79   O71   S    
Cr8   O45   S    
C97   C119  A    
C12   O40   A    
Cr9   O56   S    
C102  H3    S    
C99   C117  A    
C14   O46   A    
C87   C105  A    
C17   O76   A    
Cr11  O13   S    
Cr2   O6    S    
Cr6   O11   S    
C32   C37   A    
C53   C125  S    
C109  C114  S    
H79   O74   S    
C26   C30   A    
C82   H45   S    
C93   C97   A    
C112  C116  S    
C18   C118  S    
C11   H30   S    
C9    H24   S    
C75   O25   A    
C104  O49   S    
C39   H35   S    
C54   C66   A    
C109  H6    S    
C71   C72   A    
C67   O17   A    
C124  O33   A    
H76   O72   S    
Cr4   O8    S    
H77   O73   S    
C50   C111  A    
Cr9   O19   S    
C36   C48   A    
H71   N3    S    
Cr2   O2    S    
Cr7   O13   S    
C10   C132  S    
C38   C46   S    
C10   C11   S    
C91   C95   A    
C40   C44   S    
H50   O54   S    
C106  O51   S    
C47   C78   A    
C83   H56   S    
C43   O68   S    
C81   C85   A    
C35   H33   S    
Cr9   O10   S    
C6    O55   S    
C80   C84   A    
H53   O58   S    
C80   O74   S    
H55   O60   S    
C57   C64   A    
C100  H23   S    
C123  O12   A    
C86   C91   A    
C126  C130  A    
C23   C129  S    
H59   O63   S    
C51   C65   A    
Cr12  O31   S    
C24   C29   A    
C52   C69   A    
C55   C65   A    
C99   H80   S    
C21   O5    A    
C54   C71   A    
C75   O29   A    
C25   O8    A    
C112  H8    S    
C13   C28   A    
C2    C27   A    
C15   O42   A    
C72   C81   A    
C43   N2    S    
C17   C117  S    
C10   H29   S    
C99   C104  A    
C9    H28   S    
C19   C119  S    
Cr3   O3    S    
C55   C60   A    
C16   C86   S    
H64   O69   S    
C90   C94   A    
H44   O49   S    
Cr3   O29   S    
C112  H13   S    
C84   H67   S    
C3    C132  A    
C84   C85   A    
C47   C73   S    
C110  H7    S    
C52   C64   A    
C27   C56   S    
C89   H12   S    
Cr10  O67   S    
C39   O63   S    
C60   C61   A    
C2    C89   A    
C62   C63   A    
C7    O57   S    
C62   H38   S    
C37   C49   A    
C52   C121  S    
C21   O36   A    
C125  O35   A    
H65   O70   S    
H47   O51   S    
C121  O31   A    
C58   C68   A    
C8    C130  S    
C125  O34   A    
Cr3   O7    S    
C116  H21   S    
C16   O48   A    
Cr6   O16   S    
H54   O59   S    
C54   C124  S    
C91   C108  S    
C12   O44   A    
C74   O24   A    
C123  O32   A    
C60   H36   S    
C61   H37   S    
C33   C41   S    
C64   C65   A    
Cr2   O28   S    
C79   C83   A    
C22   O37   A    
Cr5   O12   S    
Cr12  O9    S    
C40   O64   S    
Cr1   O1    S    
C18   O56   A    
C11   H26   S    
C82   C83   A    
Cr9   O24   S    
C46   N4    S    
C44   O69   S    
C36   C43   S    
C34   C47   A    
C26   C122  A    
C53   C72   A    
C110  C115  S    
C66   C68   A    
C20   O4    A    
C45   O19   A    
Cr4   O4    S    
C30   C35   S    
C26   C67   S    
C96   C118  A    
C1    O18   A    
C22   C126  S    
Cr5   O10   S    
H51   O55   S    
C94   C112  S    
C115  H20   S    
Cr8   O9    S    
C78   H1    S    
C113  H18   S    
C73   O27   A    
Cr5   O37   S    
Cr3   O11   S    
C8    C9    S    
C111  H34   S    
C41   C46   S    
C51   C70   A    
H63   O68   S    
C21   C127  S    
Cr11  O75   S    
Cr12  O76   S    
C24   C111  A    
Cr9   O46   S    
C6    C129  A    
H70   N2    S    
C128  C132  A    
C71   C80   A    
C103  H4    S    
C101  C105  A    
C28   C45   S    
C20   O75   A    
Cr6   O23   S    
C1    O14   A    
C39   C43   S    
Cr6   O38   S    
Cr7   O43   S    
Cr8   O44   S    
C88   C106  A    
C13   O60   S    
C98   C116  S    
C4    O53   S    
C8    H22   S    
H48   O52   S    
C77   O72   S    
Cr3   O33   S    
Cr10  O20   S    
C48   C89   A    
Cr4   O30   S    
C113  H14   S    
H66   N1    S    
H61   O65   S    
H52   O57   S    
C87   C92   A    
Cr1   O40   S    
C15   C87   S    
C73   O22   A    
C42   N1    S    
C88   C93   A    
H57   O61   S    
C40   H31   S    
C38   C50   A    
C23   O38   A    
C13   C100  A    
C122  O58   S    
C49   C100  A    
C114  H19   S    
C95   C113  S    
C31   C39   S    
C102  C106  A    
C32   C40   S    
C78   C122  A    
C114  H15   S    
C108  H5    S    
Cr2   O32   S    
Cr7   O34   S    
C19   O3    A    
C74   O28   A    
