data_mof_unit_44964.cif
_audit_creation_date              2012-12-10T18:33:42-0500
_audit_creation_method            fapswitch 2.2
_symmetry_space_group_name_H-M    P1
_symmetry_Int_Tables_number       1
_space_group_crystal_system       triclinic
_cell_length_a                    10.515713
_cell_length_b                    15.028094
_cell_length_c                    15.460854
_cell_angle_alpha                 81.425792
_cell_angle_beta                  89.911668
_cell_angle_gamma                 104.962096
_cell_volume                      2332.02873608

loop_
_atom_site_label
_atom_site_type_symbol
_atom_type_description
_atom_site_fract_x
_atom_site_fract_y
_atom_site_fract_z
_atom_type_partial_charge
C1    C     C_R   0.482806 0.441295 0.661859 0.904080
C2    C     C_R   0.517197 0.558706 0.338141 0.904070
C3    C     C_R   0.530250 0.444962 0.819001 0.204987
C4    C     C_R   0.469753 0.555024 0.181000 0.205092
C5    C     C_R   0.467097 0.440409 0.901908 0.011370
C6    C     C_R   0.532908 0.559592 0.098092 0.011358
C7    C     C_R   0.326855 0.407010 0.910901 -0.001249
C8    C     C_R   0.673144 0.593003 0.089098 -0.001217
C9    C     C_R   0.534479 0.481432 0.971285 -0.061438
C10   C     C_R   0.465530 0.518567 0.028717 -0.061403
C11   C     C_R   0.333005 0.515565 0.013357 0.431902
C12   C     C_R   0.667011 0.484447 0.986643 0.431874
C13   C     C_R   0.258438 0.445117 0.969238 0.048064
C14   C     C_R   0.741570 0.554896 0.030767 0.048049
C15   C     C_R   0.701103 0.842640 0.633934 -0.231760
C16   C     C_R   0.298900 0.157361 0.366064 -0.231760
C17   C     C_R   0.665847 0.753402 0.612863 -0.012761
C18   C     C_R   0.334154 0.246598 0.387136 -0.012764
C19   C     C_R   0.513211 0.793795 0.511688 -0.004853
C20   C     C_R   0.486789 0.206205 0.488312 -0.004828
C21   C     C_R   0.543225 0.885875 0.530585 -0.057078
C22   C     C_R   0.456778 0.114126 0.469413 -0.057076
C23   C     C_R   0.742213 0.501196 0.500325 0.983985
C24   C     C_R   0.257787 0.498803 0.499675 0.983994
C25   C     C_R   0.640893 0.910007 0.592719 0.115917
C26   C     C_R   0.359111 0.089994 0.407277 0.115915
C27   C     C_R   0.480893 0.953916 0.489650 0.034645
C28   C     C_R   0.519111 0.046085 0.510347 0.034648
C29   C     C_R   0.618691 0.067624 0.571036 -0.312735
C30   C     C_R   0.381314 0.932378 0.428959 -0.312742
C31   C     C_R   0.678473 0.000747 0.612522 0.449794
C32   C     C_R   0.321534 0.999255 0.387473 0.449796
C33   C     C_3   0.931277 0.429764 0.557440 0.372600
C34   C     C_3   0.068724 0.570238 0.442560 0.372352
C35   C     C_3   0.045477 0.507968 0.578987 0.382047
C36   C     C_3   0.954523 0.492031 0.421013 0.382037
C37   C     C_3   0.122459 0.496769 0.499111 -0.166044
C38   C     C_3   0.877541 0.503231 0.500889 -0.166016
C39   C     C_3   0.007764 0.416641 0.477025 -0.402421
C40   C     C_3   0.992235 0.583360 0.522974 -0.402753
C41   C     C_R   0.452591 0.404266 0.753972 -0.106107
C42   C     C_R   0.547401 0.595735 0.246026 -0.106051
C43   C     C_R   0.261067 0.347108 0.853247 0.509609
C44   C     C_R   0.738917 0.652919 0.146744 0.509557
C45   C     C_R   0.326740 0.345621 0.775077 -0.330847
C46   C     C_R   0.673240 0.654400 0.224915 -0.330915
H1    H     H_    0.556290 0.231315 0.535622 0.152978
H2    H     H_    0.443707 0.768684 0.464379 0.152989
H3    H     H_    0.287676 0.298838 0.356232 0.138059
H4    H     H_    0.712326 0.701163 0.643767 0.138026
H5    H     H_    0.775474 0.858485 0.681753 0.205204
H6    H     H_    0.224531 0.141517 0.318243 0.205209
H7    H     H_    0.653494 0.136390 0.587744 0.154037
H8    H     H_    0.346514 0.863612 0.412249 0.154042
H9    H     H_    0.016298 0.349739 0.458563 0.190598
H10   H     H_    0.983702 0.650261 0.541436 0.190579
H11   H     H_    0.727828 0.690240 0.274655 0.165135
H12   H     H_    0.272144 0.309792 0.725333 0.165135
N1    N     N_R   0.574200 0.731700 0.552740 -0.104979
N2    N     N_R   0.425800 0.268300 0.447260 -0.104978
O1    O     O_R   0.462600 0.383110 0.605620 -0.615969
O2    O     O_R   0.537400 0.616890 0.394380 -0.615969
O3    O     O_R   0.510210 0.531900 0.639510 -0.609533
O4    O     O_R   0.489790 0.468100 0.360490 -0.609500
O5    O     O_R   0.662240 0.425610 0.483080 -0.572281
O6    O     O_R   0.337760 0.574390 0.516920 -0.572294
O7    O     O_R   0.709860 0.574400 0.516970 -0.655998
O8    O     O_R   0.290140 0.425600 0.483030 -0.655995
Zn1   Zn    Zn3+2 0.468210 0.400660 0.477370 0.974341
Zn2   Zn    Zn3+2 0.531790 0.599340 0.522630 0.974316
O9    O     O_3   0.097623 0.513462 0.661748 -0.747258
H13   H     H_    0.025209 0.519681 0.699596 0.343084
O10   O     O_3   0.902368 0.486523 0.338255 -0.747305
H14   H     H_    0.974959 0.480739 0.300310 0.343147
O11   O     O_3   0.854483 0.358308 0.618946 -0.762331
H15   H     H_    0.915440 0.321804 0.644156 0.344236
O12   O     O_3   0.145519 0.641694 0.381055 -0.762408
H16   H     H_    0.084561 0.678194 0.355841 0.344206
C47   C     C_3   0.109873 0.417510 0.981672 -0.789015
H17   H     H_    0.075373 0.451156 0.032984 0.209690
H18   H     H_    0.063987 0.436454 0.919343 0.267317
H19   H     H_    0.074358 0.341602 0.005420 0.289891
C48   C     C_3   0.890140 0.582503 0.018352 -0.789025
H20   H     H_    0.924664 0.548849 0.967058 0.209725
H21   H     H_    0.925657 0.658409 0.994591 0.289888
H22   H     H_    0.936005 0.563572 0.080696 0.267268
C49   C     C_3   0.329406 0.494945 0.205476 -0.799054
H23   H     H_    0.256077 0.533286 0.182940 0.284971
H24   H     H_    0.311274 0.428178 0.179158 0.222988
H25   H     H_    0.305524 0.475996 0.276471 0.212100
C50   C     C_3   0.670630 0.504984 0.794534 -0.798760
H26   H     H_    0.688916 0.571700 0.820969 0.222991
H27   H     H_    0.743884 0.466517 0.816957 0.285035
H28   H     H_    0.694453 0.524064 0.723535 0.212035
O13   O     O_3   0.131486 0.296494 0.870100 -0.761582
H29   H     H_    0.102202 0.259065 0.822648 0.342099
O14   O     O_3   0.868483 0.703561 0.129878 -0.761614
H30   H     H_    0.897754 0.741006 0.177322 0.342085
O15   O     O_3   0.283930 0.586779 0.034663 -0.762168
H31   H     H_    0.208975 0.592358 0.997393 0.346765
O16   O     O_3   0.716116 0.413260 0.965305 -0.762156
H32   H     H_    0.791031 0.407652 0.002606 0.346775
O17   O     O_3   0.775014 0.023019 0.672306 -0.768938
H33   H     H_    0.790383 0.089513 0.679041 0.344089
O18   O     O_3   0.224995 0.976984 0.327687 -0.768938
H34   H     H_    0.209627 0.910490 0.320951 0.344091

loop_
_geom_bond_atom_site_label_1
_geom_bond_atom_site_label_2
_ccdc_geom_bond_type
C25   C31   A    
C38   C40   S    
C49   H23   S    
C13   C47   S    
C26   C32   A    
O16   H32   S    
C34   C37   S    
O10   H14   S    
O13   H29   S    
O14   H30   S    
C4    C49   S    
O12   H16   S    
C30   H8    S    
C33   C39   S    
C29   H7    S    
C34   C40   S    
C11   O15   S    
C28   C29   A    
C19   C21   A    
C34   O12   S    
C15   C25   A    
O1    Zn1   S    
O2    Zn2   S    
C3    C50   S    
C42   C46   A    
C23   O7    A    
C33   O11   S    
C39   H9    S    
C48   H20   S    
C44   C46   A    
O8    Zn1   S    
C40   H10   S    
C43   O13   S    
C7    C43   A    
C20   N2    A    
C9    C10   A    
C24   O6    A    
C21   C27   A    
C35   O9    S    
C22   C28   A    
C27   C30   A    
C14   C48   S    
C1    O3    A    
C2    O4    A    
C16   C26   A    
C45   H12   S    
C8    C44   A    
C4    C6    A    
C36   O10   S    
C50   H26   S    
C5    C7    A    
C19   H2    S    
C6    C8    A    
C19   N1    A    
C31   O17   S    
O11   H15   S    
C5    C9    A    
C50   H27   S    
C44   O14   S    
O15   H31   S    
O3    Zn2   S    
C24   C37   S    
C16   C18   A    
O4    Zn1   S    
C43   C45   A    
C17   N1    A    
C1    C41   S    
C48   H21   S    
C20   C22   A    
C15   H5    S    
C32   O18   S    
C49   H24   S    
C46   H11   S    
O17   H33   S    
C47   H18   S    
C18   N2    A    
C15   C17   A    
C21   C25   A    
C3    C41   A    
C8    C14   A    
C35   C37   S    
C36   C39   S    
C16   H6    S    
C12   C14   A    
C3    C5    A    
C1    O1    A    
C17   H4    S    
C6    C10   A    
C47   H19   S    
C23   C38   S    
O18   H34   S    
C33   C38   S    
O7    Zn2   S    
C23   O5    A    
C36   C38   S    
C35   C40   S    
C12   O16   S    
C37   C39   S    
C50   H28   S    
C30   C32   A    
C11   C13   A    
O6    Zn2   S    
C4    C42   A    
N2    Zn1   S    
C2    C42   S    
O5    Zn1   S    
C33   C35   S    
C34   C36   S    
C9    C12   A    
C20   H1    S    
C10   C11   A    
C24   O8    A    
N1    Zn2   S    
C47   H17   S    
C7    C13   A    
C48   H22   S    
O9    H13   S    
C29   C31   A    
C22   C26   A    
C49   H25   S    
C27   C28   A    
C41   C45   A    
C2    O2    A    
C18   H3    S    
