data_mof_unit_46221.cif
_audit_creation_date              2012-12-10T16:48:07-0500
_audit_creation_method            fapswitch 2.2
_symmetry_space_group_name_H-M    P1
_symmetry_Int_Tables_number       1
_space_group_crystal_system       triclinic
_cell_length_a                    15.817341
_cell_length_b                    8.690169
_cell_length_c                    7.518198
_cell_angle_alpha                 103.335173
_cell_angle_beta                  94.780121
_cell_angle_gamma                 93.160339
_cell_volume                      999.105532998

loop_
_atom_site_label
_atom_site_type_symbol
_atom_type_description
_atom_site_fract_x
_atom_site_fract_y
_atom_site_fract_z
_atom_type_partial_charge
C1    C     C_R   0.497358 0.199770 0.453013 0.880348
C2    C     C_R   0.502642 0.800229 0.546987 0.880348
C3    C     C_R   0.340035 0.499595 0.501248 0.828949
C4    C     C_R   0.659965 0.500405 0.498752 0.828949
C5    C     C_2   0.496002 0.031411 0.427190 -0.344384
C6    C     C_2   0.503998 0.968589 0.572810 -0.344384
C7    C     C_3   0.969222 0.368767 0.545853 -0.158406
C8    C     C_3   0.030778 0.631232 0.454147 -0.158406
C9    C     C_3   0.019990 0.370860 0.378891 -0.157991
C10   C     C_3   0.980010 0.629139 0.621109 -0.157991
C11   C     C_1   0.250335 0.499886 0.504000 -0.153959
C12   C     C_1   0.749664 0.500114 0.496000 -0.153959
C13   C     C_3   0.033630 0.497975 0.669543 -0.156828
C14   C     C_3   0.966370 0.502025 0.330457 -0.156828
C15   C     C_3   0.082828 0.500068 0.502568 0.190145
C16   C     C_3   0.917172 0.499932 0.497432 0.190145
C17   C     C_1   0.174660 0.500029 0.504304 -0.071321
C18   C     C_1   0.825340 0.499971 0.495696 -0.071322
Cu1   Cu    Cu3+1 0.509330 0.517380 0.684380 0.958625
Cu2   Cu    Cu3+1 0.490670 0.482620 0.315620 0.958625
H1    H     H_    0.037865 0.264849 0.279617 0.131589
H2    H     H_    0.962135 0.735151 0.720383 0.131589
H3    H     H_    0.942511 0.261017 0.583315 0.132237
H4    H     H_    0.057489 0.738983 0.416684 0.132237
H5    H     H_    0.937402 0.503656 0.191275 0.133947
H6    H     H_    0.062598 0.496344 0.808725 0.133947
H7    H     H_    0.488387 0.958884 0.287311 0.177391
H8    H     H_    0.511613 0.041116 0.712688 0.177391
N1    N     N_2   0.476600 0.456420 0.038510 -0.217005
N2    N     N_2   0.523400 0.543580 0.961490 -0.217005
O1    O     O_R   0.506070 0.286130 0.619780 -0.589991
O2    O     O_R   0.493930 0.713870 0.380220 -0.589991
O3    O     O_R   0.490300 0.256770 0.308360 -0.598148
O4    O     O_R   0.509700 0.743230 0.691640 -0.598148
O5    O     O_R   0.386960 0.514660 0.655680 -0.586808
O6    O     O_R   0.613040 0.485340 0.344320 -0.586808
O7    O     O_R   0.371190 0.485310 0.344260 -0.590509
O8    O     O_R   0.628810 0.514690 0.655740 -0.590509
C19   C     C_1   0.415162 0.348221 0.928299 0.552725
N3    N     N_1   0.363517 0.257180 0.838329 -0.360605
C20   C     C_1   0.584838 0.651779 0.071701 0.552724
N4    N     N_1   0.636483 0.742820 0.161671 -0.360605

loop_
_geom_bond_atom_site_label_1
_geom_bond_atom_site_label_2
_ccdc_geom_bond_type
C7    C13   S    
C9    C14   S    
C4    O6    A    
N2    C20   S    
C15   C17   S    
N1    N2    D    
Cu1   O8    S    
C4    C12   S    
C20   N4    T    
Cu1   Cu2   S    
C1    C5    S    
C3    O5    A    
Cu1   O1    S    
N1    C19   S    
C9    C15   S    
C1    O3    A    
C10   C16   S    
Cu1   O5    S    
C10   H2    S    
Cu2   O7    S    
C9    H1    S    
C2    C6    S    
C7    H3    S    
Cu2   O3    S    
C16   C18   S    
C7    C16   S    
C8    H4    S    
C4    O8    A    
C8    C15   S    
Cu2   N1    S    
C13   C15   S    
C14   H5    S    
C5    C6    D    
C14   C16   S    
C13   H6    S    
C3    C11   S    
Cu2   O6    S    
C1    O1    A    
C3    O7    A    
C2    O2    A    
Cu2   O2    S    
C12   C18   T    
C19   N3    T    
C7    C9    S    
C11   C17   T    
C8    C14   S    
C2    O4    A    
C5    H7    S    
Cu1   N2    S    
Cu1   O4    S    
C8    C10   S    
C6    H8    S    
C10   C13   S    
