data_mof_unit_53709.cif
_audit_creation_date              2013-03-05T16:10:14-0500
_audit_creation_method            fapswitch 2.2
_symmetry_space_group_name_H-M    P1
_symmetry_Int_Tables_number       1
_space_group_crystal_system       triclinic
_cell_length_a                    9.868107
_cell_length_b                    10.694676
_cell_length_c                    13.130742
_cell_angle_alpha                 90.355371
_cell_angle_beta                  70.118358
_cell_angle_gamma                 90.244439
_cell_volume                      1303.14443304

loop_
_atom_site_label
_atom_site_type_symbol
_atom_site_description
_atom_site_fract_x
_atom_site_fract_y
_atom_site_fract_z
_atom_type_partial_charge
O1    O     O_R   0.385370 0.683250 0.500010 -0.627269
O2    O     O_R   0.614700 0.683220 0.500010 -0.623759
C1    C     C_R   0.500065 0.740003 0.500438 0.866324
O3    O     O_R   0.328400 0.499990 0.653620 -0.621072
O4    O     O_R   0.557730 0.499960 0.653620 -0.608653
C2    C     C_R   0.420115 0.493145 0.704006 0.848092
Zn1   Zn    Zn3+2 0.346870 0.500020 0.500000 0.990348
Zn2   Zn    Zn3+2 0.653130 0.499980 0.500000 0.941803
O5    O     O_R   0.385300 0.316780 0.499990 -0.580937
O6    O     O_R   0.614630 0.316750 0.499990 -0.640322
O7    O     O_R   0.442270 0.500040 0.346380 -0.566803
O8    O     O_R   0.671600 0.500010 0.346380 -0.623486
C3    C     C_R   0.499766 0.260001 0.500112 0.870748
C4    C     C_R   0.579926 0.499447 0.295800 0.892050
C5    C     C_R   0.774844 0.371427 0.019183 -0.192721
H1    H     H_    0.830793 0.391855 0.162734 0.160946
H2    H     H_    0.778566 0.284635 0.827254 0.152112
H3    H     H_    0.871619 0.319091 0.976745 0.144958
C6    C     C_R   0.628022 0.481621 0.179390 -0.060104
C7    C     C_R   0.232343 0.531573 0.881493 -0.195056
C8    C     C_R   0.192956 0.545787 0.992941 -0.152954
C9    C     C_R   0.292150 0.520149 0.044119 -0.159513
C10   C     C_R   0.430718 0.472690 0.984507 0.088931
C11   C     C_R   0.460322 0.438883 0.875398 0.079441
C12   C     C_R   0.540992 0.457549 0.029400 0.091386
C13   C     C_R   0.667953 0.389951 0.972395 0.166349
C14   C     C_R   0.684845 0.340202 0.870603 -0.243921
C15   C     C_R   0.582334 0.364262 0.822501 -0.189047
C16   C     C_R   0.529479 0.510471 0.128834 -0.195841
C17   C     C_R   0.753517 0.415082 0.123783 -0.202283
C18   C     C_R   0.367962 0.482611 0.821729 -0.118449
H4    H     H_    0.440602 0.570930 0.171191 0.145873
H5    H     H_    0.158585 0.562386 0.841733 0.158239
H6    H     H_    0.256407 0.535062 0.130573 0.152311
H7    H     H_    0.087543 0.582107 0.039190 0.150074
H8    H     H_    0.598769 0.322369 0.744018 0.173035
C19   C     C_R   0.631388 0.936213 0.464262 -0.187717
H9    H     H_    0.733415 0.887270 0.434544 0.162573
C20   C     C_R   0.631197 0.064373 0.463825 -0.181865
H10   H     H_    0.733163 0.113735 0.433771 0.165453
C21   C     C_R   0.499677 0.127561 0.500712 -0.023702
C22   C     C_R   0.368455 0.063843 0.538781 -0.125716
H11   H     H_    0.266607 0.112838 0.569525 0.179503
C23   C     C_R   0.368578 0.935653 0.538690 -0.180474
H12   H     H_    0.266649 0.886245 0.568746 0.150801
C24   C     C_R   0.500054 0.872468 0.501213 -0.025556
C25   C     C_R   0.950115 0.407810 0.448356 -0.150488
H13   H     H_    0.913383 0.334641 0.406621 0.157068
C26   C     C_R   0.093904 0.407378 0.447719 0.376194
N1    N     N_R   0.142790 0.500030 0.500030 -0.136084
C27   C     C_R   0.048544 0.591774 0.552611 -0.160746
H14   H     H_    0.083981 0.665190 0.594822 0.146684
C28   C     C_R   0.904904 0.591752 0.552534 -0.068582
H15   H     H_    0.832006 0.665243 0.594661 0.146660
N2    N     N_R   0.857180 0.499940 0.500010 -0.099538
N3    N     N_R   0.186481 0.308231 0.392048 0.214999
O9    O     O_R   0.278898 0.328406 0.295968 -0.393323
O10   O     O_R   0.149449 0.193523 0.421183 -0.436973

loop_
_geom_bond_atom_site_label_1
_geom_bond_atom_site_label_2
_geom_bond_distance
_ccdc_geom_bond_type
O4    Zn2   1.914037 S    
C10   C11   1.406572 A    
C19   H9    1.083823 S    
C8    H7    1.082862 S    
C5    H3    1.083765 S    
C26   N3    1.427491 S    
C21   C22   1.395520 A    
C1    C24   1.416652 S    
C25   H13   1.082325 S    
O8    C4    1.291536 A    
Zn2   O8    1.962661 S    
C3    C21   1.416465 S    
C2    C18   1.458624 S    
C12   C13   1.419770 A    
C11   C18   1.410875 A    
C25   C26   1.416128 A    
O1    Zn1   1.994490 S    
C28   H15   1.081656 S    
N3    O9    1.299632 A    
Zn1   O7    1.914038 S    
C13   C14   1.392038 A    
C22   C23   1.370952 A    
O3    Zn1   1.962660 S    
C7    H5    1.083317 S    
Zn2   N2    2.013634 S    
O3    C2    1.292542 A    
N3    O10   1.300679 A    
N1    C27   1.366377 A    
C16   H4    1.079452 S    
O2    C1    1.284515 A    
C10   C12   1.413111 A    
C12   C16   1.388677 A    
O4    C2    1.294545 A    
C9    H6    1.079088 S    
O7    C4    1.293369 A    
C22   H11   1.083309 S    
C28   N2    1.367538 A    
H1    C17   1.083179 S    
C27   H14   1.081693 S    
H2    C14   1.083941 S    
C20   H10   1.083907 S    
C7    C8    1.388014 A    
C15   H8    1.081787 S    
C5    C17   1.394627 A    
C19   C20   1.370691 A    
C26   N1    1.378122 A    
C20   C21   1.396977 A    
C14   C15   1.388256 A    
Zn1   O5    1.997627 S    
C25   N2    1.359501 A    
O5    C3    1.285201 A    
C9    C10   1.418844 A    
C5    C13   1.404772 A    
O1    C1    1.283695 A    
C19   C24   1.395957 A    
C8    C9    1.391737 A    
C6    C17   1.399721 A    
C4    C6    1.449758 S    
O6    C3    1.282987 A    
Zn2   O6    1.994492 S    
O2    Zn2   1.997628 S    
C23   H12   1.083853 S    
C11   C15   1.414754 A    
Zn1   N1    2.013750 S    
C23   C24   1.396851 A    
C27   C28   1.417797 A    
C7    C18   1.402724 A    
C6    C16   1.387691 A    
