data_mof_unit_8123.cif
_audit_creation_date              2012-10-26T20:13:57-0400
_audit_creation_method            fapswitch 2.2
_symmetry_space_group_name_H-M    P1
_symmetry_Int_Tables_number       1
_space_group_crystal_system       triclinic
_cell_length_a                    8.788673
_cell_length_b                    10.927658
_cell_length_c                    9.731
_cell_angle_alpha                 89.309318
_cell_angle_beta                  98.071788
_cell_angle_gamma                 93.455809
_cell_volume                      923.614016013

loop_
_atom_site_label
_atom_site_type_symbol
_atom_type_description
_atom_site_fract_x
_atom_site_fract_y
_atom_site_fract_z
_atom_type_partial_charge
C1    C     C_R   0.504685 0.263535 0.501354 0.556123
C2    C     C_R   0.627791 0.537447 0.942233 0.087491
C3    C     C_3   0.710372 0.659901 0.942878 0.017785
C4    C     C_R   0.204428 0.499791 0.464122 0.531017
C5    C     C_3   0.725216 0.654797 0.100421 0.029104
C6    C     C_R   0.499096 0.737459 0.499446 0.538037
C7    C     C_R   0.795601 0.501423 0.535916 0.532705
C8    C     C_2   0.038088 0.498836 0.445245 -0.168741
C9    C     C_2   0.961981 0.504139 0.554897 -0.179419
C10   C     C_R   0.429961 0.062626 0.594477 -0.038569
C11   C     C_R   0.511386 0.130744 0.503780 0.014149
C12   C     C_R   0.591303 0.941026 0.417414 -0.176269
C13   C     C_R   0.595372 0.069364 0.415185 0.100955
C14   C     C_3   0.116921 0.320564 0.852909 -0.317605
C15   C     C_3   0.875119 0.756670 0.786394 -0.310705
C16   C     C_3   0.505120 0.792700 0.104607 -0.280734
C17   C     C_3   0.839183 0.180089 0.404791 -0.289740
C18   C     C_3   0.267190 0.748487 0.798558 -0.297918
C19   C     C_3   0.416309 0.114272 0.977582 -0.286818
C20   C     C_3   0.124774 0.522466 0.087132 -0.287060
C21   C     C_R   0.497331 0.871887 0.497866 -0.049798
C22   C     C_R   0.415586 0.934153 0.586149 -0.012278
C23   C     C_3   0.437613 0.920867 0.739671 0.043547
C24   C     C_3   0.474071 0.057516 0.749171 0.046011
C25   C     C_R   0.629774 0.534902 0.088279 0.116424
C26   C     C_R   0.374622 0.455020 0.056819 0.241935
C27   C     C_R   0.378366 0.446410 0.909249 0.259568
Cu1   Cu    Cu3+1 0.499990 0.499980 0.640670 0.918283
Cu2   Cu    Cu3+1 0.500010 0.500020 0.359330 0.962701
H1    H     H_    0.977353 0.492542 0.340382 0.117619
H2    H     H_    0.633734 0.727663 0.894501 0.143258
H3    H     H_    0.844201 0.641959 0.152350 0.119960
H4    H     H_    0.736207 0.831290 0.172609 0.223242
H5    H     H_    0.456856 0.846064 0.182168 0.156480
H6    H     H_    0.424037 0.712843 0.077280 0.162336
H7    H     H_    0.511737 0.853596 0.014245 0.127331
H8    H     H_    0.022337 0.511474 0.659831 0.136450
H9    H     H_    0.704658 0.090271 0.241069 0.230650
H10   H     H_    0.909169 0.101813 0.442257 0.116911
H11   H     H_    0.822974 0.237053 0.494725 0.156631
H12   H     H_    0.300248 0.332491 0.742564 0.316631
H13   H     H_    0.902649 0.237510 0.334099 0.138555
H14   H     H_    0.669838 0.895670 0.363485 0.140116
H15   H     H_    0.198080 0.921849 0.747564 0.248899
H16   H     H_    0.185575 0.728479 0.873347 0.135993
H17   H     H_    0.373349 0.703531 0.837439 0.173223
H18   H     H_    0.219565 0.711468 0.694744 0.177460
H19   H     H_    0.538678 0.870775 0.780493 0.106449
H20   H     H_    0.261512 0.117510 0.792522 0.248651
H21   H     H_    0.374979 0.193509 0.028150 0.154837
H22   H     H_    0.542909 0.114913 0.008584 0.138533
H23   H     H_    0.137927 0.256381 0.941447 0.153532
H24   H     H_    0.360693 0.029375 0.016195 0.151099
H25   H     H_    0.598923 0.082964 0.779898 0.112390
H26   H     H_    0.226472 0.359549 0.179464 0.266368
H27   H     H_    0.009250 0.484351 0.104571 0.117591
H28   H     H_    0.117386 0.559645 0.980932 0.136723
H29   H     H_    0.162710 0.601190 0.156848 0.173466
H30   H     H_    0.059120 0.265926 0.762699 0.105458
H31   H     H_    0.033843 0.388260 0.870721 0.156947
H32   H     H_    0.885490 0.576130 0.859054 0.262418
H33   H     H_    0.963278 0.733698 0.722129 0.125487
H34   H     H_    0.909365 0.845175 0.840140 0.139815
H35   H     H_    0.768299 0.766507 0.712887 0.163233
N1    N     N_R   0.500980 0.500930 0.148050 -0.235296
N2    N     N_R   0.500990 0.500890 0.852140 -0.277350
N3    N     N_2   0.259262 0.379706 0.818017 -0.475167
N4    N     N_2   0.855214 0.660679 0.887745 -0.543978
N5    N     N_2   0.658108 0.756631 0.160344 -0.496711
N6    N     N_2   0.692224 0.135526 0.330902 -0.493451
N7    N     N_2   0.295295 0.879242 0.790575 -0.531760
N8    N     N_2   0.377657 0.123442 0.828158 -0.497562
N9    N     N_2   0.232633 0.426247 0.104433 -0.502646
O1    O     O_R   0.500000 0.319640 0.618810 -0.515081
O2    O     O_R   0.500020 0.319680 0.381230 -0.476919
O3    O     O_R   0.274830 0.499980 0.591380 -0.503901
O4    O     O_R   0.274850 0.500020 0.353800 -0.507871
O5    O     O_R   0.499980 0.680320 0.618770 -0.523301
O6    O     O_R   0.500000 0.680360 0.381190 -0.465282
O7    O     O_R   0.725150 0.499980 0.646200 -0.501547
O8    O     O_R   0.725170 0.500020 0.408620 -0.487100

loop_
_geom_bond_atom_site_label_1
_geom_bond_atom_site_label_2
_ccdc_geom_bond_type
H9    N6    S    
C3    N4    S    
C1    C11   S    
C4    C8    S    
Cu1   O1    S    
C18   H18   S    
H12   N3    S    
C10   C22   A    
C14   H30   S    
C26   C27   A    
C1    O1    A    
Cu1   Cu2   S    
C12   H14   S    
C16   H6    S    
C6    O5    A    
C13   N6    S    
C24   H25   S    
C26   N9    S    
H15   N7    S    
C17   H10   S    
C17   H13   S    
C5    N5    S    
C16   H5    S    
C14   H23   S    
C8    C9    D    
H20   N8    S    
C14   N3    S    
Cu1   O5    S    
H4    N5    S    
C5    H3    S    
C19   H24   S    
C17   N6    S    
C21   C22   A    
C19   N8    S    
C18   H17   S    
C1    O2    A    
C23   N7    S    
C25   N1    A    
C10   C24   S    
C6    C21   S    
C12   C21   A    
C17   H11   S    
Cu1   N2    S    
Cu2   O8    S    
Cu2   O6    S    
C15   H35   S    
C9    H8    S    
C3    H2    S    
C5    C25   S    
C7    O8    A    
Cu2   N1    S    
C20   H29   S    
Cu1   O3    S    
C18   H16   S    
C3    C5    S    
C24   N8    S    
C18   N7    S    
C7    C9    S    
H32   N4    S    
C23   H19   S    
C26   N1    A    
C16   N5    S    
C2    N2    A    
Cu2   O2    S    
C14   H31   S    
C8    H1    S    
C2    C3    S    
C4    O4    A    
C27   N2    A    
C16   H7    S    
C11   C13   A    
C19   H21   S    
C6    O6    A    
C15   N4    S    
C15   H33   S    
C20   N9    S    
C2    C25   A    
C20   H27   S    
Cu1   O7    S    
C4    O3    A    
C27   N3    S    
C10   C11   A    
C23   C24   S    
H26   N9    S    
C19   H22   S    
Cu2   O4    S    
C12   C13   A    
C15   H34   S    
C22   C23   S    
C20   H28   S    
C7    O7    A    
