data_mof_unit_31770.cif
_audit_creation_date              2012-12-11T16:44:10-0500
_audit_creation_method            fapswitch 2.2
_symmetry_space_group_name_H-M    P1
_symmetry_Int_Tables_number       1
_space_group_crystal_system       triclinic
_cell_length_a                    27.32796
_cell_length_b                    7.199057
_cell_length_c                    22.797932
_cell_angle_alpha                 89.999846
_cell_angle_beta                  101.293335
_cell_angle_gamma                 89.999753
_cell_volume                      4398.31927997

loop_
_atom_site_label
_atom_site_type_symbol
_atom_type_description
_atom_site_fract_x
_atom_site_fract_y
_atom_site_fract_z
_atom_type_partial_charge
O1    O     O_R   0.707300 0.594030 0.176840 -0.524212
O2    O     O_R   0.292700 0.405970 0.823160 -0.524212
O3    O     O_R   0.792700 0.094030 0.323160 -0.524256
O4    O     O_R   0.207300 0.905970 0.676840 -0.524267
O5    O     O_R   0.697330 0.262360 0.295660 -0.501341
O6    O     O_R   0.302670 0.737640 0.704340 -0.501331
O7    O     O_R   0.802670 0.762360 0.204340 -0.501370
O8    O     O_R   0.197330 0.237640 0.795660 -0.501368
C1    C     C_R   0.684860 0.432210 0.311888 0.736650
C2    C     C_R   0.315140 0.567790 0.688112 0.736635
C3    C     C_R   0.815139 0.932210 0.188112 0.736696
C4    C     C_R   0.184861 0.067790 0.811888 0.736692
O9    O     O_R   0.701410 0.264250 0.175600 -0.549645
O10   O     O_R   0.298590 0.735750 0.824400 -0.549640
O11   O     O_R   0.798590 0.764250 0.324400 -0.549659
O12   O     O_R   0.201410 0.235750 0.675600 -0.549658
O13   O     O_R   0.796800 0.094950 0.202240 -0.545590
O14   O     O_R   0.203200 0.905050 0.797760 -0.545591
O15   O     O_R   0.703200 0.594950 0.297760 -0.545603
O16   O     O_R   0.296800 0.405050 0.702240 -0.545606
C5    C     C_R   0.689835 0.432556 0.153549 0.775073
C6    C     C_R   0.310165 0.567443 0.846451 0.775077
C7    C     C_R   0.810165 0.932556 0.346451 0.774955
C8    C     C_R   0.189835 0.067444 0.653549 0.774925
O17   O     O_3   0.781290 0.427390 0.258880 -0.374275
O18   O     O_3   0.218710 0.572610 0.741120 -0.374275
O19   O     O_3   0.718710 0.927390 0.241120 -0.374229
O20   O     O_3   0.281290 0.072610 0.758880 -0.374215
V1    V     V_3+5 0.744190 0.152150 0.248350 1.560937
V2    V     V_3+5 0.255810 0.847850 0.751650 1.560947
V3    V     V_3+5 0.755810 0.652150 0.251650 1.560910
V4    V     V_3+5 0.244190 0.347850 0.748350 1.560911
C9    C     C_R   0.154551 0.062070 0.595652 -0.125727
C10   C     C_R   0.845449 0.937930 0.404348 -0.125736
C11   C     C_R   0.345449 0.562071 0.904348 -0.125776
C12   C     C_R   0.654551 0.437929 0.095651 -0.125774
C13   C     C_R   0.139236 0.110905 0.488995 -0.153049
C14   C     C_R   0.860764 0.889097 0.511005 -0.153049
C15   C     C_R   0.360766 0.610940 0.011003 -0.153047
C16   C     C_R   0.639234 0.389061 0.988997 -0.153045
C17   C     C_R   0.171558 0.112591 0.544153 -0.257750
C18   C     C_R   0.828442 0.887410 0.455847 -0.257718
C19   C     C_R   0.328444 0.612617 0.955845 -0.257649
C20   C     C_R   0.671556 0.387384 0.044155 -0.257638
C21   C     C_R   0.103958 0.015461 0.592170 0.533354
C22   C     C_R   0.896042 0.984539 0.407830 0.533346
C23   C     C_R   0.396041 0.515446 0.907831 0.533374
C24   C     C_R   0.603959 0.484554 0.092169 0.533362
C25   C     C_R   0.068877 0.027897 0.536475 -0.027471
C26   C     C_R   0.931123 0.972103 0.463525 -0.027468
C27   C     C_R   0.431123 0.527896 0.963525 -0.027466
C28   C     C_R   0.568877 0.472104 0.036474 -0.027462
C29   C     C_R   0.088585 0.067853 0.484608 0.075872
C30   C     C_R   0.911415 0.932148 0.515392 0.075867
C31   C     C_R   0.411416 0.567875 0.015390 0.075853
C32   C     C_R   0.588584 0.432125 0.984609 0.075848
C33   C     C_R   0.015634 0.000687 0.529426 0.065831
C34   C     C_R   0.984366 0.999314 0.470574 0.065833
C35   C     C_R   0.484366 0.500678 0.970574 0.065827
C36   C     C_R   0.515634 0.499322 0.029426 0.065831
C37   C     C_R   0.007736 0.020274 0.421038 -0.119702
C38   C     C_R   0.992264 0.979727 0.578962 -0.119700
C39   C     C_R   0.492265 0.520304 0.078960 -0.119684
C40   C     C_R   0.507734 0.479696 0.921040 -0.119676
C41   C     C_R   0.058113 0.060442 0.428090 -0.193281
C42   C     C_R   0.941887 0.939560 0.571910 -0.193276
C43   C     C_R   0.441889 0.560478 0.071908 -0.193260
C44   C     C_R   0.558111 0.439522 0.928092 -0.193255
H1    H     H_    0.073721 0.081813 0.388379 0.130939
H2    H     H_    0.926279 0.918189 0.611621 0.130942
H3    H     H_    0.426282 0.581867 0.111618 0.130950
H4    H     H_    0.573718 0.418133 0.888382 0.130956
H5    H     H_    0.789658 0.850442 0.453452 0.150610
H6    H     H_    0.210342 0.149560 0.546548 0.150583
H7    H     H_    0.710339 0.350402 0.046551 0.150685
H8    H     H_    0.289660 0.649598 0.953449 0.150677
H9    H     H_    0.153920 0.144424 0.449416 0.134909
H10   H     H_    0.846080 0.855578 0.550584 0.134915
H11   H     H_    0.346083 0.644477 0.050580 0.134931
H12   H     H_    0.653917 0.355523 0.949420 0.134935
H13   H     H_    0.988657 0.002887 0.375592 0.213488
H14   H     H_    0.011343 0.997115 0.624408 0.213489
H15   H     H_    0.511346 0.502929 0.124407 0.213497
H16   H     H_    0.488654 0.497071 0.875593 0.213502
C45   C     C_R   0.876746 0.113570 0.142177 -0.188546
C46   C     C_R   0.123260 0.886423 0.857831 -0.188555
C47   C     C_R   0.623314 0.613639 0.357906 -0.188680
C48   C     C_R   0.376665 0.386332 0.642064 -0.188708
H17   H     H_    0.867235 0.237996 0.164164 0.207830
H18   H     H_    0.132775 0.761991 0.835850 0.207853
H19   H     H_    0.632872 0.738121 0.335983 0.208077
H20   H     H_    0.367088 0.261827 0.663962 0.208172
C49   C     C_R   0.912459 0.127222 0.105988 -0.130424
C50   C     C_R   0.087546 0.872771 0.894020 -0.130422
C51   C     C_R   0.587604 0.627293 0.394099 -0.130431
C52   C     C_R   0.412376 0.372675 0.605872 -0.130419
H21   H     H_    0.929513 0.260992 0.101643 0.139114
H22   H     H_    0.070496 0.738996 0.898370 0.139120
H23   H     H_    0.570602 0.761119 0.398516 0.139214
H24   H     H_    0.429361 0.238823 0.601436 0.139231
C53   C     C_R   0.926505 0.970206 0.076559 -0.002281
C54   C     C_R   0.073494 0.029792 0.923441 -0.002278
C55   C     C_R   0.573494 0.470210 0.423443 -0.002316
C56   C     C_R   0.426508 0.529784 0.576557 -0.002299
C57   C     C_R   0.904018 0.798774 0.084661 -0.217276
C58   C     C_R   0.095976 0.201231 0.915331 -0.217276
C59   C     C_R   0.595916 0.298713 0.415257 -0.217261
C60   C     C_R   0.404108 0.701310 0.584772 -0.217253
H25   H     H_    0.913358 0.675586 0.061906 0.130496
H26   H     H_    0.086631 0.324424 0.938081 0.130489
H27   H     H_    0.586520 0.175471 0.437943 0.130466
H28   H     H_    0.413519 0.824580 0.562106 0.130437
C61   C     C_R   0.868241 0.784366 0.120904 0.616712
C62   C     C_R   0.131753 0.215640 0.879089 0.616714
C63   C     C_R   0.631695 0.284305 0.379017 0.616776
C64   C     C_R   0.368330 0.715720 0.621012 0.616774
C65   C     C_R   0.853938 0.942406 0.150219 -0.175913
C66   C     C_R   0.146062 0.057594 0.849781 -0.175918
C67   C     C_R   0.646060 0.442409 0.349782 -0.175933
C68   C     C_R   0.353940 0.557590 0.650218 -0.175959
C69   C     C_R   0.999255 0.843169 0.035926 -0.152871
C70   C     C_R   0.000744 0.156829 0.964074 -0.152870
C71   C     C_R   0.500659 0.343387 0.463950 -0.152844
C72   C     C_R   0.499344 0.656606 0.536047 -0.152841
H29   H     H_    0.000004 0.721669 0.064075 0.114858
H30   H     H_    0.999995 0.278330 0.935927 0.114859
H31   H     H_    0.499842 0.222071 0.435702 0.114921
H32   H     H_    0.500160 0.777922 0.564291 0.114921
C73   C     C_R   0.034546 0.857511 0.999123 -0.152627
C74   C     C_R   0.965453 0.142487 0.000877 -0.152626
C75   C     C_R   0.465368 0.357728 0.500754 -0.152677
C76   C     C_R   0.534636 0.642267 0.499245 -0.152674
H33   H     H_    0.061448 0.746625 0.000037 0.115900
H34   H     H_    0.938549 0.253372 0.999962 0.115907
H35   H     H_    0.438397 0.247026 0.499745 0.115917
H36   H     H_    0.561610 0.752968 0.500255 0.115938
C77   C     C_R   0.035796 0.014537 0.962656 0.118529
C78   C     C_R   0.964203 0.985461 0.037344 0.118528
C79   C     C_R   0.464205 0.514532 0.537342 0.118500
C80   C     C_R   0.535798 0.485461 0.462656 0.118499
F1    F     F_    0.908639 0.049285 0.356990 -0.724318
F2    F     F_    0.091361 0.950713 0.643009 -0.724313
F3    F     F_    0.591364 0.549326 0.143005 -0.724277
F4    F     F_    0.408636 0.450673 0.856995 -0.724260
F5    F     F_    0.847008 0.616104 0.125825 -0.704949
F6    F     F_    0.152979 0.383911 0.874160 -0.704956
F7    F     F_    0.652863 0.115973 0.374016 -0.705043
F8    F     F_    0.347185 0.884092 0.626043 -0.705066

loop_
_geom_bond_atom_site_label_1
_geom_bond_atom_site_label_2
_ccdc_geom_bond_type
O17   V3    S    
C48   C52   A    
O1    C5    A    
C47   H19   S    
O19   V1    S    
C9    C21   A    
C72   C79   A    
O3    C7    A    
C10   C18   A    
O15   V3    S    
C25   C33   A    
C33   C38   A    
C5    C12   S    
O7    C3    A    
C6    C11   S    
C35   C40   A    
C26   C30   A    
C58   C62   A    
C36   C39   A    
C40   C44   A    
C57   C61   A    
C14   C18   A    
C75   H35   S    
C58   H26   S    
O4    C8    A    
C51   H23   S    
C50   H22   S    
C63   F7    S    
O1    V3    S    
O13   V1    S    
C31   C43   A    
C72   C76   A    
O2    V4    S    
C61   F5    S    
O3    V1    S    
C40   H16   S    
C46   C50   A    
C17   H6    S    
C45   C49   A    
C1    O15   A    
C15   C31   A    
C76   C80   A    
C48   H20   S    
C2    O16   A    
C16   C32   A    
C47   C51   A    
O2    C6    A    
C16   H12   S    
C54   C58   A    
C10   C22   A    
C48   C68   A    
C11   C19   A    
C16   C20   A    
C43   H3    S    
C76   H36   S    
C72   H32   S    
C13   C29   A    
C34   C37   A    
O11   C7    A    
C38   H14   S    
C11   C23   A    
C35   C36   A    
O12   C8    A    
C74   H34   S    
O10   V2    S    
C51   C55   A    
C22   F1    S    
O5    V1    S    
C53   C57   A    
C39   C43   A    
O7    V3    S    
C38   C42   A    
O8    V4    S    
C2    C68   S    
C62   F6    S    
C46   H18   S    
C49   C53   A    
C64   F8    S    
C45   H17   S    
O18   V4    S    
C15   C19   A    
C14   H10   S    
C32   C44   A    
C13   H9    S    
C23   F4    S    
C64   C68   A    
C24   F3    S    
C39   H15   S    
C44   H4    S    
C54   C77   S    
C26   C34   A    
C69   C78   A    
C70   H30   S    
C20   H7    S    
C47   C67   A    
C37   C41   A    
C71   H31   S    
C14   C30   A    
C21   C25   A    
O8    C4    A    
C7    C10   S    
O9    C5    A    
C46   C66   A    
C45   C65   A    
C59   C63   A    
C62   C66   A    
C61   C65   A    
O6    V2    S    
C69   H29   S    
C73   H33   S    
C63   C67   A    
C52   C56   A    
C21   F2    S    
C1    C67   S    
C4    C66   S    
C12   C20   A    
C27   C35   A    
C3    C65   S    
C49   H21   S    
C56   C60   A    
C29   C41   A    
O16   V4    S    
O9    V1    S    
C19   H8    S    
C57   H25   S    
C3    O13   A    
C18   H5    S    
C71   C75   A    
C59   H27   S    
C70   C77   A    
C69   C73   A    
O6    C2    A    
C23   C27   A    
C53   C78   S    
O11   V3    S    
C30   C42   A    
O12   V4    S    
C22   C26   A    
C8    C9    S    
C56   C79   S    
C9    C17   A    
O10   C6    A    
O20   V2    S    
C37   H13   S    
C55   C80   S    
C60   C64   A    
C33   C34   A    
C42   H2    S    
C41   H1    S    
C52   H24   S    
C12   C24   A    
C27   C31   A    
C13   C17   A    
C25   C29   A    
C75   C79   A    
O14   V2    S    
C71   C80   A    
C60   H28   S    
C24   C28   A    
C73   C77   A    
C50   C54   A    
C28   C36   A    
C4    O14   A    
C55   C59   A    
O5    C1    A    
C70   C74   A    
O4    V2    S    
C28   C32   A    
C15   H11   S    
C74   C78   A    
