data_mof_unit_11852.cif
_audit_creation_date              2012-12-10T16:47:55-0500
_audit_creation_method            fapswitch 2.2
_symmetry_space_group_name_H-M    P1
_symmetry_Int_Tables_number       1
_space_group_crystal_system       triclinic
_cell_length_a                    7.885937
_cell_length_b                    8.567137
_cell_length_c                    10.680071
_cell_angle_alpha                 92.83329
_cell_angle_beta                  85.26546
_cell_angle_gamma                 92.89515
_cell_volume                      717.42176851

loop_
_atom_site_label
_atom_site_type_symbol
_atom_type_description
_atom_site_fract_x
_atom_site_fract_y
_atom_site_fract_z
_atom_type_partial_charge
C1    C     C_R   0.544611 0.794084 0.498859 0.967228
C2    C     C_2   0.431185 0.042700 0.504869 -0.375422
C3    C     C_R   0.501561 0.499969 0.736601 0.872254
C4    C     C_R   0.455231 0.205947 0.503619 0.934682
C5    C     C_R   0.497800 0.489775 0.262732 0.915982
C6    C     C_2   0.623544 0.415455 0.052386 0.284738
C7    C     C_2   0.487774 0.447012 0.132283 -0.402750
C8    C     C_2   0.589051 0.394286 0.921527 0.044545
C9    C     C_2   0.512701 0.509475 0.868458 -0.015113
C10   C     C_2   0.567715 0.957442 0.502673 -0.392904
H1    H     H_    0.360366 0.437398 0.099374 0.143140
H2    H     H_    0.696819 0.006943 0.504275 0.171675
H3    H     H_    0.301410 0.993001 0.505380 0.179738
N1    N     N_2   0.950320 0.457950 0.466680 0.050642
N2    N     N_2   0.049680 0.542050 0.533320 -0.034834
O1    O     O_R   0.389250 0.738570 0.508180 -0.615322
O2    O     O_R   0.678390 0.711630 0.486820 -0.609982
O3    O     O_R   0.355470 0.513470 0.691600 -0.637751
O4    O     O_R   0.644610 0.486520 0.670240 -0.610821
O5    O     O_R   0.321610 0.288370 0.513180 -0.658680
O6    O     O_R   0.610750 0.261430 0.491820 -0.622991
O7    O     O_R   0.355390 0.513480 0.329760 -0.639175
O8    O     O_R   0.644530 0.486530 0.308400 -0.605844
Zn1   Zn    Zn3+2 0.306940 0.517990 0.514260 0.931440
Zn2   Zn    Zn3+2 0.693060 0.482010 0.485740 0.965644
N3    N     N_2   0.795264 0.433703 0.087600 -0.274457
H4    H     H_    0.829181 0.546158 0.118264 0.242981
C11   C     C_3   0.928238 0.361183 0.006803 -0.785569
H5    H     H_    0.050391 0.376322 0.051703 0.236467
H6    H     H_    0.944470 0.417059 0.914620 0.234860
H7    H     H_    0.897957 0.233765 0.993347 0.257244
N4    N     N_3   0.626573 0.247041 0.856613 -0.475241
H8    H     H_    0.721928 0.264645 0.784199 0.213730
H9    H     H_    0.516556 0.199608 0.818094 0.169252
N5    N     N_2   0.469634 0.652505 0.935356 -0.319775
H10   H     H_    0.356789 0.694168 0.911279 0.229594
C12   C     C_3   0.605316 0.772841 0.931041 -0.782505
H11   H     H_    0.565005 0.875852 0.991343 0.245760
H12   H     H_    0.634913 0.810088 0.833059 0.233895
H13   H     H_    0.721864 0.729530 0.966621 0.244567
N6    N     N_2   0.023948 0.371706 0.365468 -0.223986
H14   H     H_    0.145020 0.343084 0.373272 0.279909
C13   C     C_3   0.927616 0.231820 0.328590 -0.686794
H15   H     H_    0.997946 0.171090 0.247433 0.197057
H16   H     H_    0.802971 0.258499 0.297715 0.292594
H17   H     H_    0.912707 0.151358 0.407245 0.213139
N7    N     N_3   0.968419 0.632255 0.629092 -0.323216
H18   H     H_    0.015433 0.747422 0.618423 0.167864
H19   H     H_    0.008764 0.596617 0.713478 0.172507

loop_
_geom_bond_atom_site_label_1
_geom_bond_atom_site_label_2
_ccdc_geom_bond_type
C2    C10   D    
C2    C4    S    
C13   H15   S    
C3    O4    A    
C6    C7    D    
C3    C9    S    
N6    C13   S    
N6    H14   S    
N3    C11   S    
N5    H10   S    
C5    O8    A    
N2    N7    S    
O2    Zn2   S    
N4    H8    S    
C11   H6    S    
O1    Zn1   S    
C1    O1    A    
C7    H1    S    
C4    O6    A    
C13   H16   S    
N3    H4    S    
C6    N3    S    
C10   H2    S    
N1    N6    S    
O3    Zn1   S    
N2    Zn1   S    
N5    C12   S    
C12   H11   S    
C12   H13   S    
O8    Zn2   S    
N1    Zn2   S    
O4    Zn2   S    
C13   H17   S    
O7    Zn1   S    
C5    O7    A    
C9    N5    S    
C8    N4    S    
O5    Zn1   S    
C12   H12   S    
C3    O3    A    
N7    H19   S    
C5    C7    S    
C2    H3    S    
O6    Zn2   S    
N1    N2    D    
C11   H5    S    
C6    C8    S    
C1    O2    A    
C11   H7    S    
C1    C10   S    
N7    H18   S    
N4    H9    S    
C8    C9    D    
C4    O5    A    
