data_mof_unit_8231.cif
_audit_creation_date              2012-12-11T14:30:05-0500
_audit_creation_method            fapswitch 2.2
_symmetry_space_group_name_H-M    P1
_symmetry_Int_Tables_number       1
_space_group_crystal_system       triclinic
_cell_length_a                    13.014592
_cell_length_b                    13.099495
_cell_length_c                    26.788284
_cell_angle_alpha                 90.072318
_cell_angle_beta                  89.522609
_cell_angle_gamma                 119.158057
_cell_volume                      3988.09695526

loop_
_atom_site_label
_atom_site_type_symbol
_atom_type_description
_atom_site_fract_x
_atom_site_fract_y
_atom_site_fract_z
_atom_type_partial_charge
C1    C     C_R   0.558481 0.457517 0.821476 0.553872
C2    C     C_R   0.456400 0.557595 0.178766 0.537537
C3    C     C_R   0.935180 0.304478 0.469885 -0.007434
C4    C     C_R   0.339889 0.041227 0.028733 0.025502
C5    C     C_R   0.700661 0.650595 0.469756 0.041665
C6    C     C_R   0.318072 0.013114 0.528650 0.006701
C7    C     C_R   0.960747 0.293149 0.978273 0.020453
C8    C     C_R   0.701989 0.666642 0.521957 0.035767
C9    C     C_R   0.319933 0.023918 0.976592 0.000143
C10   C     C_R   0.959049 0.294616 0.520438 0.029502
C11   C     C_R   0.705807 0.661786 0.977637 0.035151
C12   C     C_3   0.107173 0.796008 0.126239 -0.038117
C13   C     C_R   0.441116 0.897572 0.321738 0.563134
C14   C     C_3   0.686899 0.876284 0.365691 -0.026225
C15   C     C_3   0.186280 0.321505 0.131176 -0.042186
C16   C     C_3   0.093888 0.791864 0.367099 -0.027662
C17   C     C_3   0.672493 0.855753 0.130033 -0.057458
C18   C     C_3   0.184489 0.317808 0.372051 -0.038637
C19   C     C_3   0.744047 0.017075 0.653875 -0.029901
C20   C     C_3   0.956024 0.709416 0.856244 -0.030414
C21   C     C_3   0.297009 0.226615 0.640134 -0.036710
C22   C     C_3   0.773740 0.063143 0.866562 -0.038643
C23   C     C_3   0.942606 0.707132 0.639611 -0.008919
C24   C     C_R   0.107434 0.547279 0.177202 0.556462
C25   C     C_3   0.297331 0.222815 0.869379 -0.038235
C26   C     C_3   0.835543 0.333840 0.159599 -0.073802
C27   C     C_3   0.420876 0.136384 0.340679 -0.069588
C28   C     C_3   0.703462 0.546868 0.165690 -0.078469
C29   C     C_3   0.838454 0.326935 0.338713 -0.065903
C30   C     C_3   0.452040 0.152816 0.161398 -0.076211
C31   C     C_3   0.704140 0.549209 0.335147 -0.084486
C32   C     C_3   0.287849 0.863866 0.666080 -0.060657
C33   C     C_3   0.097512 0.350432 0.842753 -0.046996
C34   C     C_3   0.625277 0.730777 0.658155 -0.088095
C35   C     C_R   0.024487 0.500888 0.969548 -0.035685
C36   C     C_3   0.268789 0.897173 0.835318 -0.050190
C37   C     C_3   0.106484 0.364798 0.658298 -0.079701
C38   C     C_3   0.634364 0.736668 0.845043 -0.061665
C39   C     C_2   0.880592 0.194434 0.060221 0.702831
C40   C     C_2   0.262151 0.074356 0.449688 0.686690
C41   C     C_2   0.816064 0.717426 0.057224 0.638104
C42   C     C_2   0.837135 0.203915 0.445692 0.669906
C43   C     C_2   0.281524 0.093801 0.057728 0.697308
C44   C     C_2   0.811692 0.717596 0.441521 0.661173
C45   C     C_2   0.224818 0.030825 0.554113 0.568422
C46   C     C_R   0.491075 0.985296 0.528093 -0.034926
C47   C     C_2   0.951652 0.182260 0.959013 0.571622
C48   C     C_2   0.812253 0.760456 0.543787 0.604294
C49   C     C_2   0.214677 0.026972 0.956040 0.569756
C50   C     C_2   0.953833 0.181520 0.534902 0.560465
C51   C     C_2   0.820641 0.741197 0.954490 0.612685
C52   C     C_R   0.501902 0.506746 0.973824 -0.043181
C53   C     C_R   0.018996 0.502075 0.529649 -0.049079
C54   C     C_R   0.483051 0.980713 0.971063 -0.044546
C55   C     C_R   0.499452 0.506588 0.527224 -0.045929
C56   C     C_R   0.486551 0.975935 0.475436 -0.024026
C57   C     C_R   0.900423 0.441326 0.678997 0.559641
C58   C     C_R   0.035618 0.512693 0.021818 -0.026867
C59   C     C_R   0.492270 0.505684 0.474399 -0.042686
C60   C     C_R   0.484622 0.974820 0.023880 -0.037031
C61   C     C_R   0.029109 0.514208 0.477278 -0.029464
C62   C     C_R   0.494883 0.506067 0.026680 -0.041999
C63   C     C_R   0.130400 0.710338 0.959484 -0.104749
C64   C     C_R   0.669188 0.969730 0.527369 -0.085004
C65   C     C_R   0.296424 0.361685 0.969710 -0.089546
C66   C     C_R   0.108648 0.711693 0.537979 -0.088665
C67   C     C_R   0.627661 0.915249 0.965547 -0.086992
C68   C     C_R   0.541882 0.099773 0.821223 0.548889
C69   C     C_R   0.292332 0.365142 0.533142 -0.073264
C70   C     C_R   0.655887 0.944338 0.476859 -0.076858
C71   C     C_R   0.149396 0.722779 0.010744 -0.097067
C72   C     C_R   0.284080 0.364274 0.481329 -0.059189
C73   C     C_R   0.628491 0.907842 0.017385 -0.065642
C74   C     C_R   0.126626 0.724442 0.486648 -0.077109
C75   C     C_R   0.287344 0.362517 0.021329 -0.063025
C76   C     C_R   0.017953 0.586407 0.889263 0.214438
C77   C     C_R   0.611380 0.032058 0.602970 0.201349
C78   C     C_R   0.416482 0.413006 0.893783 0.197374
C79   C     C_R   0.558722 0.457354 0.678580 0.554169
C80   C     C_R   0.011900 0.586683 0.610103 0.193387
C81   C     C_R   0.581491 0.992819 0.890998 0.196092
C82   C     C_R   0.414688 0.411764 0.607700 0.203632
C83   C     C_R   0.567604 0.947830 0.396798 0.232419
C84   C     C_R   0.110859 0.638104 0.094521 0.219299
C85   C     C_R   0.377356 0.430390 0.397994 0.228449
C86   C     C_R   0.565030 0.939097 0.100073 0.236028
C87   C     C_R   0.099164 0.638605 0.403745 0.224992
C88   C     C_R   0.379429 0.430565 0.103571 0.237194
C89   C     C_R   0.062750 0.538087 0.125798 -0.001986
C90   C     C_R   0.900069 0.441203 0.820990 0.550797
C91   C     C_R   0.478173 0.954695 0.371173 0.024611
C92   C     C_R   0.476069 0.513581 0.130593 0.005411
C93   C     C_R   0.057058 0.537641 0.373324 -0.006194
C94   C     C_R   0.483213 0.955533 0.128435 0.036848
C95   C     C_R   0.473969 0.514227 0.370320 0.005930
C96   C     C_R   0.521456 0.037439 0.630318 -0.018411
C97   C     C_R   0.967400 0.474561 0.868525 0.002313
C98   C     C_R   0.522414 0.485573 0.630114 0.009743
C99   C     C_R   0.509460 0.030323 0.868630 0.010912
C100  C     C_R   0.968927 0.476131 0.631467 -0.004291
C101  C     C_R   0.544659 0.102777 0.678097 0.553281
C102  C     C_R   0.523268 0.486807 0.870271 0.013532
C103  C     C_R   0.058297 0.600595 0.939051 0.053453
C104  C     C_R   0.589533 0.992682 0.553322 0.018969
C105  C     C_R   0.403726 0.427446 0.945492 0.004707
C106  C     C_R   0.047590 0.601324 0.559594 0.028142
C107  C     C_R   0.563620 0.961046 0.942160 0.014801
C108  C     C_R   0.400940 0.427680 0.556334 0.020681
C109  C     C_R   0.569225 0.953535 0.449502 0.052903
C110  C     C_R   0.096693 0.625216 0.042628 0.053964
C111  C     C_R   0.383796 0.431305 0.450945 0.043458
C112  C     C_R   0.455566 0.557675 0.321608 0.541594
C113  C     C_R   0.560550 0.941039 0.047322 0.051768
C114  C     C_R   0.083343 0.626314 0.455647 0.055237
C115  C     C_R   0.386309 0.431809 0.050791 0.047180
C116  C     C_R   0.980994 0.387432 0.894583 0.215150
C117  C     C_R   0.409699 0.994822 0.608218 0.215517
C118  C     C_R   0.606459 0.587256 0.896311 0.211730
C119  C     C_R   0.986071 0.391011 0.605041 0.265159
C120  C     C_R   0.404125 0.007740 0.893822 0.213193
C121  C     C_R   0.603393 0.587941 0.604074 0.220052
C122  C     C_R   0.411848 0.999018 0.395519 0.259501
C123  C     C_R   0.442272 0.897556 0.178019 0.564987
C124  C     C_R   0.989194 0.427397 0.105539 0.199594
C125  C     C_R   0.585338 0.570664 0.392284 0.205693
C126  C     C_R   0.424587 0.009088 0.106220 0.252651
C127  C     C_R   0.985096 0.427057 0.394229 0.194632
C128  C     C_R   0.587758 0.569417 0.108182 0.202021
C129  C     C_R   0.989101 0.391881 0.947186 -0.037325
C130  C     C_R   0.402050 0.994040 0.555317 -0.037440
C131  C     C_R   0.605518 0.587836 0.949046 -0.041114
C132  C     C_R   0.988387 0.393305 0.552223 -0.024192
C133  C     C_R   0.399242 0.002332 0.946832 -0.043192
C134  C     C_R   0.106131 0.547011 0.322571 0.552967
C135  C     C_R   0.602613 0.589645 0.551325 -0.036156
C136  C     C_R   0.408811 0.001649 0.448673 -0.023269
C137  C     C_R   0.985924 0.412498 0.052812 -0.047379
C138  C     C_R   0.594477 0.574634 0.445181 -0.043681
C139  C     C_R   0.417179 0.010769 0.053145 -0.030485
C140  C     C_R   0.981382 0.414329 0.446861 -0.037120
C141  C     C_R   0.597246 0.574402 0.055294 -0.046980
C142  C     C_R   0.943186 0.301627 0.030118 0.018458
C143  C     C_R   0.330470 0.028277 0.475858 0.025005
C144  C     C_R   0.703927 0.649242 0.030060 0.038594
Cr1   Cr    Cr6+3 0.487630 0.241180 0.750000 1.010785
Cr2   Cr    Cr6+3 0.753550 0.512370 0.750000 1.009173
Cr3   Cr    Cr6+3 0.758820 0.246450 0.750000 1.031421
Cr4   Cr    Cr6+3 0.241180 0.487630 0.250000 1.018121
Cr5   Cr    Cr6+3 0.512370 0.753550 0.250000 1.007283
Cr6   Cr    Cr6+3 0.246450 0.758820 0.250000 1.033473
H1    H     H_    0.202855 0.809178 0.025486 0.151605
H2    H     H_    0.681388 0.889498 0.943873 0.192327
H3    H     H_    0.141898 0.787635 0.560969 0.206531
H4    H     H_    0.219364 0.307845 0.948579 0.218085
H5    H     H_    0.075627 0.816846 0.091619 0.182328
H6    H     H_    0.158440 0.878382 0.147063 0.201746
H7    H     H_    0.031354 0.736979 0.150517 0.122422
H8    H     H_    0.621880 0.797125 0.386508 0.118440
H9    H     H_    0.776415 0.903477 0.378730 0.181489
H10   H     H_    0.688961 0.856029 0.325736 0.186918
H11   H     H_    0.124901 0.242478 0.110835 0.163568
H12   H     H_    0.719631 0.925783 0.459303 0.194295
H13   H     H_    0.182439 0.398569 0.115969 0.116239
H14   H     H_    0.154801 0.304505 0.170365 0.192346
H15   H     H_    0.065320 0.824009 0.399379 0.183922
H16   H     H_    0.016241 0.725997 0.346023 0.111501
H17   H     H_    0.143697 0.866700 0.341547 0.186272
H18   H     H_    0.749727 0.863625 0.110057 0.162180
H19   H     H_    0.592905 0.775793 0.117041 0.124427
H20   H     H_    0.690053 0.848815 0.169884 0.198058
H21   H     H_    0.178345 0.393780 0.387309 0.114154
H22   H     H_    0.125795 0.237770 0.393066 0.113194
H23   H     H_    0.201650 0.307141 0.037094 0.154904
H24   H     H_    0.152311 0.300945 0.333174 0.191333
H25   H     H_    0.818263 0.073859 0.678507 0.178581
H26   H     H_    0.770911 0.960683 0.633220 0.177156
H27   H     H_    0.666535 0.964067 0.678474 0.041754
H28   H     H_    0.985312 0.795312 0.873954 0.209163
H29   H     H_    0.871147 0.642704 0.873206 0.192732
H30   H     H_    0.939773 0.720394 0.816537 0.140661
H31   H     H_    0.357379 0.208187 0.616768 0.170077
H32   H     H_    0.204314 0.168639 0.630091 0.163883
H33   H     H_    0.302023 0.202918 0.679363 0.172707
H34   H     H_    0.171124 0.811095 0.471135 0.164039
H35   H     H_    0.825783 0.025379 0.882796 0.189965
H36   H     H_    0.783307 0.138491 0.889386 0.175621
H37   H     H_    0.811793 0.096647 0.829028 0.175590
H38   H     H_    0.862821 0.642120 0.619360 0.175019
H39   H     H_    0.974537 0.795088 0.623487 0.205276
H40   H     H_    0.916309 0.712431 0.678604 0.154607
H41   H     H_    0.206180 0.170142 0.883534 0.203074
H42   H     H_    0.359375 0.210081 0.893700 0.158336
H43   H     H_    0.298893 0.188149 0.831789 0.186689
H44   H     H_    0.773814 0.332428 0.130720 0.131325
H45   H     H_    0.683878 0.876792 0.033344 0.161874
H46   H     H_    0.862362 0.410332 0.184626 0.071597
H47   H     H_    0.787068 0.253805 0.182699 0.154956
H48   H     H_    0.468574 0.119242 0.310084 0.082628
H49   H     H_    0.484925 0.205491 0.365870 0.142074
H50   H     H_    0.366906 0.170931 0.323308 0.177488
H51   H     H_    0.706254 0.479873 0.140946 0.120011
H52   H     H_    0.635027 0.503805 0.195170 0.094660
H53   H     H_    0.789762 0.593897 0.184554 0.130746
H54   H     H_    0.866767 0.399859 0.311451 0.073243
H55   H     H_    0.773678 0.328422 0.365707 0.133692
H56   H     H_    0.197962 0.311013 0.466205 0.150493
H57   H     H_    0.792789 0.243886 0.317599 0.168084
H58   H     H_    0.515853 0.218400 0.134530 0.131795
H59   H     H_    0.499733 0.131399 0.190147 0.079216
H60   H     H_    0.405907 0.193947 0.180817 0.171110
H61   H     H_    0.635405 0.502465 0.306624 0.094460
H62   H     H_    0.710120 0.485232 0.360642 0.127363
H63   H     H_    0.789704 0.597261 0.315171 0.126849
H64   H     H_    0.360004 0.879166 0.692120 0.069647
H65   H     H_    0.269836 0.789283 0.640980 0.132919
H66   H     H_    0.208572 0.839670 0.689469 0.185529
H67   H     H_    0.742649 0.971892 0.546101 0.216545
H68   H     H_    0.171700 0.403942 0.868224 0.160716
H69   H     H_    0.099650 0.405055 0.810638 0.103324
H70   H     H_    0.110359 0.278635 0.827560 0.174379
H71   H     H_    0.551317 0.665102 0.681352 0.100733
H72   H     H_    0.591452 0.774634 0.632824 0.108346
H73   H     H_    0.688285 0.794802 0.684869 0.118086
H74   H     H_    0.258751 0.819260 0.856008 0.146195
H75   H     H_    0.327614 0.911915 0.802755 0.104446
H76   H     H_    0.182786 0.878808 0.819922 0.177762
H77   H     H_    0.100445 0.417066 0.689726 0.100373
H78   H     H_    0.169981 0.786330 0.935963 0.190784
H79   H     H_    0.182137 0.422377 0.633723 0.140738
H80   H     H_    0.122662 0.296754 0.675099 0.177500
H81   H     H_    0.580803 0.757982 0.871253 0.148353
H82   H     H_    0.577598 0.681259 0.814349 0.102765
H83   H     H_    0.703278 0.818544 0.827690 0.179787
H84   H     H_    0.886293 0.061567 0.095638 0.363179
H85   H     H_    0.104317 0.052534 0.429723 0.342965
H86   H     H_    0.945148 0.877128 0.076908 0.344273
H87   H     H_    0.940418 0.148837 0.411832 0.323759
H88   H     H_    0.134688 0.074204 0.091977 0.345597
H89   H     H_    0.213316 0.314796 0.555090 0.172911
H90   H     H_    0.930128 0.874446 0.413832 0.327549
H91   H     H_    0.130728 0.114497 0.554603 0.349170
H92   H     H_    0.883818 0.009742 0.969019 0.372848
H93   H     H_    0.987846 0.845794 0.537822 0.369021
H94   H     H_    0.092556 0.072909 0.970633 0.383293
H95   H     H_    0.957875 0.037141 0.510569 0.378034
H96   H     H_    0.991570 0.799930 0.963099 0.372883
O1    O     O_R   0.460870 0.120930 0.805240 -0.502024
O2    O     O_R   0.120930 0.460870 0.194760 -0.508356
O3    O     O_R   0.539130 0.660060 0.305240 -0.507144
O4    O     O_R   0.339940 0.879070 0.194760 -0.458990
O5    O     O_R   0.498910 0.350470 0.801870 -0.489148
O6    O     O_R   0.851560 0.501090 0.698130 -0.500433
O7    O     O_R   0.649530 0.148440 0.801870 -0.495098
O8    O     O_R   0.498910 0.350470 0.698130 -0.500732
O9    O     O_R   0.851560 0.501090 0.801870 -0.503884
O10   O     O_R   0.649530 0.148440 0.698130 -0.471692
O11   O     O_R   0.350470 0.498910 0.301870 -0.490632
O12   O     O_R   0.660060 0.539130 0.694760 -0.491767
O13   O     O_R   0.501090 0.851560 0.198130 -0.505062
O14   O     O_R   0.148440 0.649530 0.301870 -0.484271
O15   O     O_R   0.350470 0.498910 0.198130 -0.490918
O16   O     O_R   0.501090 0.851560 0.301870 -0.503771
O17   O     O_R   0.148440 0.649530 0.198130 -0.484184
O18   O     O_3   0.666667 0.333333 0.750000 -0.277466
O19   O     O_3   0.333333 0.666667 0.250000 -0.278322
O20   O     O_3   0.180512 0.748143 0.114252 -0.567646
O21   O     O_3   0.668157 0.972957 0.369502 -0.529077
O22   O     O_3   0.298714 0.331729 0.129467 -0.548865
O23   O     O_R   0.879070 0.339940 0.805240 -0.495486
O24   O     O_3   0.168245 0.748888 0.383594 -0.557813
O25   O     O_3   0.667400 0.959266 0.123636 -0.560695
O26   O     O_3   0.298254 0.331238 0.372418 -0.547200
O27   O     O_3   0.725983 0.088795 0.619955 -0.489121
O28   O     O_3   0.047749 0.681506 0.858490 -0.633550
O29   O     O_3   0.319053 0.343060 0.638055 -0.636982
O30   O     O_3   0.656943 0.973369 0.860934 -0.640664
O31   O     O_3   0.035981 0.681396 0.640342 -0.615578
O32   O     O_3   0.322057 0.339632 0.864517 -0.632837
O33   O     O_3   0.934067 0.332767 0.137677 -0.540011
O34   O     O_R   0.460870 0.120930 0.694760 -0.497237
O35   O     O_3   0.345002 0.032841 0.367128 -0.543325
O36   O     O_3   0.685506 0.628793 0.138175 -0.553171
O37   O     O_3   0.935635 0.330285 0.363307 -0.550061
O38   O     O_3   0.367347 0.051120 0.136882 -0.541627
O39   O     O_3   0.683454 0.630736 0.361823 -0.554123
O40   O     O_3   0.312553 0.965052 0.638347 -0.512655
O41   O     O_3   0.988113 0.300639 0.868195 -0.546720
O42   O     O_3   0.684947 0.683532 0.630359 -0.536806
O43   O     O_3   0.309822 0.996658 0.866437 -0.542455
O44   O     O_3   0.000942 0.308409 0.631072 -0.488630
O45   O     O_R   0.660060 0.539130 0.805240 -0.492247
O46   O     O_3   0.690365 0.682923 0.870197 -0.544919
O47   O     O_2   0.779481 0.162514 0.073315 -0.467799
O48   O     O_R   0.936353 0.130466 0.073251 -0.695519
O49   O     O_2   0.313482 0.173114 0.432560 -0.458882
O50   O     O_R   0.139877 0.008794 0.447300 -0.706411
O51   O     O_2   0.860901 0.666534 0.078388 -0.520109
O52   O     O_R   0.875417 0.839345 0.053916 -0.718993
O53   O     O_2   0.739163 0.193924 0.449061 -0.493114
O54   O     O_R   0.855059 0.126626 0.415879 -0.603803
O55   O     O_2   0.339564 0.194874 0.070933 -0.467229
O56   O     O_R   0.879070 0.339940 0.694760 -0.463204
O57   O     O_R   0.162786 0.028645 0.070675 -0.712559
O58   O     O_2   0.860143 0.666710 0.423038 -0.524506
O59   O     O_R   0.863640 0.839010 0.438991 -0.722450
O60   O     O_2   0.161379 0.964569 0.586563 -0.530982
O61   O     O_R   0.203996 0.120294 0.538589 -0.697209
O62   O     O_2   0.023028 0.184071 0.928887 -0.541020
O63   O     O_R   0.867325 0.075131 0.978148 -0.694237
O64   O     O_2   0.811764 0.839381 0.567745 -0.537211
O65   O     O_R   0.918920 0.765697 0.531580 -0.692038
O66   O     O_2   0.152258 0.956349 0.925103 -0.533407
O67   O     O_R   0.120930 0.460870 0.305240 -0.503072
O68   O     O_R   0.179526 0.103758 0.975361 -0.694066
O69   O     O_2   0.930962 0.142609 0.577094 -0.440292
O70   O     O_R   0.974355 0.117000 0.498424 -0.747345
O71   O     O_2   0.835876 0.827230 0.930966 -0.533929
O72   O     O_R   0.915365 0.724534 0.965806 -0.697511
O73   O     O_R   0.539130 0.660060 0.194760 -0.513372
O74   O     O_R   0.339940 0.879070 0.305240 -0.461474

loop_
_geom_bond_atom_site_label_1
_geom_bond_atom_site_label_2
_ccdc_geom_bond_type
C98   C121  A    
C55   C59   A    
Cr5   O19   S    
C26   H46   S    
H88   O57   S    
C28   O36   S    
C54   C107  A    
C14   H8    S    
H84   O48   S    
C15   H13   S    
C66   C106  A    
C23   H38   S    
C42   O53   D    
C74   C114  A    
C120  C133  A    
C26   H47   S    
C19   H26   S    
C118  C131  A    
C32   H65   S    
C53   C106  A    
C69   C108  A    
C37   O44   S    
C91   C122  A    
C59   C111  A    
C12   H7    S    
C36   H74   S    
Cr6   O17   S    
C76   C103  A    
C13   C91   S    
C8    C135  A    
C82   C98   A    
C21   H32   S    
C27   H48   S    
C120  O43   S    
C70   H12   S    
C125  O39   S    
C77   O27   S    
C124  C137  A    
C78   O32   S    
C15   O22   S    
C141  C144  A    
C88   O22   S    
C72   H56   S    
C81   C99   A    
C123  O13   A    
C44   O59   S    
C48   O65   S    
H86   O52   S    
C66   H3    S    
C41   O52   S    
C51   O71   D    
Cr1   O18   S    
C9    C49   S    
C53   C132  A    
C121  C135  A    
C69   H89   S    
Cr6   O19   S    
C122  C136  A    
H91   O61   S    
C63   C71   A    
C80   O31   S    
Cr1   O8    S    
C75   C115  A    
C45   O61   S    
C57   O56   A    
C26   H44   S    
C58   C110  A    
C15   H11   S    
C25   H42   S    
C5    C8    A    
C38   H81   S    
C4    C43   S    
C125  C138  A    
H92   O63   S    
C83   C91   A    
C122  O35   S    
C12   O20   S    
C9    C133  A    
C137  C142  A    
C36   H75   S    
C101  O34   A    
C128  O36   S    
C6    C130  A    
C38   H83   S    
C18   O26   S    
C112  O3    A    
C37   H79   S    
C64   H67   S    
C35   C58   A    
C28   H51   S    
C85   O26   S    
C86   O25   S    
C136  C143  A    
C32   O40   S    
C74   H34   S    
C66   C74   A    
C80   C106  A    
C29   H55   S    
C1    O45   A    
C53   C61   A    
C68   O7    A    
C33   O41   S    
C34   O42   S    
C82   C108  A    
C19   H27   S    
H87   O54   S    
C32   H64   S    
C29   H54   S    
C13   O74   A    
C12   H6    S    
C65   C105  A    
C56   C136  A    
Cr6   O4    S    
C20   H29   S    
C33   H69   S    
C36   O43   S    
C126  C139  A    
Cr1   O1    S    
C96   C117  A    
C27   H49   S    
C17   H20   S    
C59   C138  A    
Cr3   O7    S    
C121  O42   S    
C22   H36   S    
C69   C72   A    
Cr2   O45   S    
C16   H15   S    
C84   O20   S    
C100  C119  A    
C48   O64   D    
C50   O69   D    
C18   H24   S    
C52   C105  A    
Cr2   O12   S    
C127  C140  A    
C56   C109  A    
C14   O21   S    
C128  C141  A    
C64   C104  A    
C67   H2    S    
C28   H53   S    
Cr1   O5    S    
C25   O32   S    
C17   H18   S    
C46   C130  A    
C16   O24   S    
C1    O5    A    
C61   C140  A    
C31   H63   S    
C89   C124  A    
C77   C96   A    
C29   H57   S    
C55   C108  A    
C81   O30   S    
C88   C115  A    
C82   O29   S    
C62   C115  A    
C52   C62   A    
C4    C139  A    
C85   C95   A    
C42   O54   S    
C87   C93   A    
C24   O17   A    
C19   H25   S    
C40   O50   S    
C32   H66   S    
C40   C143  S    
C46   C56   A    
C61   C114  A    
C12   H5    S    
C4    C9    A    
H94   O68   S    
C23   H40   S    
C49   O68   S    
C81   C107  A    
C3    C42   S    
C6    C45   S    
Cr2   O9    S    
C78   C102  A    
Cr4   O11   S    
C30   H59   S    
C23   O31   S    
C18   H21   S    
C34   H73   S    
C86   C113  A    
C35   C103  A    
C95   C112  S    
C87   O24   S    
Cr5   O73   S    
C16   H17   S    
C71   C110  A    
C73   C113  A    
C116  O41   S    
H85   O50   S    
Cr5   O13   S    
C41   O51   D    
C71   H1    S    
C31   H62   S    
C126  O38   S    
C39   O47   D    
H93   O65   S    
Cr2   O18   S    
C67   C73   A    
C49   O66   D    
C13   O16   A    
C90   C97   S    
C34   H71   S    
C17   O25   S    
C94   C123  S    
C72   C111  A    
C96   C101  S    
C118  O46   S    
C31   O39   S    
C45   O60   D    
C21   O29   S    
C26   O33   S    
C22   O30   S    
Cr5   O3    S    
C15   H14   S    
C123  O4    A    
C63   C103  A    
C25   H41   S    
C38   H82   S    
C76   C97   A    
C54   C133  A    
C46   C104  A    
C44   O58   D    
Cr2   O6    S    
C7    C47   S    
C8    C48   S    
C30   H60   S    
C39   C142  S    
C30   H58   S    
C38   O46   S    
C76   O28   S    
C97   C116  A    
C134  O67   A    
C41   C144  S    
C5    C44   S    
C73   H45   S    
C90   O23   A    
C10   C50   S    
Cr5   O16   S    
C25   H43   S    
C36   H76   S    
C52   C131  A    
C85   C111  A    
H95   O70   S    
C20   H28   S    
C63   H78   S    
C14   H9    S    
C47   O63   S    
C28   H52   S    
Cr3   O23   S    
C51   O72   S    
C43   O57   S    
C79   O8    A    
C7    C129  A    
C37   H77   S    
C77   C104  A    
Cr3   O18   S    
C1    C102  S    
H90   O59   S    
Cr4   O19   S    
C90   O9    A    
C75   H23   S    
C79   C98   S    
C24   C89   S    
C5    C138  A    
C20   H30   S    
C54   C60   A    
C33   H68   S    
C21   H31   S    
C43   O55   D    
C78   C105  A    
C119  O44   S    
C17   H19   S    
C2    O15   A    
Cr6   O74   S    
Cr3   O10   S    
Cr4   O2    S    
C2    O73   A    
C127  O37   S    
C22   H37   S    
C87   C114  A    
C86   C94   A    
Cr6   O14   S    
C99   C120  A    
C116  C129  A    
C88   C92   A    
C16   H16   S    
C83   C109  A    
C47   O62   D    
C64   C70   A    
Cr4   O15   S    
C11   C144  A    
C35   C129  A    
C102  C118  A    
C50   O70   S    
Cr4   O67   S    
Cr3   O56   S    
C80   C100  A    
C60   C113  A    
C39   O48   S    
C92   C128  A    
C124  O33   S    
C10   C132  A    
C94   C126  A    
C68   O1    A    
C37   H80   S    
C101  O10   A    
C93   C134  S    
C57   C100  S    
C84   C110  A    
C14   H10   S    
C93   C127  A    
C65   H4    S    
C70   C109  A    
C112  O11   A    
C95   C125  A    
C29   O37   S    
C30   O38   S    
C119  C132  A    
C57   O6    A    
C2    C92   S    
C117  C130  A    
C58   C137  A    
C24   O2    A    
Cr1   O34   S    
C84   C89   A    
C62   C141  A    
C23   H39   S    
C33   H70   S    
C21   H33   S    
C79   O12   A    
C27   H50   S    
C11   C131  A    
C27   O35   S    
C18   H22   S    
C65   C75   A    
C22   H35   S    
C83   O21   S    
C117  O40   S    
C68   C99   S    
C3    C10   A    
H96   O72   S    
C67   C107  A    
C19   O27   S    
C55   C135  A    
C20   O28   S    
C11   C51   S    
C60   C139  A    
C31   H61   S    
C134  O14   A    
C40   O49   D    
C3    C140  A    
C6    C143  A    
C7    C142  A    
C34   H72   S    
