data_mof_unit_54950.cif
_audit_creation_date              2012-12-10T20:50:10-0500
_audit_creation_method            fapswitch 2.2
_symmetry_space_group_name_H-M    P1
_symmetry_Int_Tables_number       1
_space_group_crystal_system       triclinic
_cell_length_a                    19.14857
_cell_length_b                    8.933909
_cell_length_c                    8.102129
_cell_angle_alpha                 89.988461
_cell_angle_beta                  89.871733
_cell_angle_gamma                 89.988449
_cell_volume                      1386.0404951

loop_
_atom_site_label
_atom_site_type_symbol
_atom_type_description
_atom_site_fract_x
_atom_site_fract_y
_atom_site_fract_z
_atom_type_partial_charge
C1    C     C_R   0.499984 0.217972 0.500011 0.937077
C2    C     C_R   0.258338 0.402158 0.369089 -0.299937
C3    C     C_R   0.178780 0.495450 0.641932 0.470977
C4    C     C_R   0.817225 0.429016 0.348690 0.478206
C5    C     C_R   0.819815 0.464143 0.648030 0.478532
C6    C     C_R   0.187135 0.372121 0.373202 0.475408
C7    C     C_R   0.147018 0.423573 0.507013 -0.137382
C8    C     C_R   0.855006 0.434491 0.498043 -0.161244
C9    C     C_R   0.290056 0.476694 0.500900 -0.163906
C10   C     C_R   0.710734 0.482704 0.498883 -0.182090
C11   C     C_R   0.931018 0.417984 0.495854 0.324592
C12   C     C_R   0.499987 0.782029 0.499988 0.938633
C13   C     C_R   0.071608 0.411903 0.500134 0.364064
C14   C     C_3   0.152252 0.479159 0.915525 -0.173399
C15   C     C_3   0.842858 0.250030 0.159872 -0.219913
C16   C     C_3   0.866117 0.617900 0.841969 -0.200293
C17   C     C_3   0.163879 0.143498 0.266165 -0.316884
C18   C     C_R   0.365118 0.497796 0.500175 0.915451
C19   C     C_R   0.635056 0.498311 0.499765 0.919457
C20   C     C_1   0.499973 0.065188 0.500013 -0.195860
C21   C     C_1   0.499974 0.934819 0.499980 -0.196638
C22   C     C_R   0.250566 0.522505 0.637146 -0.297061
C23   C     C_R   0.745783 0.456989 0.349957 -0.292318
C24   C     C_R   0.747707 0.484491 0.647450 -0.295796
H1    H     H_    0.275129 0.582919 0.737347 0.174448
H2    H     H_    0.871625 0.227730 0.043451 0.221804
H3    H     H_    0.895332 0.680122 0.744702 0.140018
H4    H     H_    0.898217 0.620262 0.955747 0.224098
H5    H     H_    0.815852 0.675015 0.870131 0.140188
H6    H     H_    0.137518 0.084426 0.163272 0.201299
H7    H     H_    0.138675 0.106449 0.383272 0.169518
H8    H     H_    0.219885 0.110130 0.264149 0.164279
H9    H     H_    0.717716 0.454812 0.233996 0.189469
H10   H     H_    0.720945 0.502384 0.763766 0.188026
H11   H     H_    0.288857 0.364398 0.264252 0.179850
H12   H     H_    0.146962 0.355658 0.900731 0.180448
H13   H     H_    0.113435 0.515092 0.009333 0.222546
H14   H     H_    0.204878 0.507917 0.963664 0.151518
H15   H     H_    0.787134 0.220438 0.138840 0.145222
H16   H     H_    0.865791 0.177054 0.257173 0.136529
N1    N     N_1   0.500000 0.500000 0.073640 -0.037779
N2    N     N_1   0.500000 0.500000 0.926360 -0.037383
N3    N     N_R   0.037365 0.461013 0.364676 -0.141883
N4    N     N_R   0.965522 0.365662 0.629983 -0.116488
N5    N     N_R   0.968172 0.464340 0.362827 -0.121096
N6    N     N_R   0.034807 0.363216 0.632474 -0.149843
O1    O     O_R   0.500000 0.285350 0.636850 -0.614106
O2    O     O_3   0.850323 0.402772 0.199637 -0.580537
O3    O     O_3   0.855228 0.467365 0.796578 -0.580938
O4    O     O_3   0.156102 0.298859 0.242342 -0.626815
O5    O     O_R   0.500000 0.714650 0.363150 -0.614162
O6    O     O_R   0.500000 0.714650 0.636850 -0.615706
O7    O     O_R   0.500000 0.285350 0.363150 -0.617800
O8    O     O_R   0.398140 0.500000 0.636920 -0.621213
O9    O     O_R   0.601860 0.500000 0.363080 -0.624532
O10   O     O_R   0.601860 0.500000 0.636920 -0.623277
O11   O     O_R   0.398140 0.500000 0.363080 -0.622579
O12   O     O_3   0.138114 0.555467 0.767004 -0.616722
Zn1   Zn    Zn3+2 0.500000 0.500000 0.682780 0.983032
Zn2   Zn    Zn3+2 0.500000 0.500000 0.317220 0.980889

loop_
_geom_bond_atom_site_label_1
_geom_bond_atom_site_label_2
_ccdc_geom_bond_type
N2    Zn1   S    
C16   H4    S    
C17   O4    S    
C15   H2    S    
C6    C7    A    
O6    Zn1   S    
C10   C23   A    
C14   H14   S    
N1    N2    T    
C18   O11   A    
O10   Zn1   S    
C13   N3    A    
C10   C19   S    
C4    C8    A    
C15   H15   S    
C20   C21   T    
C16   H3    S    
O11   Zn2   S    
C11   N4    A    
O9    Zn2   S    
C6    O4    S    
C14   H13   S    
C17   H6    S    
N3    N5    A    
C5    O3    S    
C2    C6    A    
C5    C24   A    
C15   O2    S    
C8    C11   S    
C14   O12   S    
C12   O6    A    
O7    Zn2   S    
N4    N6    A    
C19   O10   A    
C3    C7    A    
O8    Zn1   S    
C14   H12   S    
C13   N6    A    
C17   H7    S    
C15   H16   S    
C11   N5    A    
C5    C8    A    
C18   O8    A    
O1    Zn1   S    
C3    O12   S    
C9    C18   S    
C7    C13   S    
C12   O5    A    
C16   O3    S    
C23   H9    S    
C9    C22   A    
C4    O2    S    
C19   O9    A    
C17   H8    S    
C4    C23   A    
C1    O7    A    
C1    O1    A    
C3    C22   A    
O5    Zn2   S    
C10   C24   A    
C16   H5    S    
C2    C9    A    
C12   C21   S    
C2    H11   S    
C24   H10   S    
N1    Zn2   S    
C1    C20   S    
C22   H1    S    
