data_mof_unit_60948.cif
_audit_creation_date              2012-10-26T19:01:49-0400
_audit_creation_method            fapswitch 2.2
_symmetry_space_group_name_H-M    P1
_symmetry_Int_Tables_number       1
_space_group_crystal_system       triclinic
_cell_length_a                    13.908495
_cell_length_b                    15.877133
_cell_length_c                    17.107633
_cell_angle_alpha                 95.80766
_cell_angle_beta                  88.637996
_cell_angle_gamma                 82.921312
_cell_volume                      3727.27599307

loop_
_atom_site_label
_atom_site_type_symbol
_atom_type_description
_atom_site_fract_x
_atom_site_fract_y
_atom_site_fract_z
_atom_type_partial_charge
Br1   Br    Br    0.360276 0.641522 0.277742 -0.434763
Br2   Br    Br    0.639704 0.358461 0.722258 -0.434755
Br3   Br    Br    0.640532 0.685652 0.386613 -0.446854
Br4   Br    Br    0.359468 0.314348 0.613387 -0.446849
C1    C     C_R   0.501051 0.509894 0.651151 0.576941
C2    C     C_R   0.544406 0.839311 0.464396 -0.079312
C3    C     C_R   0.520938 0.106823 0.483478 0.168807
C4    C     C_R   0.479062 0.893177 0.516521 0.168807
C5    C     C_R   0.581506 0.145556 0.435293 -0.128990
C6    C     C_R   0.418493 0.854444 0.564706 -0.128990
C7    C     C_R   0.576203 0.235504 0.439221 0.217253
C8    C     C_R   0.423796 0.764496 0.560778 0.217252
C9    C     C_R   0.316459 0.513370 0.500559 0.560530
C10   C     C_R   0.683541 0.486630 0.499441 0.560526
C11   C     C_1   0.786564 0.478928 0.500014 0.010985
C12   C     C_R   0.498950 0.490106 0.348849 0.576945
C13   C     C_1   0.213436 0.521072 0.499986 0.010988
C14   C     C_2   0.977167 0.464937 0.501687 0.104347
C15   C     C_2   0.022833 0.535063 0.498312 0.104347
C16   C     C_1   0.126622 0.527983 0.499272 0.029300
C17   C     C_1   0.873378 0.472017 0.500728 0.029299
C18   C     C_R   0.500350 0.514768 0.737003 0.007463
C19   C     C_R   0.499653 0.485232 0.262997 0.007468
C20   C     C_R   0.553432 0.451333 0.776108 0.133012
C21   C     C_R   0.446561 0.548659 0.223892 0.133009
C22   C     C_R   0.547382 0.456609 0.857749 -0.070035
C23   C     C_R   0.437669 0.588960 0.862871 0.110547
C24   C     C_R   0.452612 0.543384 0.142250 -0.070032
C25   C     C_R   0.488799 0.524780 0.901800 0.229341
C26   C     C_R   0.511206 0.475219 0.098201 0.229342
C27   C     C_R   0.562347 0.411047 0.137131 0.110548
C28   C     C_R   0.443984 0.583643 0.780709 -0.152844
C29   C     C_R   0.556029 0.416363 0.219293 -0.152842
C30   C     C_R   0.451826 0.249804 0.538514 0.278589
C31   C     C_R   0.548174 0.750196 0.461486 0.278585
C32   C     C_R   0.455594 0.160689 0.535604 -0.079311
Cu1   Cu    Cu3+1 0.495370 0.585120 0.503830 1.086921
Cu2   Cu    Cu3+1 0.504630 0.414880 0.496170 1.086923
H1    H     H_    0.410739 0.592667 0.113521 0.181501
H2    H     H_    0.929344 0.615853 0.443182 0.255840
H3    H     H_    0.076984 0.366606 0.457294 0.242109
H4    H     H_    0.070656 0.384146 0.556818 0.255839
H5    H     H_    0.349595 0.703357 0.870522 0.227635
H6    H     H_    0.320653 0.634946 0.933115 0.248655
H7    H     H_    0.650443 0.296663 0.129482 0.227635
H8    H     H_    0.679366 0.365077 0.066886 0.248658
H9    H     H_    0.710626 0.251124 0.401798 0.226714
H10   H     H_    0.628015 0.249865 0.331144 0.201813
H11   H     H_    0.289372 0.748874 0.598198 0.226717
H12   H     H_    0.589247 0.407320 0.886478 0.181505
H13   H     H_    0.371980 0.750137 0.668855 0.201809
H14   H     H_    0.402949 0.632307 0.750707 0.134029
H15   H     H_    0.597072 0.367705 0.249295 0.134026
H16   H     H_    0.592684 0.865783 0.425635 0.167363
H17   H     H_    0.407316 0.134217 0.574365 0.167363
H18   H     H_    0.633040 0.105970 0.394432 0.126038
H19   H     H_    0.366959 0.894030 0.605566 0.126037
H20   H     H_    0.923016 0.633395 0.542705 0.242108
N1    N     N_2   0.479949 0.531530 0.985087 -0.217238
N2    N     N_3   0.620952 0.340850 0.092433 -0.579391
N3    N     N_3   0.639146 0.272744 0.389266 -0.554818
N4    N     N_3   0.360852 0.727256 0.610732 -0.554816
N5    N     N_2   0.520056 0.468470 0.014914 -0.217240
N6    N     N_R   0.511590 0.287020 0.490400 -0.183390
N7    N     N_R   0.488410 0.712980 0.509600 -0.183391
N8    N     N_2   0.528368 0.015034 0.477602 -0.219593
N9    N     N_2   0.471631 0.984966 0.522397 -0.219593
N10   N     N_3   0.970466 0.618152 0.493572 -0.593539
N11   N     N_3   0.029534 0.381848 0.506427 -0.593539
N12   N     N_3   0.379076 0.659164 0.907570 -0.579388
O1    O     O_R   0.495670 0.579790 0.617520 -0.498752
O2    O     O_R   0.504330 0.420210 0.382480 -0.498751
O3    O     O_R   0.503490 0.436020 0.611040 -0.426485
O4    O     O_R   0.496510 0.563980 0.388960 -0.426487
O5    O     O_R   0.357690 0.582040 0.503680 -0.462876
O6    O     O_R   0.642310 0.417960 0.496320 -0.462878
O7    O     O_R   0.365510 0.438280 0.497200 -0.476863
O8    O     O_R   0.634490 0.561720 0.502800 -0.476863

loop_
_geom_bond_atom_site_label_1
_geom_bond_atom_site_label_2
_ccdc_geom_bond_type
Cu1   O4    S    
H7    N2    S    
C23   C25   A    
C14   C17   S    
C3    C32   A    
C15   C16   S    
C12   O2    A    
Cu2   O2    S    
Cu2   O6    S    
C21   C24   A    
C18   C28   A    
C12   O4    A    
C20   C22   A    
C22   H12   S    
C26   C27   A    
C31   N7    A    
C13   C16   T    
C2    C31   A    
C14   C15   D    
C28   H14   S    
C1    C18   S    
C9    O5    A    
C19   C29   A    
Cu1   N7    S    
C27   C29   A    
H6    N12   S    
C14   N11   S    
C19   C21   A    
N8    N9    D    
Cu1   O5    S    
C26   N5    S    
Br1   C21   S    
H13   N4    S    
C2    H16   S    
Cu2   N6    S    
C29   H15   S    
Br4   C30   S    
C25   N1    S    
C6    H19   S    
C7    N6    A    
C2    C4    A    
C24   H1    S    
H4    N11   S    
C10   O6    A    
C27   N2    S    
Cu1   Cu2   S    
C8    N4    S    
Br3   C31   S    
C30   N6    A    
C15   N10   S    
C5    H18   S    
C5    C7    A    
C23   N12   S    
C6    C8    A    
C22   C25   A    
H20   N10   S    
C12   C19   S    
Cu1   O1    S    
C9    O7    A    
Br2   C20   S    
C18   C20   A    
H3    N11   S    
Cu1   O8    S    
C3    C5    A    
H11   N4    S    
H8    N2    S    
C23   C28   A    
C7    N3    S    
H9    N3    S    
Cu2   O7    S    
H5    N12   S    
C8    N7    A    
N1    N5    D    
C9    C13   S    
C24   C26   A    
C1    O1    A    
C32   H17   S    
C3    N8    S    
H10   N3    S    
C30   C32   A    
C10   O8    A    
C1    O3    A    
C11   C17   T    
C4    N9    S    
C4    C6    A    
H2    N10   S    
C10   C11   S    
Cu2   O3    S    
