data_mof_unit_9584.cif
_audit_creation_date              2012-12-10T17:06:12-0500
_audit_creation_method            fapswitch 2.2
_symmetry_space_group_name_H-M    P1
_symmetry_Int_Tables_number       1
_space_group_crystal_system       triclinic
_cell_length_a                    10.628046
_cell_length_b                    10.815434
_cell_length_c                    9.800597
_cell_angle_alpha                 109.215724
_cell_angle_beta                  98.943585
_cell_angle_gamma                 90.699144
_cell_volume                      1048.4228933

loop_
_atom_site_label
_atom_site_type_symbol
_atom_type_description
_atom_site_fract_x
_atom_site_fract_y
_atom_site_fract_z
_atom_type_partial_charge
C1    C     C_R   0.484090 0.253631 0.443584 0.821836
C2    C     C_R   0.501043 0.746159 0.556444 0.817448
C3    C     C_R   0.259291 0.499902 0.500278 0.759627
C4    C     C_R   0.740733 0.500361 0.499762 0.794503
C5    C     C_3   0.047174 0.404610 0.548161 -0.167997
C6    C     C_3   0.952895 0.596110 0.451874 -0.176294
C7    C     C_3   0.944013 0.383517 0.411127 -0.156188
C8    C     C_3   0.056123 0.617211 0.588897 -0.159628
C9    C     C_3   0.877674 0.500561 0.499863 0.005117
C10   C     C_3   0.122423 0.500109 0.500190 0.013200
C11   C     C_3   0.978656 0.521729 0.637110 -0.121452
C12   C     C_3   0.021467 0.479007 0.362935 -0.125688
C13   C     C_2   0.463358 0.113437 0.419890 -0.392551
C14   C     C_2   0.486454 0.885774 0.579964 -0.396964
C15   C     C_2   0.405624 0.069040 0.510139 0.048380
C16   C     C_2   0.402624 0.928004 0.488762 0.030254
C17   C     C_2   0.510257 0.511667 0.081030 -0.056766
C18   C     C_2   0.488416 0.490174 0.919682 -0.046229
Cu1   Cu    Cu3+1 0.522260 0.521810 0.644920 0.950551
Cu2   Cu    Cu3+1 0.477740 0.478190 0.355080 0.951666
H1    H     H_    0.895070 0.288040 0.338331 0.141391
H2    H     H_    0.105210 0.712670 0.661562 0.153335
H3    H     H_    0.088273 0.326298 0.587749 0.138272
H4    H     H_    0.911226 0.674285 0.412344 0.139232
H5    H     H_    0.958751 0.539283 0.749632 0.149940
H6    H     H_    0.041483 0.461525 0.250467 0.149769
H7    H     H_    0.548483 0.956525 0.671964 0.171285
H8    H     H_    0.499424 0.044214 0.328513 0.168760
H9    H     H_    0.413870 0.418418 0.848470 0.160439
H10   H     H_    0.583494 0.584948 0.152955 0.158199
H11   H     H_    0.625612 0.622704 0.932951 0.195439
H12   H     H_    0.375768 0.375901 0.066587 0.215871
N1    N     N_2   0.444270 0.445410 0.137360 -0.283143
N2    N     N_2   0.555730 0.554590 0.862640 -0.285442
O1    O     O_R   0.511880 0.332340 0.577400 -0.583346
O2    O     O_R   0.488120 0.667660 0.422600 -0.589617
O3    O     O_R   0.474280 0.295500 0.332650 -0.545976
O4    O     O_R   0.525720 0.704500 0.667350 -0.548740
O5    O     O_R   0.335640 0.518390 0.622350 -0.582765
O6    O     O_R   0.664360 0.481610 0.377650 -0.576716
O7    O     O_R   0.298050 0.481550 0.377590 -0.585538
O8    O     O_R   0.701950 0.518450 0.622410 -0.575473
C19   C     C_2   0.300670 0.840670 0.374698 0.402997
H13   H     H_    0.276496 0.742584 0.373295 0.085484
O9    O     O_2   0.239551 0.879637 0.282486 -0.548057
C20   C     C_2   0.335618 0.153905 0.622464 0.381624
H14   H     H_    0.311241 0.250761 0.622187 0.058409
O10   O     O_2   0.301130 0.114268 0.714772 -0.558457

loop_
_geom_bond_atom_site_label_1
_geom_bond_atom_site_label_2
_ccdc_geom_bond_type
C8    H2    S    
C19   H13   S    
C5    C7    S    
C13   H8    S    
Cu2   O3    S    
Cu1   O4    S    
C14   H7    S    
C19   O9    D    
C2    O4    A    
Cu1   Cu2   S    
C5    H3    S    
Cu1   O8    S    
C1    O3    A    
C6    H4    S    
H12   N1    S    
C4    O8    A    
C6    C9    S    
C13   C15   D    
Cu2   O7    S    
H11   N2    S    
C3    O5    A    
C5    C10   S    
C3    C10   S    
Cu1   O1    S    
C17   H10   S    
C9    C11   S    
C16   C19   S    
C17   N1    D    
C8    C11   S    
C2    C14   S    
Cu2   N1    S    
Cu1   O5    S    
C8    C10   S    
C5    C11   S    
C10   C12   S    
C18   N2    D    
C6    C12   S    
C7    C12   S    
Cu2   O6    S    
C14   C16   D    
C1    C13   S    
C11   H5    S    
C15   C16   S    
Cu2   O2    S    
C20   O10   D    
C7    C9    S    
C1    O1    A    
C17   C18   S    
C2    O2    A    
C18   H9    S    
C20   H14   S    
C3    O7    A    
C6    C8    S    
C15   C20   S    
C4    C9    S    
C7    H1    S    
C4    O6    A    
C12   H6    S    
Cu1   N2    S    
