data_mof_unit_29848.cif
_audit_creation_date              2013-03-05T15:53:01-0500
_audit_creation_method            fapswitch 2.2
_symmetry_space_group_name_H-M    P1
_symmetry_Int_Tables_number       1
_space_group_crystal_system       triclinic
_cell_length_a                    8.314112
_cell_length_b                    17.410192
_cell_length_c                    18.814189
_cell_angle_alpha                 98.522697
_cell_angle_beta                  92.120702
_cell_angle_gamma                 95.528324
_cell_volume                      2677.11812361

loop_
_atom_site_label
_atom_site_type_symbol
_atom_site_description
_atom_site_fract_x
_atom_site_fract_y
_atom_site_fract_z
_atom_type_partial_charge
P1    P     P_3+3 0.048060 0.426210 0.336320 0.469483
O1    O     O_2   0.878040 0.448040 0.325130 -0.382487
O2    O     O_3   0.126800 0.453980 0.414370 -0.393315
O3    O     O_3   0.651020 0.589120 0.368830 -0.380417
O4    O     O_2   0.777995 0.543761 0.243229 -0.409717
O5    O     O_3   0.024612 0.324127 0.318092 -0.569876
O6    O     O_3   0.643500 0.674565 0.251288 -0.532042
H1    H     H_    0.793277 0.730395 0.335685 0.151281
C1    C     C_3   0.647134 0.812167 0.293073 -0.702460
H2    H     H_    0.697904 0.818182 0.240260 0.233538
P2    P     P_3+3 0.655920 0.678120 0.556130 0.516904
P3    P     P_3+3 0.100786 0.733366 0.411504 0.436858
O7    O     O_2   0.830300 0.688050 0.534560 -0.366189
O8    O     O_3   0.068750 0.630380 0.404830 -0.348759
O9    O     O_2   0.966975 0.769710 0.455882 -0.447640
O10   O     O_3   0.673110 0.689050 0.650449 -0.514312
O11   O     O_3   0.072703 0.764934 0.327365 -0.588083
C2    C     C_3   0.088579 0.705378 0.269327 0.362385
H3    H     H_    0.014604 0.650594 0.276136 0.149411
C3    C     C_3   0.026400 0.732074 0.199935 -0.743369
H4    H     H_    0.901149 0.747012 0.206182 0.260845
C4    C     C_3   0.234572 0.707955 0.627030 0.402247
H5    H     H_    0.350202 0.683406 0.615505 0.102297
H6    H     H_    0.151605 0.696732 0.578125 0.098507
C5    C     C_3   0.269106 0.795723 0.650604 -0.968001
H7    H     H_    0.349453 0.807766 0.700211 0.275425
H8    H     H_    0.329182 0.823617 0.608255 0.222744
H9    H     H_    0.154934 0.822378 0.661545 0.246111
Ba1   Ba    Ba6+2 0.849550 0.533890 0.465080 1.607437
C6    C     C_3   0.970313 0.292726 0.377855 0.368301
H10   H     H_    0.849850 0.311333 0.389925 0.087435
H11   H     H_    0.056505 0.311026 0.425179 0.126351
C7    C     C_3   0.956938 0.204122 0.359244 -0.857513
H12   H     H_    0.867748 0.184243 0.313218 0.266169
H13   H     H_    0.917125 0.176252 0.405637 0.209928
H14   H     H_    0.076602 0.185038 0.344470 0.285775
C8    C     C_3   0.778457 0.755834 0.677767 0.159804
H15   H     H_    0.734010 0.809128 0.661313 0.015258
H16   H     H_    0.901034 0.749195 0.657924 0.134964
C9    C     C_3   0.790573 0.764429 0.760085 -0.469830
H17   H     H_    0.812198 0.706826 0.775745 0.219815
P4    P     P_3+3 0.141640 0.573850 0.663690 0.552996
O12   O     O_2   0.311660 0.551990 0.674910 -0.350515
O13   O     O_3   0.062910 0.546080 0.585630 -0.321667
O14   O     O_3   0.538690 0.410940 0.631180 -0.240781
O15   O     O_3   0.162820 0.675820 0.683229 -0.543135
P5    P     P_3+3 0.094464 0.267932 0.594214 0.547355
O16   O     O_3   0.620260 0.406250 0.463620 -0.367961
O17   O     O_3   0.120960 0.369680 0.595180 -0.368940
O18   O     O_2   0.235330 0.232337 0.554210 -0.277835
O19   O     O_3   0.127016 0.250146 0.682478 -0.477405
Ba2   Ba    Ba6+2 0.340280 0.466170 0.534930 1.693427
P6    P     P_3+3 0.629288 0.580316 0.275182 0.478629
C10   C     C_3   0.670323 0.731574 0.313146 0.309913
H18   H     H_    0.586801 0.721213 0.355934 0.130790
H19   H     H_    0.515784 0.818673 0.288196 0.204130
O20   O     O_3   0.569440 0.593820 0.536390 -0.332060
C11   C     C_3   0.475320 0.339702 0.314254 0.427887
H20   H     H_    0.355034 0.354202 0.332371 0.093783
H21   H     H_    0.565006 0.392171 0.325583 0.095982
C12   C     C_3   0.461487 0.312528 0.233388 -0.992666
H22   H     H_    0.370750 0.260673 0.220440 0.283920
H23   H     H_    0.422939 0.359470 0.204793 0.205762
H24   H     H_    0.580535 0.296837 0.214211 0.257930
P7    P     P_3+3 0.538432 0.308373 0.441326 0.513833
O21   O     O_2   0.359400 0.311980 0.465480 -0.340379
O22   O     O_3   0.525585 0.279126 0.348055 -0.542887
H25   H     H_    0.100734 0.785780 0.190309 0.190316
C13   C     C_3   0.063280 0.308925 0.729224 0.498827
H26   H     H_    0.141892 0.364903 0.732710 0.123829
H27   H     H_    0.938528 0.317184 0.710826 0.029220
C14   C     C_3   0.057353 0.285940 0.804044 -1.001652
H28   H     H_    0.181256 0.279933 0.825093 0.281594
H29   H     H_    0.004881 0.331418 0.841170 0.221158
H30   H     H_    0.980915 0.229637 0.802048 0.265977
P8    P     P_3+3 0.560124 0.418985 0.725510 0.538116
C15   C     C_3   0.580237 0.278065 0.753169 0.980960
H31   H     H_    0.705836 0.304442 0.767885 -0.080883
O23   O     O_2   0.448933 0.480133 0.755879 -0.398701
O24   O     O_3   0.468825 0.333785 0.752723 -0.549869
H32   H     H_    0.621479 0.182102 0.810900 0.238681
C16   C     C_3   0.533970 0.226232 0.809181 -0.971594
H33   H     H_    0.410581 0.195685 0.795937 0.284539
H34   H     H_    0.536099 0.262228 0.863202 0.213377
C17   C     C_R   0.998676 0.462695 0.048415 0.047126
C18   C     C_R   0.899255 0.428246 0.096577 0.127328
C19   C     C_R   0.739187 0.398956 0.074322 -0.178014
C20   C     C_R   0.678430 0.403396 0.004928 -0.192899
C21   C     C_R   0.777007 0.436509 0.956097 0.132154
C22   C     C_R   0.937496 0.466658 0.977799 0.031552
C23   C     C_R   0.718150 0.438157 0.885598 -0.236630
C24   C     C_R   0.819042 0.466726 0.834610 -0.072138
C25   C     C_R   0.977727 0.501364 0.857217 0.010310
C26   C     C_R   0.036281 0.500860 0.929093 0.010322
C27   C     C_R   0.769441 0.457810 0.760912 0.040619
C28   C     C_R   0.879402 0.481608 0.711529 0.127131
C29   C     C_R   0.026009 0.527062 0.733772 0.141859
C30   C     C_R   0.078127 0.536005 0.808151 -0.138461
C31   C     C_R   0.158795 0.492966 0.070737 -0.012854
C32   C     C_R   0.218119 0.491623 0.142419 -0.019746
C33   C     C_R   0.114999 0.460079 0.192131 -0.049186
C34   C     C_R   0.959439 0.424743 0.166636 -0.134697
H35   H     H_    0.660249 0.373146 0.110836 0.131689
H36   H     H_    0.554344 0.380368 0.989277 0.135039
H37   H     H_    0.594664 0.414437 0.870622 0.163592
H38   H     H_    0.881508 0.395356 0.200947 0.164278
C35   C     C_R   0.230431 0.574552 0.834697 -0.035474
C36   C     C_R   0.292422 0.569350 0.904294 0.091895
C37   C     C_R   0.195300 0.532384 0.951749 0.006547
C38   C     C_R   0.257265 0.527539 0.022114 0.004894
C39   C     C_R   0.452184 0.599037 0.926707 -0.137298
C40   C     C_R   0.514228 0.593142 0.995597 -0.180493
C41   C     C_R   0.417272 0.558299 0.044005 0.102111
C42   C     C_R   0.379111 0.523487 0.164456 -0.083754
C43   C     C_R   0.477642 0.554872 0.114032 -0.194554
C44   C     C_R   0.434602 0.525694 0.236999 0.277637
C45   C     C_R   0.328811 0.498264 0.286123 -0.443100
C46   C     C_R   0.170152 0.466204 0.265698 0.244938
H39   H     H_    0.305779 0.606049 0.800870 0.194911
H40   H     H_    0.530436 0.625737 0.890530 0.186409
H41   H     H_    0.638099 0.616409 0.011126 0.191467
H42   H     H_    0.601514 0.578004 0.128862 0.222118
H43   H     H_    0.370457 0.503193 0.341957 0.168171
C47   C     C_R   0.399157 0.721878 0.476958 -0.408362
C48   C     C_R   0.547177 0.747707 0.513657 0.229277
C49   C     C_R   0.605434 0.826777 0.522110 -0.358264
C50   C     C_R   0.510440 0.881306 0.498520 0.040357
C51   C     C_R   0.353015 0.855851 0.466184 -0.229557
C52   C     C_R   0.300208 0.774730 0.454220 0.221687
C53   C     C_R   0.594638 0.161454 0.482942 0.433974
C54   C     C_R   0.647099 0.241389 0.488145 0.195210
C55   C     C_R   0.895709 0.222595 0.552674 0.234417
C56   C     C_R   0.842330 0.142936 0.549865 -0.246693
C57   C     C_R   0.691160 0.112073 0.515101 -0.049748
C58   C     C_1   0.634133 0.030086 0.511686 0.169206
C59   C     C_1   0.579093 0.962344 0.506614 0.088579
C60   C     C_R   0.796723 0.270395 0.522237 -0.473267
H44   H     H_    0.918022 0.105390 0.573869 0.175284
H45   H     H_    0.724101 0.846123 0.547770 0.151807
H46   H     H_    0.356609 0.660339 0.469406 0.170944
H47   H     H_    0.842527 0.329663 0.519585 0.201025
C61   C     C_2   0.726586 0.877107 0.348206 0.598488
H48   H     H_    0.790850 0.864963 0.395835 0.049651
O25   O     O_2   0.719307 0.944854 0.339725 -0.543928
C62   C     C_2   0.636346 0.789884 0.790569 0.618988
H49   H     H_    0.599268 0.846523 0.783521 -0.018480
O26   O     O_2   0.551459 0.747324 0.823150 -0.577420
C63   C     C_2   0.929208 0.823611 0.789943 0.490999
H50   H     H_    0.930615 0.883615 0.780227 0.006152
O27   O     O_2   0.041581 0.804657 0.824849 -0.516287
Cl1   Cl    Cl    0.571501 0.219202 0.667209 -0.634626
Cl2   Cl    Cl    0.841048 0.446394 0.620267 -0.561443
C64   C     C_2   0.262142 0.690995 0.263863 0.376667
H51   H     H_    0.332096 0.706549 0.219573 0.047588
O28   O     O_2   0.326947 0.662477 0.311038 -0.614648
Cl3   Cl    Cl    0.412967 0.122831 0.433308 -0.537366
C65   C     C_2   0.242203 0.912641 0.447586 0.624665
H52   H     H_    0.154368 0.897210 0.402580 0.062850
O29   O     O_2   0.243138 0.976566 0.484429 -0.532313
C66   C     C_2   0.028881 0.670363 0.135332 0.607603
H53   H     H_    0.143482 0.654979 0.114898 0.005260
O30   O     O_2   0.902866 0.638334 0.104719 -0.582340

loop_
_geom_bond_atom_site_label_1
_geom_bond_atom_site_label_2
_geom_bond_distance
_ccdc_geom_bond_type
C20   H36   1.083788 S    
C19   C20   1.397969 A    
C25   C26   1.421758 A    
O3    P6    1.746870 S    
C12   H24   1.110754 S    
C23   H37   1.079998 S    
C39   C40   1.398808 A    
P8    O23   1.537158 D    
C51   C52   1.420247 A    
C15   Cl1   1.776739 S    
C42   C43   1.412288 A    
C58   C59   1.211994 T    
P5    O17   1.761214 S    
C15   H31   1.107481 S    
C44   C45   1.402125 A    
C5    H9    1.108965 S    
C49   C50   1.401941 A    
C9    C62   1.502703 S    
O14   P8    1.760456 S    
C17   C31   1.408612 A    
C33   C46   1.427328 A    
O7    Ba1   2.827784 S    
P2    C48   1.835281 S    
C63   O27   1.221193 D    
C2    H3    1.110598 S    
C8    C9    1.532318 S    
P8    C27   1.866349 S    
C62   H49   1.085952 S    
C6    H10   1.103245 S    
O12   Ba2   2.858939 S    
C11   H21   1.111399 S    
C28   Cl2   1.742276 S    
C29   C30   1.431018 A    
C7    H14   1.110971 S    
C36   C37   1.409577 A    
C13   H27   1.110501 S    
P1    O1    1.513982 D    
P4    O15   1.749117 S    
C12   H23   1.108195 S    
C32   C33   1.425587 A    
C62   O26   1.220166 D    
C65   H52   1.082354 S    
C64   H51   1.085517 S    
C27   C28   1.405245 A    
C55   C56   1.407533 A    
P7    O22   1.749539 S    
C4    C5    1.522913 S    
P3    O11   1.765710 S    
C35   C36   1.408040 A    
O16   P7    1.756777 S    
C64   O28   1.213000 D    
C1    H2    1.108979 S    
C2    C3    1.537526 S    
O3    Ba1   2.743908 S    
P6    C44   1.858847 S    
O10   C8    1.405894 S    
C20   C21   1.403497 A    
O13   Ba2   2.924227 S    
C11   C12   1.521525 S    
C56   H44   1.083061 S    
C65   O29   1.220034 D    
C43   H42   1.079915 S    
C53   C57   1.414366 A    
P4    O13   1.573695 S    
C14   H30   1.110614 S    
C35   H39   1.079337 S    
C40   C41   1.403973 A    
P7    C54   1.844125 S    
C3    H25   1.111828 S    
C51   C65   1.484245 S    
C22   C26   1.411396 A    
P5    O18   1.545645 D    
C17   C22   1.418647 A    
C49   H45   1.082794 S    
P3    C52   1.847512 S    
C9    C63   1.502491 S    
Ba1   O16   2.781190 S    
P1    O5    1.749860 S    
C33   C34   1.412300 A    
C32   C42   1.420892 A    
C50   C59   1.454068 S    
C14   H29   1.109199 S    
P4    C29   1.894089 S    
H1    C10   1.095349 S    
C23   C24   1.411352 A    
C18   C19   1.403983 A    
P5    O19   1.749884 S    
O14   Ba2   2.743296 S    
C5    H7    1.109117 S    
C17   C18   1.408921 A    
C31   C38   1.411772 A    
C24   C27   1.413594 A    
H32   C16   1.110862 S    
C30   C35   1.411874 A    
C39   H40   1.082085 S    
P1    O2    1.573560 S    
C66   O30   1.219803 D    
C13   C14   1.520663 S    
C8    H15   1.111795 S    
C54   C60   1.392059 A    
P2    O10   1.755433 S    
C31   C32   1.423025 A    
P3    O9    1.543701 D    
O2    Ba2   2.797677 S    
O17   Ba2   2.749401 S    
C28   C29   1.401911 A    
P1    Ba1   3.413655 S    
O11   C2    1.409378 S    
C1    H19   1.110552 S    
C63   H50   1.085958 S    
C38   C41   1.408182 A    
C2    C64   1.492827 S    
C19   H35   1.082884 S    
C9    H17   1.115034 S    
C4    O15   1.394482 S    
P3    O8    1.772100 S    
P7    O21   1.576603 D    
C16   H34   1.110761 S    
O1    Ba1   2.858483 S    
Ba1   O13   2.796935 S    
C56   C57   1.414588 A    
C4    H6    1.111027 S    
C21   C23   1.401965 A    
P4    O12   1.514252 D    
O6    P6    1.758921 S    
O8    Ba1   2.748783 S    
C50   C51   1.424429 A    
C18   C34   1.404411 A    
Ba2   O21   2.827885 S    
C15   O24   1.405046 S    
O4    P6    1.545396 D    
C60   H47   1.073884 S    
C10   H18   1.105930 S    
C6    C7    1.522693 S    
O5    C6    1.392538 S    
C4    H5    1.105010 S    
C47   H46   1.082293 S    
P8    O24   1.753726 S    
Ba1   O20   2.932030 S    
C14   H28   1.109865 S    
C42   C44   1.418295 A    
C1    C61   1.499454 S    
C57   C58   1.451398 S    
C5    H8    1.103444 S    
O19   C13   1.404912 S    
C26   C37   1.407123 A    
C36   C39   1.403903 A    
P5    C55   1.853308 S    
C66   H53   1.083118 S    
C12   H22   1.110622 S    
C53   C54   1.405742 A    
C11   H20   1.108347 S    
C40   H41   1.082763 S    
C8    H16   1.108793 S    
P2    O20   1.557028 S    
C45   C46   1.398681 A    
C6    H11   1.110189 S    
P2    O7    1.520720 D    
O2    Ba1   2.923437 S    
C48   C49   1.398546 A    
C15   C16   1.522442 S    
C24   C25   1.419275 A    
C7    H13   1.105814 S    
C7    H12   1.110720 S    
C47   C52   1.393905 A    
C34   H38   1.078550 S    
C61   O25   1.220297 D    
P1    C46   1.875774 S    
C45   H43   1.082298 S    
C13   H26   1.111962 S    
Ba2   O20   2.780662 S    
C11   O22   1.398348 S    
O16   Ba2   2.931052 S    
C3    H4    1.103653 S    
P2    Ba1   3.397002 S    
C16   H33   1.110870 S    
C3    C66   1.500386 S    
C61   H48   1.084285 S    
C53   Cl3   1.766174 S    
C1    C10   1.533760 S    
C55   C60   1.391436 A    
O6    C10   1.408926 S    
C21   C22   1.408501 A    
C37   C38   1.419913 A    
C25   C30   1.427501 A    
P4    Ba2   3.414266 S    
C47   C48   1.389937 A    
C41   C43   1.404088 A    
Ba1   Ba2   4.555510 S    
