data_mof_unit_55722.cif
_audit_creation_date              2012-12-10T18:48:40-0500
_audit_creation_method            fapswitch 2.2
_symmetry_space_group_name_H-M    P1
_symmetry_Int_Tables_number       1
_space_group_crystal_system       triclinic
_cell_length_a                    15.498923
_cell_length_b                    14.849544
_cell_length_c                    9.930834
_cell_angle_alpha                 87.802264
_cell_angle_beta                  90.000057
_cell_angle_gamma                 89.999864
_cell_volume                      2283.91948778

loop_
_atom_site_label
_atom_site_type_symbol
_atom_type_description
_atom_site_fract_x
_atom_site_fract_y
_atom_site_fract_z
_atom_type_partial_charge
C1    C     C_R   0.125807 0.386429 0.501619 0.929916
C2    C     C_R   0.000000 0.420713 0.933227 0.434586
C3    C     C_R   0.999999 0.420558 0.075082 0.440752
C4    C     C_R   0.000003 0.579442 0.924917 0.440753
C5    C     C_R   0.500000 0.079286 0.066773 0.434586
C6    C     C_R   0.499997 0.920713 0.933227 0.434587
C7    C     C_R   0.499997 0.920558 0.075082 0.440753
C8    C     C_R   0.500001 0.079442 0.924917 0.440752
C9    C     C_R   0.763204 0.303578 0.382085 0.133811
C10   C     C_R   0.236789 0.696430 0.617923 0.133823
C11   C     C_R   0.219917 0.722496 0.374503 0.144820
C12   C     C_R   0.874194 0.613572 0.498380 0.929922
C13   C     C_R   0.780092 0.277494 0.625495 0.144820
C14   C     C_R   0.219918 0.277504 0.625498 0.144820
C15   C     C_R   0.780091 0.722505 0.374505 0.144820
C16   C     C_R   0.763202 0.696421 0.617914 0.133806
C17   C     C_R   0.236791 0.303571 0.382078 0.133819
C18   C     C_R   0.263210 0.803570 0.382077 0.133824
C19   C     C_R   0.736796 0.196422 0.617915 0.133811
C20   C     C_R   0.719908 0.222506 0.374505 0.144820
C21   C     C_R   0.280083 0.777503 0.625497 0.144820
C22   C     C_R   0.719909 0.777495 0.625495 0.144820
C23   C     C_R   0.874195 0.386426 0.501620 0.929921
C24   C     C_R   0.280082 0.222496 0.374502 0.144820
C25   C     C_R   0.263209 0.196429 0.617923 0.133819
C26   C     C_R   0.736798 0.803579 0.382086 0.133806
C27   C     C_R   0.199029 0.674006 0.494941 -0.256283
C28   C     C_R   0.800973 0.325992 0.505063 -0.256270
C29   C     C_R   0.800971 0.674006 0.494936 -0.256265
C30   C     C_R   0.199030 0.325995 0.505060 -0.256279
C31   C     C_R   0.699027 0.174008 0.494937 -0.256270
C32   C     C_R   0.300971 0.825994 0.505059 -0.256283
C33   C     C_R   0.300970 0.174005 0.494940 -0.256279
C34   C     C_R   0.125806 0.613572 0.498381 0.929915
C35   C     C_R   0.699029 0.825993 0.505064 -0.256265
C36   C     C_R   0.625806 0.886428 0.501620 0.929922
C37   C     C_R   0.374193 0.113571 0.498381 0.929916
C38   C     C_R   0.374194 0.886428 0.501619 0.929915
C39   C     C_R   0.625805 0.113574 0.498380 0.929921
C40   C     C_R   0.000003 0.579286 0.066773 0.434587
H1    H     H_    0.000000 0.652976 0.222422 0.386219
H2    H     H_    0.000003 0.347024 0.777578 0.386218
H3    H     H_    0.000000 0.344684 0.237573 0.387565
H4    H     H_    0.999999 0.655316 0.762427 0.387565
H5    H     H_    0.499997 0.152976 0.222422 0.386218
H6    H     H_    0.499999 0.847024 0.777578 0.386219
H7    H     H_    0.500001 0.844684 0.237573 0.387565
H8    H     H_    0.500000 0.155316 0.762427 0.387565
I1    I     I_    0.753880 0.399086 0.214140 -0.136603
I2    I     I_    0.746119 0.100914 0.785860 -0.136603
I3    I     I_    0.709671 0.166869 0.178990 -0.103098
I4    I     I_    0.290313 0.833152 0.821008 -0.103090
I5    I     I_    0.709671 0.833130 0.821012 -0.103111
I6    I     I_    0.290312 0.166848 0.178990 -0.103104
I7    I     I_    0.253891 0.100931 0.785885 -0.136592
I8    I     I_    0.746121 0.899087 0.214142 -0.136612
I9    I     I_    0.246107 0.600932 0.785887 -0.136583
I10   I     I_    0.209687 0.666848 0.178992 -0.103090
I11   I     I_    0.790329 0.333131 0.821010 -0.103098
I12   I     I_    0.209688 0.333152 0.821010 -0.103104
I13   I     I_    0.790328 0.666870 0.178988 -0.103111
I14   I     I_    0.753879 0.600913 0.785858 -0.136612
I15   I     I_    0.246109 0.399069 0.214115 -0.136592
I16   I     I_    0.253892 0.899068 0.214113 -0.136583
N1    N     N_R   0.000000 0.500000 0.857200 -0.278720
N2    N     N_R   0.000000 0.500000 0.142800 -0.278720
N3    N     N_R   0.500000 1.000000 0.857200 -0.278720
N4    N     N_R   0.500000 0.000000 0.142800 -0.278720
O1    O     O_R   0.091610 0.408380 0.614620 -0.622488
O2    O     O_R   0.408390 0.091620 0.385380 -0.622488
O3    O     O_R   0.408390 0.091620 0.614620 -0.621894
O4    O     O_R   0.591610 0.908380 0.385380 -0.621894
O5    O     O_R   0.408390 0.908380 0.385380 -0.621890
O6    O     O_R   0.591610 0.091620 0.614620 -0.621890
O7    O     O_R   0.591610 0.091620 0.385380 -0.622485
O8    O     O_R   0.408390 0.908380 0.614620 -0.622484
O9    O     O_3   0.000009 0.662089 0.124328 -0.650166
O10   O     O_3   0.000003 0.337911 0.875672 -0.650165
O11   O     O_3   0.999999 0.337137 0.140464 -0.653722
O12   O     O_R   0.908390 0.591620 0.385380 -0.622489
O13   O     O_3   0.000006 0.662862 0.859535 -0.653723
O14   O     O_3   0.499997 0.162089 0.124328 -0.650165
O15   O     O_3   0.499991 0.837911 0.875672 -0.650166
O16   O     O_3   0.499994 0.837138 0.140464 -0.653723
O17   O     O_3   0.500001 0.162862 0.859536 -0.653722
O18   O     O_R   0.908390 0.591620 0.614620 -0.621894
O19   O     O_R   0.091610 0.408380 0.385380 -0.621894
O20   O     O_R   0.908390 0.408380 0.385380 -0.621890
O21   O     O_R   0.091610 0.591620 0.614620 -0.621890
O22   O     O_R   0.091610 0.591620 0.385380 -0.622484
O23   O     O_R   0.908390 0.408380 0.614620 -0.622485
O24   O     O_R   0.591610 0.908380 0.614620 -0.622489
Zn1   Zn    Zn3+2 1.000000 0.500000 0.653120 0.997080
Zn2   Zn    Zn3+2 1.000000 0.500000 0.346880 0.997080
Zn3   Zn    Zn3+2 0.500000 0.000000 0.653120 0.997080
Zn4   Zn    Zn3+2 0.500000 0.000000 0.346880 0.997080

loop_
_geom_bond_atom_site_label_1
_geom_bond_atom_site_label_2
_ccdc_geom_bond_type
C10   C27   A    
C1    O19   A    
C11   C18   A    
C12   C29   S    
H5    O14   S    
C2    N1    A    
C3    O11   S    
C38   O8    A    
C22   C35   A    
N4    Zn4   S    
C20   I3    S    
O1    Zn1   S    
O8    Zn3   S    
H1    O9    S    
C4    N1    A    
O3    Zn3   S    
C24   I6    S    
O19   Zn2   S    
C8    O17   S    
C39   O6    A    
C7    N4    A    
C4    O13   S    
C4    C40   A    
C13   C28   A    
O22   Zn2   S    
C32   C38   S    
C11   I10   S    
N2    Zn2   S    
C36   O24   A    
N1    Zn1   S    
C7    O16   S    
C19   C31   A    
C10   C21   A    
C40   N2    A    
C37   O2    A    
N3    Zn3   S    
C17   C30   A    
C16   I14   S    
C14   C30   A    
C5    N4    A    
O7    Zn4   S    
C15   C29   A    
C22   I5    S    
C27   C34   S    
C21   C32   A    
O20   Zn2   S    
C17   C24   A    
C13   C19   A    
C10   I9    S    
C9    I1    S    
H4    O13   S    
C15   C26   A    
C16   C29   A    
H7    O16   S    
O24   Zn3   S    
C1    O1    A    
C35   C36   S    
O2    Zn4   S    
C34   O22   A    
C2    O10   S    
O18   Zn1   S    
O23   Zn1   S    
C9    C20   A    
C11   C27   A    
C15   I13   S    
C23   C28   S    
C6    N3    A    
H2    O10   S    
C39   O7    A    
C23   O20   A    
C37   O3    A    
C23   O23   A    
C3    N2    A    
C18   C32   A    
O12   Zn2   S    
C16   C22   A    
C6    O15   S    
C40   O9    S    
O6    Zn3   S    
C25   I7    S    
C26   I8    S    
C5    C8    A    
C6    C7    A    
C13   I11   S    
C14   I12   S    
C24   C33   A    
C12   O18   A    
C2    C3    A    
C34   O21   A    
C17   I15   S    
C5    O14   S    
C19   I2    S    
C18   I16   S    
C12   O12   A    
C1    C30   S    
C31   C39   S    
C14   C25   A    
O21   Zn1   S    
C33   C37   S    
H6    O15   S    
O4    Zn4   S    
C26   C35   A    
C8    N3    A    
H8    O17   S    
O5    Zn4   S    
H3    O11   S    
C20   C31   A    
C21   I4    S    
C36   O4    A    
C9    C28   A    
C25   C33   A    
C38   O5    A    
