data_mof_unit_41835.cif
_audit_creation_date              2012-12-10T18:39:03-0500
_audit_creation_method            fapswitch 2.2
_symmetry_space_group_name_H-M    P1
_symmetry_Int_Tables_number       1
_space_group_crystal_system       triclinic
_cell_length_a                    10.948052
_cell_length_b                    11.549994
_cell_length_c                    10.738036
_cell_angle_alpha                 89.179749
_cell_angle_beta                  89.388747
_cell_angle_gamma                 89.604271
_cell_volume                      1357.57657644

loop_
_atom_site_label
_atom_site_type_symbol
_atom_type_description
_atom_site_fract_x
_atom_site_fract_y
_atom_site_fract_z
_atom_type_partial_charge
C1    C     C_R   0.499584 0.281124 0.500841 0.993493
C2    C     C_3   0.121657 0.509883 0.499193 -0.291051
C3    C     C_3   0.879494 0.505176 0.492530 -0.293413
C4    C     C_1   0.495784 0.839166 0.499876 -0.038616
C5    C     C_1   0.494403 0.941034 0.500934 0.065365
C6    C     C_R   0.257265 0.506375 0.500293 1.034256
C7    C     C_R   0.743314 0.500905 0.498214 1.016373
C8    C     C_1   0.499866 0.499979 0.069648 0.086680
C9    C     C_1   0.499922 0.499994 0.930349 0.105693
C10   C     C_R   0.498809 0.718879 0.499843 1.060107
C11   C     C_1   0.496588 0.161093 0.502452 -0.091834
C12   C     C_3   0.069936 0.481331 0.633605 -0.303242
C13   C     C_3   0.074710 0.414445 0.405764 -0.323547
C14   C     C_3   0.929381 0.492600 0.631859 -0.326418
C15   C     C_3   0.932532 0.402101 0.414062 -0.311747
C16   C     C_1   0.494763 0.059223 0.502265 0.047172
C17   C     C_3   0.072272 0.639040 0.456715 0.438679
C18   C     C_3   0.926272 0.625902 0.423535 0.447038
H1    H     H_    0.101298 0.548453 0.697776 0.243708
H2    H     H_    0.095749 0.451380 0.313541 0.232735
H3    H     H_    0.905841 0.575716 0.674614 0.247344
H4    H     H_    0.899769 0.412223 0.317656 0.222783
N1    N     N_1   0.500000 0.500010 0.180630 -0.042782
N2    N     N_1   0.500000 0.500010 0.819370 -0.054687
O1    O     O_R   0.500000 0.334450 0.602530 -0.609813
O2    O     O_R   0.500000 0.334450 0.397470 -0.601887
O3    O     O_R   0.314800 0.499980 0.602530 -0.576557
O4    O     O_R   0.314800 0.499980 0.397470 -0.595512
O5    O     O_R   0.685200 0.499980 0.602530 -0.615206
O6    O     O_R   0.685200 0.499980 0.397470 -0.538248
O7    O     O_R   0.500000 0.665550 0.602530 -0.621912
O8    O     O_R   0.500000 0.665550 0.397470 -0.550579
Zn1   Zn    Zn3+2 0.500000 0.500000 0.636920 1.085031
Zn2   Zn    Zn3+2 0.500000 0.500000 0.363080 1.125698
C19   C     C_2   0.120499 0.372500 0.699007 1.033071
O9    O     O_2   0.087970 0.275844 0.670442 -0.510486
O10   O     O_R   0.200355 0.384933 0.798831 -0.756699
H5    H     H_    0.226983 0.307880 0.836345 0.355253
C20   C     C_2   0.143270 0.299402 0.394773 1.035530
O11   O     O_2   0.223154 0.270658 0.467620 -0.624696
O12   O     O_R   0.115853 0.227093 0.295626 -0.748451
H6    H     H_    0.166635 0.153338 0.296007 0.378159
C21   C     C_2   0.869591 0.407996 0.725193 1.010202
O13   O     O_2   0.814080 0.322759 0.691607 -0.581056
O14   O     O_R   0.879928 0.429806 0.852454 -0.757119
H7    H     H_    0.837420 0.369402 0.906557 0.360245
C22   C     C_2   0.880320 0.282696 0.444600 1.043886
O15   O     O_2   0.936628 0.210662 0.505728 -0.476022
O16   O     O_R   0.767446 0.253068 0.395061 -0.802603
H8    H     H_    0.744005 0.170178 0.415653 0.352724
S1    S     S_3+6 0.105843 0.745182 0.582738 0.090394
O17   O     O_2   0.117816 0.866264 0.530648 -0.151587
O18   O     O_2   0.012274 0.748034 0.685661 -0.253680
O19   O     O_3   0.240757 0.714075 0.648812 -0.583129
H9    H     H_    0.255092 0.777676 0.707702 0.390034
S2    S     S_3+6 0.163277 0.702965 0.326353 0.118079
O20   O     O_2   0.103716 0.810619 0.275333 -0.161193
O21   O     O_2   0.282048 0.742531 0.376319 -0.314764
O22   O     O_3   0.197270 0.612976 0.209072 -0.515178
H10   H     H_    0.250788 0.658175 0.151813 0.385648
S3    S     S_3+6 0.832510 0.750763 0.472817 0.087820
O23   O     O_2   0.899138 0.862919 0.455475 -0.160583
O24   O     O_2   0.723620 0.759492 0.389998 -0.294847
O25   O     O_3   0.780870 0.739533 0.620538 -0.572483
H11   H     H_    0.739828 0.814482 0.637269 0.384103
S4    S     S_3+6 0.896299 0.628296 0.248755 0.117580
O26   O     O_2   0.904702 0.750007 0.198469 -0.144717
O27   O     O_2   0.981229 0.554236 0.173419 -0.269939
O28   O     O_3   0.755844 0.587576 0.207868 -0.508090
H12   H     H_    0.753743 0.596576 0.116003 0.379490

loop_
_geom_bond_atom_site_label_1
_geom_bond_atom_site_label_2
_ccdc_geom_bond_type
C8    C9    S    
S3    O25   S    
S4    O27   D    
C21   O13   D    
O7    Zn1   S    
C18   S3    S    
O10   H5    S    
C7    O5    A    
N2    Zn1   S    
O5    Zn1   S    
C18   S4    S    
C20   O12   S    
C11   C16   T    
C5    C16   S    
C19   O9    D    
C1    C11   S    
S2    O22   S    
C15   C22   S    
S1    O19   S    
C2    C12   S    
O25   H11   S    
C17   S1    S    
S3    O23   D    
C17   C18   S    
O4    Zn2   S    
O22   H10   S    
C9    N2    T    
C7    O6    A    
O14   H7    S    
O3    Zn1   S    
C2    C17   S    
C1    O1    A    
C21   O14   S    
C17   S2    S    
C2    C6    S    
C3    C14   S    
C14   H3    S    
C19   O10   S    
C12   C14   S    
S4    O26   D    
C3    C7    S    
C13   C15   S    
O28   H12   S    
C1    O2    A    
S4    O28   S    
C13   C20   S    
O6    Zn2   S    
C4    C10   S    
S1    O17   D    
C22   O15   D    
C10   O8    A    
C8    N1    T    
C3    C15   S    
S2    O20   D    
C12   H1    S    
C3    C18   S    
C22   O16   S    
O16   H8    S    
O12   H6    S    
O1    Zn1   S    
C20   O11   D    
S3    O24   D    
C2    C13   S    
O19   H9    S    
C14   C21   S    
N1    Zn2   S    
C13   H2    S    
S1    O18   D    
C10   O7    A    
O2    Zn2   S    
C15   H4    S    
C6    O4    A    
C6    O3    A    
S2    O21   D    
C4    C5    T    
C12   C19   S    
O8    Zn2   S    
