data_mof_unit_66655.cif
_audit_creation_date              2013-03-05T16:02:36-0500
_audit_creation_method            fapswitch 2.2
_symmetry_space_group_name_H-M    P1
_symmetry_Int_Tables_number       1
_space_group_crystal_system       triclinic
_cell_length_a                    8.365761
_cell_length_b                    14.541365
_cell_length_c                    16.64341
_cell_angle_alpha                 105.842992
_cell_angle_beta                  81.703476
_cell_angle_gamma                 92.18167
_cell_volume                      1927.36784471

loop_
_atom_site_label
_atom_site_type_symbol
_atom_site_description
_atom_site_fract_x
_atom_site_fract_y
_atom_site_fract_z
_atom_type_partial_charge
P1    P     P_3+3 0.619500 0.379780 0.307000 0.540245
O1    O     O_2   0.449810 0.404330 0.292300 -0.339885
O2    O     O_3   0.665430 0.428070 0.399450 -0.345915
O3    O     O_3   0.183150 0.584440 0.337010 -0.413785
O4    O     O_2   0.359459 0.488609 0.194363 -0.314016
O5    O     O_3   0.568067 0.259825 0.292134 -0.550144
O6    O     O_3   0.249522 0.653770 0.194376 -0.460028
H1    H     H_    0.162170 0.750031 0.307273 0.095280
C1    C     C_3   0.154686 0.808957 0.203066 -0.779176
H2    H     H_    0.275336 0.841956 0.209447 0.267894
H3    H     H_    0.138478 0.785273 0.135408 0.284001
P2    P     P_3+3 0.105540 0.727570 0.557610 0.528473
P3    P     P_3+3 0.612082 0.758672 0.376007 0.602764
O7    O     O_2   0.286000 0.735700 0.531070 -0.391654
O8    O     O_3   0.580930 0.641410 0.378050 -0.310766
O9    O     O_2   0.485755 0.813751 0.447784 -0.319142
O10   O     O_3   0.053535 0.768812 0.668748 -0.623864
O11   O     O_3   0.541532 0.775440 0.286050 -0.533124
C2    C     C_3   0.669850 0.774754 0.220662 1.006472
H4    H     H_    0.787959 0.792290 0.243674 -0.142642
C3    C     C_3   0.637102 0.848683 0.175308 -0.677485
H5    H     H_    0.535576 0.826805 0.138152 0.264388
H6    H     H_    0.604785 0.918007 0.221781 0.274497
C4    C     C_3   0.638404 0.816038 0.730746 0.786210
C5    C     C_3   0.740310 0.813900 0.800556 -0.147435
H7    H     H_    0.822659 0.753157 0.775651 0.166514
H8    H     H_    0.814057 0.879264 0.813637 0.178719
Ba1   Ba    Ba6+2 0.356390 0.534880 0.456030 1.742034
C6    C     C_3   0.694597 0.203737 0.297074 0.650860
H9    H     H_    0.784274 0.246627 0.334316 -0.010802
C7    C     C_3   0.782828 0.153310 0.208610 -0.108463
H10   H     H_    0.865624 0.098142 0.213839 0.128715
H11   H     H_    0.858278 0.207164 0.184907 0.060364
C8    C     C_3   0.172278 0.816615 0.716636 0.738216
H12   H     H_    0.293624 0.795936 0.683056 0.107565
C9    C     C_3   0.149822 0.925157 0.737060 -0.757285
H13   H     H_    0.201440 0.954163 0.685123 0.184992
H14   H     H_    0.210723 0.963083 0.791873 0.288325
H15   H     H_    0.020800 0.944394 0.751144 0.261127
P4    P     P_3+3 0.570190 0.620290 0.693000 0.571593
O12   O     O_2   0.739870 0.595710 0.707750 -0.397357
O13   O     O_3   0.524260 0.572010 0.600550 -0.305276
O14   O     O_3   0.006540 0.415640 0.663000 -0.337171
O15   O     O_3   0.520521 0.743602 0.720414 -0.621948
P5    P     P_3+3 0.592281 0.235990 0.619387 0.588280
O16   O     O_3   0.149240 0.378950 0.461440 -0.351260
O17   O     O_3   0.608760 0.358670 0.621950 -0.319512
O18   O     O_2   0.749639 0.186258 0.569095 -0.316027
O19   O     O_3   0.604201 0.220212 0.718542 -0.523884
Ba2   Ba    Ba6+2 0.833430 0.465200 0.543970 1.751000
P6    P     P_3+3 0.205119 0.550301 0.227426 0.505136
C10   C     C_3   0.137439 0.724585 0.240965 0.396304
H16   H     H_    0.011474 0.697473 0.239431 0.043395
H17   H     H_    0.062527 0.863665 0.237050 0.228132
O20   O     O_3   0.040450 0.621130 0.538560 -0.350536
C11   C     C_3   0.124764 0.276916 0.285902 0.336045
H18   H     H_    0.005535 0.306640 0.286296 -0.034821
H19   H     H_    0.200594 0.336619 0.314415 0.163681
C12   C     C_3   0.202103 0.235071 0.195278 -0.692502
H20   H     H_    0.134978 0.171224 0.163965 0.244934
H21   H     H_    0.203824 0.289438 0.159511 0.220561
H22   H     H_    0.327682 0.213441 0.194797 0.305771
P7    P     P_3+3 0.091234 0.256639 0.437920 0.529797
O21   O     O_2   0.903680 0.264350 0.468980 -0.334028
O22   O     O_3   0.109440 0.205130 0.328520 -0.544978
H23   H     H_    0.746540 0.858045 0.131903 0.220764
C13   C     C_3   0.512906 0.289463 0.782227 0.157850
H24   H     H_    0.588785 0.354083 0.800675 0.173143
H25   H     H_    0.401371 0.310022 0.762226 -0.027844
C14   C     C_3   0.466222 0.246475 0.856721 -0.004282
H26   H     H_    0.359979 0.199149 0.844854 0.134693
H27   H     H_    0.565776 0.200743 0.861292 0.234152
P8    P     P_3+3 0.982775 0.441127 0.771807 0.507130
C15   C     C_3   0.054294 0.272981 0.777799 0.105025
H28   H     H_    0.136333 0.298599 0.826081 0.077423
O23   O     O_2   0.836886 0.509198 0.805392 -0.345982
O24   O     O_3   0.920329 0.334392 0.795992 -0.520347
H29   H     H_    0.121766 0.269314 0.714159 0.041135
H30   H     H_    0.098587 0.121298 0.745302 0.037493
C16   C     C_3   0.997848 0.171444 0.777254 0.090751
H31   H     H_    0.894948 0.151639 0.740588 0.171906
C17   C     C_2   0.278144 0.525934 0.749735 -0.346847
C18   C     C_R   0.907150 0.462074 0.248941 -0.439406
C19   C     C_2   0.479662 0.570390 0.844573 -0.189225
C20   C     C_2   0.437166 0.566567 0.768759 0.272483
C21   C     C_2   0.170948 0.497766 0.807350 0.128957
C22   C     C_3   0.197936 0.528920 0.899139 0.118580
C23   C     C_3   0.378104 0.525061 0.905871 0.054925
C24   C     C_2   0.089868 0.482789 0.958630 -0.171872
C25   C     C_2   0.116512 0.493824 0.038666 0.021046
C26   C     C_R   0.858750 0.413475 0.081070 0.177753
C27   C     C_R   0.000760 0.462431 0.103291 0.007918
C28   C     C_R   0.743946 0.387538 0.140842 -0.080901
C29   C     C_R   0.766938 0.412683 0.225518 0.177857
C30   C     C_R   0.025353 0.485602 0.188813 0.136873
H32   H     H_    0.592553 0.601865 0.861491 0.229885
H33   H     H_    0.634668 0.352005 0.121525 0.209780
H34   H     H_    0.244569 0.524797 0.689353 0.193433
H35   H     H_    0.925320 0.481349 0.314530 0.152305
H36   H     H_    0.976926 0.451553 0.940259 0.166518
H37   H     H_    0.226301 0.529714 0.057208 0.178081
C31   C     C_R   0.203249 0.939551 0.528086 -0.096564
C32   C     C_R   0.024362 0.796114 0.490070 0.317858
C33   C     C_R   0.902340 0.752859 0.442481 -0.373736
C34   C     C_R   0.809453 0.806074 0.407458 0.033023
C35   C     C_R   0.852392 0.900257 0.408991 0.207813
C36   C     C_R   0.984147 0.943765 0.448792 -0.063263
C37   C     C_R   0.071783 0.892383 0.489673 -0.043364
H38   H     H_    0.867778 0.679827 0.440326 0.179176
C38   C     C_R   0.150531 0.087015 0.492188 -0.046594
C39   C     C_R   0.242603 0.035504 0.530514 0.095009
C40   C     C_R   0.190798 0.183574 0.494198 0.088167
C41   C     C_R   0.322695 0.225076 0.533758 0.044683
C42   C     C_R   0.414906 0.175009 0.571497 0.155054
C43   C     C_R   0.374640 0.080242 0.569949 -0.267203
C44   C     C_R   0.023740 0.039876 0.451449 -0.013167
H39   H     H_    0.447631 0.041362 0.598227 0.217597
H40   H     H_    0.278875 0.902154 0.555372 0.175218
H41   H     H_    0.953832 0.079161 0.422572 0.208574
N1    N     N_R   0.648563 0.806004 0.880335 0.283358
O25   O     O_R   0.543483 0.871156 0.922895 -0.205887
O26   O     O_R   0.708831 0.754119 0.921106 -0.297359
N2    N     N_R   0.625531 0.135930 0.342156 0.259591
O27   O     O_R   0.666575 0.143107 0.415747 -0.356375
O28   O     O_R   0.490338 0.093275 0.324495 -0.317655
S1    S     S_3+6 0.658391 0.100547 0.128235 0.091965
O29   O     O_2   0.516947 0.047124 0.159623 -0.221906
O30   O     O_2   0.596982 0.177264 0.095902 -0.208729
O31   O     O_3   0.771589 0.024667 0.047302 -0.354303
H42   H     H_    0.837773 0.989106 0.073538 0.344576
S2    S     S_3+6 0.143068 0.785593 0.816660 0.006724
O32   O     O_2   0.300414 0.776052 0.846259 -0.240193
O33   O     O_2   0.047333 0.862036 0.883929 -0.202986
O34   O     O_3   0.042868 0.682144 0.809333 -0.497449
H43   H     H_    0.049503 0.650304 0.748336 0.329534
N3    N     N_R   0.431585 0.319892 0.936506 0.239901
O35   O     O_R   0.301384 0.313571 0.987719 -0.368588
O36   O     O_R   0.544002 0.379548 0.964025 -0.420638
S3    S     S_3+6 0.686066 0.660135 0.146750 -0.015663
O37   O     O_2   0.849906 0.650215 0.094682 -0.329754
O38   O     O_2   0.665196 0.586906 0.195412 -0.316859
O39   O     O_3   0.543406 0.644654 0.082725 -0.474288
H44   H     H_    0.542221 0.574899 0.055879 0.393058
S4    S     S_3+6 0.940135 0.156869 0.881210 0.049415
O40   O     O_2   0.865598 0.060112 0.874239 -0.170338
O41   O     O_2   0.085683 0.163857 0.925754 -0.233837
O42   O     O_3   0.803658 0.238766 0.938849 -0.449218
H45   H     H_    0.848948 0.300299 0.932423 0.352209
N4    N     N_R   0.762316 0.951490 0.368742 0.227856
O43   O     O_R   0.607510 0.963353 0.391513 -0.315645
O44   O     O_R   0.833047 0.979065 0.304408 -0.492495
N5    N     N_R   0.377767 0.315302 0.525302 0.248024
O45   O     O_R   0.501423 0.319227 0.470161 -0.309520
O46   O     O_R   0.324678 0.392315 0.581465 -0.415166
N6    N     N_R   0.741398 0.807582 0.650862 0.199764
O47   O     O_R   0.826936 0.881626 0.641645 -0.454355
O48   O     O_R   0.703977 0.745270 0.583973 -0.393392
N7    N     N_R   0.553693 0.908641 0.750997 0.230426
O49   O     O_R   0.566708 0.976044 0.819610 -0.306314
O50   O     O_R   0.496129 0.931933 0.690720 -0.444291

loop_
_geom_bond_atom_site_label_1
_geom_bond_atom_site_label_2
_geom_bond_distance
_ccdc_geom_bond_type
O14   P8    1.729609 S    
C14   N3    1.457907 S    
C22   C23   1.531694 S    
P7    O22   1.756002 S    
C28   C29   1.395827 A    
C38   C44   1.397541 A    
C3    H23   1.109923 S    
N6    O48   1.298692 A    
Ba2   O21   2.891695 S    
O42   H45   0.985068 S    
S2    O34   1.677429 S    
C42   C43   1.400327 A    
N2    O27   1.295286 A    
N1    O25   1.299759 A    
Ba1   O16   2.814219 S    
S1    O29   1.499921 D    
P3    O11   1.764844 S    
P2    Ba1   3.456956 S    
C9    H13   1.090437 S    
C2    C3    1.525037 S    
O6    C10   1.403055 S    
C8    H12   1.095929 S    
N4    O44   1.300360 A    
C33   H38   1.082362 S    
S3    O39   1.681100 S    
C4    N7    1.478168 S    
N2    O28   1.301250 A    
C35   C36   1.408110 A    
C11   O22   1.406067 S    
C6    N2    1.450690 S    
C11   H18   1.100521 S    
O11   C2    1.412293 S    
C19   H32   1.074312 S    
P7    C40   1.880370 S    
C38   C39   1.416975 A    
C33   C34   1.401866 A    
Ba1   Ba2   4.679597 S    
P5    C42   1.865130 S    
O2    Ba2   2.874200 S    
C2    H4    1.106660 S    
P1    C29   1.848242 S    
C16   S4    1.795242 S    
C15   O24   1.405620 S    
P2    O10   1.775483 S    
P1    Ba1   3.439731 S    
C36   C37   1.421944 A    
C7    H11   1.107467 S    
C31   C37   1.412380 A    
C14   H26   1.110155 S    
C1    H2    1.107481 S    
H1    C10   1.111188 S    
C31   H40   1.070602 S    
C4    N6    1.453751 S    
P4    O13   1.602603 S    
C12   H20   1.108813 S    
C35   N4    1.425665 S    
C18   H35   1.082078 S    
C3    H5    1.108416 S    
N7    O50   1.300162 A    
C17   H34   1.077564 S    
C41   N5    1.410512 S    
C31   C39   1.412425 A    
C1    C10   1.518794 S    
S4    O42   1.675032 S    
C40   C41   1.399018 A    
O3    Ba1   2.869014 S    
Ba1   O20   2.951207 S    
N1    O26   1.300425 A    
O17   Ba2   2.790850 S    
P5    O17   1.773326 S    
P8    C21   1.846734 S    
C12   H21   1.110491 S    
C14   H27   1.108930 S    
C15   H28   1.109853 S    
C24   H36   1.080465 S    
C13   H24   1.110633 S    
C19   C20   1.345837 D    
P2    C32   1.897856 S    
P3    C34   1.855047 S    
C26   C27   1.404855 A    
C21   C22   1.517851 S    
C16   H31   1.110469 S    
O3    P6    1.738538 S    
S1    O31   1.681842 S    
C43   H39   1.080980 S    
C5    H7    1.091151 S    
C17   C21   1.352703 D    
C18   C29   1.399516 A    
C27   C30   1.413937 A    
P7    O21   1.577761 D    
P1    O2    1.602627 S    
P4    C20   1.872228 S    
C25   H37   1.081001 S    
C6    H9    1.106111 S    
C26   C28   1.398521 A    
S4    O41   1.500834 D    
C25   C27   1.495604 S    
C7    H10   1.108476 S    
P5    O19   1.744123 S    
C18   C30   1.404255 A    
C4    C5    1.544439 S    
C1    H3    1.110746 S    
C32   C37   1.441907 A    
O13   Ba2   2.965324 S    
N3    O36   1.300769 A    
P4    O12   1.546000 D    
P2    O7    1.520103 D    
C8    S2    1.821748 S    
C3    H6    1.105543 S    
N7    O49   1.301240 A    
C4    O15   1.408042 S    
P8    O23   1.541029 D    
O10   C8    1.406637 S    
S2    O32   1.494322 D    
C5    N1    1.465535 S    
C28   H33   1.078999 S    
O12   Ba2   2.883986 S    
N6    O47   1.301816 A    
C10   H16   1.112290 S    
C41   C42   1.397105 A    
P5    O18   1.542901 D    
O2    Ba1   2.964402 S    
C12   H22   1.106355 S    
S1    O30   1.499729 D    
O19   C13   1.401069 S    
C9    H15   1.101093 S    
O4    P6    1.545417 D    
C19   C23   1.507160 S    
N5    O46   1.292910 A    
S4    O40   1.498939 D    
S2    O33   1.503341 D    
C39   C43   1.412617 A    
S3    O37   1.501489 D    
C44   H41   1.075082 S    
O14   Ba2   2.868486 S    
O34   H43   0.988494 S    
C5    H8    1.101167 S    
C17   C20   1.476052 S    
C34   C35   1.396941 A    
O16   Ba2   2.950288 S    
Ba2   O20   2.813587 S    
C11   C12   1.520219 S    
O16   P7    1.777920 S    
C13   C14   1.531450 S    
O7    Ba1   2.891620 S    
P3    O8    1.723913 S    
O31   H42   0.989700 S    
O6    P6    1.747759 S    
C6    C7    1.545444 S    
N4    O43   1.300098 A    
C9    H14   1.110856 S    
S3    O38   1.495408 D    
O8    Ba1   2.790213 S    
P4    Ba2   3.440274 S    
P1    O1    1.545649 D    
Ba1   O13   2.873547 S    
C11   H19   1.096051 S    
C8    C9    1.534030 S    
C38   C40   1.423969 A    
C36   C44   1.414268 A    
P2    O20   1.584418 S    
O1    Ba1   2.883431 S    
H30   C16   1.109276 S    
P4    O15   1.775223 S    
O5    C6    1.385602 S    
N5    O45   1.290641 A    
C2    S3    1.777411 S    
C15   H29   1.114564 S    
P3    O9    1.537248 D    
C32   C33   1.406219 A    
C22   C24   1.518500 S    
P8    O24   1.750021 S    
O39   H44   0.990790 S    
N3    O35   1.299467 A    
C15   C16   1.530989 S    
C1    H17   1.105612 S    
C7    S1    1.800713 S    
C13   H25   1.111761 S    
C24   C25   1.347629 D    
P1    O5    1.739793 S    
P6    C30   1.844141 S    
