data_mof_unit_65175.cif
_audit_creation_date              2013-03-05T15:49:47-0500
_audit_creation_method            fapswitch 2.2
_symmetry_space_group_name_H-M    P1
_symmetry_Int_Tables_number       1
_space_group_crystal_system       triclinic
_cell_length_a                    37.306352
_cell_length_b                    30.212455
_cell_length_c                    21.807424
_cell_angle_alpha                 89.956716
_cell_angle_beta                  54.282667
_cell_angle_gamma                 90.045718
_cell_volume                      19956.2438284

loop_
_atom_site_label
_atom_site_type_symbol
_atom_site_description
_atom_site_fract_x
_atom_site_fract_y
_atom_site_fract_z
_atom_type_partial_charge
O1    O     O_R   0.935120 0.537520 0.564840 -0.530831
O2    O     O_R   0.064880 0.537520 0.435160 -0.531046
O3    O     O_R   0.435120 0.037520 0.564840 -0.531995
O4    O     O_R   0.564880 0.037520 0.435160 -0.531510
O5    O     O_R   0.935080 0.462440 0.564870 -0.535037
O6    O     O_R   0.064920 0.462440 0.435130 -0.534878
O7    O     O_R   0.435080 0.962440 0.564870 -0.538603
O8    O     O_R   0.564920 0.962440 0.435130 -0.536820
C1    C     C_R   0.914211 0.499957 0.586330 0.861032
C2    C     C_R   0.085789 0.500014 0.413624 0.861025
C3    C     C_R   0.414159 0.999842 0.586339 0.876770
C4    C     C_R   0.585781 0.000001 0.414176 0.871513
O9    O     O_R   0.999990 0.537520 0.408860 -0.539600
O10   O     O_R   0.000010 0.537520 0.591140 -0.539575
O11   O     O_R   0.499990 0.037520 0.408860 -0.538134
O12   O     O_R   0.500010 0.037520 0.591140 -0.541234
O13   O     O_R   0.999950 0.462430 0.408890 -0.523514
O14   O     O_R   0.000050 0.462430 0.591110 -0.523613
O15   O     O_R   0.499950 0.962430 0.408890 -0.522144
O16   O     O_R   0.500050 0.962430 0.591110 -0.524357
C5    C     C_R   0.998355 0.500162 0.381531 0.978730
C6    C     C_R   0.001653 0.500143 0.618460 0.978502
C7    C     C_R   0.498273 0.000201 0.381660 0.997133
C8    C     C_R   0.501613 0.000152 0.618459 0.982904
Cu1   Cu    Cu3+1 0.000000 0.544430 0.500000 1.311323
Cu2   Cu    Cu3+1 0.500000 0.044430 0.500000 1.310535
Cu3   Cu    Cu3+1 1.000000 0.455520 0.500000 1.312284
Cu4   Cu    Cu3+1 0.500000 0.955520 0.500000 1.314207
C9    C     C_3   0.964105 0.537691 0.319650 0.564906
C10   C     C_3   0.036037 0.537635 0.680136 0.564857
C11   C     C_3   0.469925 0.042477 0.313573 0.578400
C12   C     C_3   0.532403 0.040598 0.683793 0.567978
C13   C     C_3   0.969769 0.542479 0.242258 0.569095
C14   C     C_3   0.030382 0.542430 0.757510 0.569081
C15   C     C_3   0.476493 0.046206 0.235306 0.559467
C16   C     C_3   0.526039 0.045003 0.761828 0.567070
C17   C     C_3   0.046939 0.511191 0.240913 0.541376
C18   C     C_3   0.953106 0.511168 0.759020 0.541278
C19   C     C_3   0.547760 0.003561 0.240342 0.545530
C20   C     C_3   0.452300 0.006468 0.759584 0.542354
C21   C     C_3   0.983019 0.452113 0.301072 0.329050
C22   C     C_3   0.016817 0.452064 0.699189 0.328871
C23   C     C_3   0.475579 0.955034 0.309109 0.329078
C24   C     C_3   0.521288 0.953668 0.694353 0.331954
C25   C     C_3   0.997995 0.500841 0.312624 -0.630853
C26   C     C_3   0.002017 0.500798 0.687362 -0.630808
C27   C     C_3   0.497875 0.000888 0.312846 -0.638886
C28   C     C_3   0.501944 0.000761 0.687320 -0.633041
C29   C     C_3   0.999882 0.503142 0.188485 -0.638956
C30   C     C_3   0.000128 0.503105 0.811498 -0.639117
C31   C     C_3   0.500144 0.002617 0.188353 -0.636693
C32   C     C_3   0.499808 0.002844 0.811685 -0.637476
C33   C     C_3   0.049099 0.507833 0.166329 0.628616
C34   C     C_3   0.950929 0.507809 0.833623 0.628618
C35   C     C_3   0.549518 0.999560 0.166286 0.626595
C36   C     C_3   0.450319 0.002680 0.833925 0.628081
C37   C     C_3   0.980331 0.456419 0.230330 0.636936
C38   C     C_3   0.019515 0.456370 0.769918 0.637104
C39   C     C_3   0.473545 0.959432 0.237714 0.637268
C40   C     C_3   0.523605 0.958131 0.765444 0.635529
C41   C     C_R   0.655951 0.465502 0.876973 0.267522
C42   C     C_R   0.343938 0.465528 0.123240 0.267517
C43   C     C_R   0.156159 0.966338 0.877579 0.263714
C44   C     C_R   0.843794 0.966681 0.121519 0.265100
C45   C     C_R   0.633251 0.498260 0.866605 -0.303567
C46   C     C_R   0.366745 0.498291 0.133406 -0.303411
C47   C     C_R   0.133329 0.998262 0.865985 -0.304543
C48   C     C_R   0.866695 0.998402 0.133415 -0.304247
C49   C     C_R   0.656087 0.530695 0.811107 0.657437
C50   C     C_R   0.344019 0.530755 0.188690 0.657452
C51   C     C_R   0.156079 0.028406 0.806377 0.658003
C52   C     C_R   0.843988 0.029932 0.190492 0.656661
C53   C     C_R   0.702283 0.531690 0.765777 -0.157914
C54   C     C_R   0.297825 0.531775 0.233996 -0.157838
C55   C     C_R   0.202259 0.027734 0.757790 -0.157207
C56   C     C_R   0.797788 0.031011 0.235920 -0.158145
C57   C     C_R   0.725776 0.498347 0.774064 -0.152697
C58   C     C_R   0.274221 0.498440 0.225889 -0.152689
C59   C     C_R   0.225780 0.995451 0.767964 -0.152251
C60   C     C_R   0.774157 0.998439 0.226423 -0.152127
C61   C     C_R   0.702551 0.464511 0.828892 -0.126661
C62   C     C_R   0.297333 0.464577 0.171283 -0.126730
C63   C     C_R   0.202561 0.963667 0.826605 -0.128507
C64   C     C_R   0.797230 0.965463 0.170073 -0.127827
C65   C     C_R   0.725266 0.566099 0.713797 0.661269
C66   C     C_R   0.274955 0.566202 0.285769 0.661282
C67   C     C_R   0.225170 0.057861 0.697788 0.660875
C68   C     C_R   0.774935 0.064779 0.289183 0.658417
C69   C     C_R   0.771265 0.567656 0.669197 0.204282
C70   C     C_R   0.228960 0.567784 0.330339 0.204290
C71   C     C_R   0.271186 0.057599 0.649491 0.194255
C72   C     C_R   0.728925 0.066430 0.333818 0.203977
C73   C     C_R   0.795519 0.532788 0.672757 -0.123427
C74   C     C_R   0.204587 0.532933 0.326950 -0.123397
C75   C     C_R   0.295519 0.028113 0.663146 -0.127599
C76   C     C_R   0.704545 0.032125 0.329170 -0.123666
C77   C     C_R   0.772464 0.498851 0.727432 -0.013705
C78   C     C_R   0.227535 0.498979 0.272478 -0.013709
C79   C     C_R   0.272483 0.995079 0.719731 -0.012619
C80   C     C_R   0.727482 0.998877 0.273281 -0.013059
C81   C     C_R   0.795948 0.465492 0.735825 -0.126610
C82   C     C_R   0.203946 0.465640 0.264235 -0.126671
C83   C     C_R   0.295863 0.962034 0.729134 -0.126556
C84   C     C_R   0.703895 0.966149 0.263858 -0.127770
C85   C     C_R   0.772470 0.429392 0.785149 0.217935
C86   C     C_R   0.227295 0.429519 0.215144 0.217953
C87   C     C_R   0.271959 0.926797 0.780553 0.218197
C88   C     C_R   0.727250 0.930651 0.213165 0.218012
C89   C     C_R   0.726411 0.429615 0.831979 0.645659
C90   C     C_R   0.273354 0.429696 0.168374 0.645668
C91   C     C_R   0.226064 0.928632 0.830121 0.646252
C92   C     C_R   0.773283 0.931076 0.165916 0.645605
C93   C     C_R   0.842033 0.530297 0.621980 0.297295
C94   C     C_R   0.158059 0.530466 0.377710 0.297339
C95   C     C_R   0.341959 0.030921 0.622345 0.309374
C96   C     C_R   0.658015 0.029546 0.379934 0.294162
C97   C     C_R   0.865494 0.499903 0.635481 -0.225562
C98   C     C_R   0.134508 0.500067 0.364365 -0.225544
C99   C     C_R   0.365345 0.998774 0.632980 -0.220468
C100  C     C_R   0.634480 0.999978 0.365288 -0.221262
C101  C     C_R   0.842206 0.469375 0.695783 0.288523
C102  C     C_R   0.157711 0.469558 0.304190 0.288507
C103  C     C_R   0.342259 0.965244 0.688022 0.286476
C104  C     C_R   0.657666 0.970105 0.304158 0.287733
O17   O     O_R   0.962420 0.564820 0.037570 -0.536542
O18   O     O_R   0.037580 0.564820 0.962430 -0.536787
O19   O     O_R   0.462420 0.064820 0.037570 -0.538806
O20   O     O_R   0.537580 0.064820 0.962430 -0.538090
C105  C     C_R   0.000028 0.585930 0.999959 0.877275
C106  C     C_R   0.500033 0.085865 0.000036 0.889261
O21   O     O_R   0.962440 0.499950 0.128690 -0.520494
O22   O     O_R   0.037560 0.499950 0.871310 -0.520323
O23   O     O_R   0.462440 0.999950 0.128690 -0.523042
O24   O     O_R   0.537560 0.999950 0.871310 -0.521676
O25   O     O_R   0.037530 0.500000 0.053640 -0.516454
O26   O     O_R   0.962470 0.500000 0.946360 -0.516505
O27   O     O_R   0.537530 0.000000 0.053640 -0.526832
O28   O     O_R   0.462470 0.000000 0.946360 -0.523029
C107  C     C_R   0.000073 0.501874 0.119624 0.997673
C108  C     C_R   0.999932 0.501848 0.880366 0.997917
C109  C     C_R   0.500140 0.001300 0.119640 1.003644
C110  C     C_R   0.499857 0.001529 0.880373 1.003515
Cu5   Cu    Cu3+1 0.955510 0.499950 0.044460 1.329800
Cu6   Cu    Cu3+1 0.044490 0.499950 0.955540 1.329750
Cu7   Cu    Cu3+1 0.455510 0.999950 0.044460 1.326497
Cu8   Cu    Cu3+1 0.544490 0.999950 0.955540 1.325956
O29   O     O_R   0.962440 0.435080 0.037530 -0.530733
O30   O     O_R   0.037560 0.435080 0.962470 -0.531397
O31   O     O_R   0.462440 0.935080 0.037530 -0.530803
O32   O     O_R   0.537560 0.935080 0.962470 -0.530466
C111  C     C_R   0.999980 0.414401 0.000149 0.933956
C112  C     C_R   0.499972 0.914389 0.000038 0.928739
O33   O     O_R   0.499930 0.435080 0.947280 -0.567208
O34   O     O_R   0.500070 0.435080 0.052720 -0.567301
O35   O     O_R   0.999930 0.935080 0.947280 -0.561486
O36   O     O_R   0.000070 0.935080 0.052720 -0.560910
C113  C     C_R   0.499999 0.414836 0.000019 0.809741
C114  C     C_R   0.000034 0.914897 0.999992 0.800793
O37   O     O_R   0.564810 0.499970 0.882380 -0.547961
O38   O     O_R   0.435190 0.499970 0.117620 -0.548072
O39   O     O_R   0.064810 0.999970 0.882380 -0.545827
O40   O     O_R   0.935190 0.999970 0.117620 -0.545919
O41   O     O_R   0.564880 0.499960 0.987830 -0.544358
O42   O     O_R   0.435120 0.499960 0.012170 -0.544321
O43   O     O_R   0.064880 0.999960 0.987830 -0.541617
O44   O     O_R   0.935120 0.999960 0.012170 -0.542615
C115  C     C_R   0.585201 0.499471 0.914754 0.883343
C116  C     C_R   0.414798 0.499481 0.085250 0.883464
C117  C     C_R   0.085237 0.999709 0.914684 0.875987
C118  C     C_R   0.914779 0.999525 0.085257 0.879058
Cu9   Cu    Cu3+1 0.499930 0.499950 0.937580 1.211366
Cu10  Cu    Cu3+1 0.500070 0.499950 0.062420 1.211235
Cu11  Cu    Cu3+1 0.999930 0.999950 0.937580 1.218756
Cu12  Cu    Cu3+1 0.000070 0.999950 0.062420 1.218175
O45   O     O_R   0.499950 0.564810 0.947310 -0.527719
O46   O     O_R   0.500050 0.564810 0.052690 -0.527485
O47   O     O_R   0.999950 0.064810 0.947310 -0.529004
O48   O     O_R   0.000050 0.064810 0.052690 -0.525750
C119  C     C_R   0.500002 0.585355 0.999978 0.921150
C120  C     C_R   0.000041 0.085372 0.999907 0.916978
C121  C     C_R   0.532220 0.344510 0.935261 -0.074633
C122  C     C_R   0.467752 0.344428 0.064940 -0.074953
C123  C     C_R   0.035701 0.844786 0.939442 -0.074485
C124  C     C_R   0.964577 0.844640 0.060736 -0.073835
C125  C     C_R   0.499990 0.367105 0.000071 -0.046754
C126  C     C_R   0.000095 0.867287 0.000025 -0.050651
C127  C     C_R   0.466193 0.298197 0.064991 -0.017036
C128  C     C_R   0.533759 0.298286 0.935355 -0.017179
C129  C     C_R   0.963609 0.798417 0.060781 -0.016146
C130  C     C_R   0.036724 0.798563 0.939515 -0.015930
C131  C     C_R   0.499976 0.274812 0.000214 0.038203
C132  C     C_R   0.000159 0.775055 0.000127 0.035733
C133  C     C_R   0.432381 0.275129 0.129263 0.241265
C134  C     C_R   0.567575 0.275303 0.871168 0.241746
C135  C     C_R   0.926913 0.775374 0.120350 0.246180
C136  C     C_R   0.073449 0.775660 0.880021 0.246852
C137  C     C_R   0.925761 0.729125 0.118968 0.252384
C138  C     C_R   0.074541 0.729405 0.881236 0.252493
C139  C     C_R   0.431703 0.228757 0.128999 0.253522
C140  C     C_R   0.568324 0.228947 0.871645 0.254234
C141  C     C_R   0.961904 0.705229 0.057624 -0.105118
C142  C     C_R   0.038349 0.705355 0.942466 -0.105163
C143  C     C_R   0.464510 0.204949 0.063298 -0.104655
C144  C     C_R   0.535558 0.205084 0.937436 -0.104942
C145  C     C_R   0.000140 0.728467 0.000077 -0.058088
C146  C     C_R   0.499996 0.228230 0.000301 -0.059241
C147  C     C_R   0.960567 0.658860 0.051621 0.306571
C148  C     C_R   0.039621 0.658957 0.948337 0.306499
C149  C     C_R   0.462282 0.158594 0.058144 0.304430
C150  C     C_R   0.537961 0.158790 0.942759 0.306138
C151  C     C_R   0.000076 0.635182 0.999948 -0.204696
C152  C     C_R   0.500093 0.135004 0.000275 -0.202306
H1    H     H_    0.556475 0.363497 0.885680 0.196803
H2    H     H_    0.443537 0.363364 0.114477 0.196880
H3    H     H_    0.062870 0.863762 0.893412 0.197002
H4    H     H_    0.937406 0.863511 0.106747 0.198751
C153  C     C_R   0.528554 0.656613 0.010540 0.600861
C154  C     C_R   0.471448 0.656561 0.989360 0.600972
C155  C     C_R   0.029095 0.156657 0.009593 0.597774
C156  C     C_R   0.973014 0.156600 0.985958 0.601722
C157  C     C_R   0.500007 0.633722 0.999939 -0.289566
C158  C     C_R   0.000608 0.133771 0.998839 -0.289664
C159  C     C_R   0.469652 0.703087 0.992441 -0.158365
C160  C     C_R   0.530309 0.703145 0.007545 -0.158430
C161  C     C_R   0.973526 0.203148 0.983383 -0.158510
C162  C     C_R   0.030989 0.203206 0.006348 -0.158092
C163  C     C_R   0.499968 0.726455 0.000020 -0.077101
C164  C     C_R   0.002066 0.226511 0.995299 -0.076931
C165  C     C_R   0.438921 0.726944 0.986994 0.225659
C166  C     C_R   0.561015 0.727061 0.013049 0.225560
C167  C     C_R   0.945609 0.227032 0.970968 0.224114
C168  C     C_R   0.060366 0.227169 0.015202 0.225201
C169  C     C_R   0.944582 0.273232 0.974312 0.666854
C170  C     C_R   0.059321 0.273397 0.016702 0.665751
C171  C     C_R   0.439530 0.773178 0.986443 0.667293
C172  C     C_R   0.560359 0.773290 0.013709 0.667485
C173  C     C_R   0.972102 0.296618 0.987249 -0.171473
C174  C     C_R   0.030100 0.296709 0.007794 -0.171216
C175  C     C_R   0.469652 0.796578 0.993025 -0.171066
C176  C     C_R   0.530215 0.796631 0.007177 -0.170740
C177  C     C_R   0.001459 0.273249 0.996694 -0.166914
C178  C     C_R   0.499944 0.773191 0.000075 -0.167105
C179  C     C_R   0.971392 0.343061 0.989670 0.654131
C180  C     C_R   0.029307 0.343157 0.008866 0.654034
C181  C     C_R   0.469848 0.843031 0.993325 0.654876
C182  C     C_R   0.529991 0.843080 0.006944 0.654504
C183  C     C_R   0.000050 0.366069 0.999962 -0.342767
C184  C     C_R   0.499922 0.866038 0.000130 -0.344237
N1    N     N_R   0.961497 0.581441 0.352861 0.186570
O49   O     O_R   0.925724 0.604668 0.381010 -0.106149
O50   O     O_R   0.994919 0.601092 0.345055 -0.232550
N2    N     N_R   0.038817 0.581380 0.646653 0.186497
O51   O     O_R   0.074685 0.604571 0.618347 -0.106088
O52   O     O_R   0.005467 0.601075 0.654382 -0.232484
N3    N     N_R   0.474052 0.086223 0.339852 0.191436
O53   O     O_R   0.442083 0.114557 0.364693 -0.108873
O54   O     O_R   0.510080 0.100493 0.329523 -0.236655
N4    N     N_R   0.531468 0.084274 0.653568 0.188400
O55   O     O_R   0.565835 0.109935 0.624700 -0.106076
O56   O     O_R   0.496364 0.101208 0.663714 -0.233598
F1    F     F_    0.006290 0.423787 0.177676 -0.522647
F2    F     F_    0.993441 0.423750 0.822753 -0.522219
F3    F     F_    0.494180 0.923076 0.190628 -0.534020
F4    F     F_    0.500736 0.923123 0.814968 -0.530943
F5    F     F_    0.074325 0.478695 0.236663 -0.511870
F6    F     F_    0.925606 0.478685 0.763440 -0.512016
F7    F     F_    0.570056 0.967483 0.241609 -0.501327
F8    F     F_    0.427718 0.971798 0.760685 -0.506571
F9    F     F_    0.071206 0.469104 0.129494 -0.453172
F10   F     F_    0.928689 0.469088 0.870668 -0.453184
F11   F     F_    0.564948 0.957656 0.136443 -0.453123
F12   F     F_    0.432172 0.961855 0.866684 -0.453396
N5    N     N_R   0.631382 0.433552 0.936324 0.197134
O57   O     O_R   0.605674 0.405439 0.934302 -0.329597
O58   O     O_R   0.632276 0.434695 0.995054 -0.204616
N6    N     N_R   0.368406 0.433532 0.064128 0.197145
O59   O     O_R   0.394044 0.405464 0.066341 -0.329099
O60   O     O_R   0.367549 0.434636 0.005354 -0.204595
N7    N     N_R   0.132015 0.936904 0.941043 0.199671
O61   O     O_R   0.104882 0.908019 0.944971 -0.334511
O62   O     O_R   0.135906 0.940191 0.996394 -0.199695
N8    N     N_R   0.868061 0.936153 0.059897 0.199213
O63   O     O_R   0.894072 0.907181 0.059144 -0.337347
O64   O     O_R   0.866122 0.939083 0.002369 -0.200812
F13   F     F_    0.632752 0.562181 0.803774 -0.552938
F14   F     F_    0.367460 0.562242 0.195831 -0.553072
F15   F     F_    0.132763 0.059249 0.797770 -0.551716
F16   F     F_    0.867438 0.060582 0.199198 -0.552415
F17   F     F_    0.703146 0.600012 0.708803 -0.502205
F18   F     F_    0.297190 0.600102 0.290589 -0.502257
F19   F     F_    0.202956 0.086700 0.683399 -0.502035
F20   F     F_    0.797211 0.098083 0.295281 -0.504113
N9    N     N_R   0.792364 0.607316 0.626886 0.201138
O65   O     O_R   0.784397 0.622049 0.579867 -0.141608
O66   O     O_R   0.812020 0.633045 0.646549 -0.205529
N10   N     N_R   0.207998 0.607451 0.372435 0.201149
O67   O     O_R   0.215999 0.622165 0.419403 -0.141666
O68   O     O_R   0.188452 0.633203 0.352607 -0.205360
N11   N     N_R   0.292198 0.084651 0.582940 0.198762
O69   O     O_R   0.313061 0.065911 0.516914 -0.164494
O70   O     O_R   0.283622 0.126792 0.588648 -0.149233
N12   N     N_R   0.707940 0.105701 0.377327 0.200245
O71   O     O_R   0.716490 0.119872 0.423863 -0.139601
O72   O     O_R   0.687392 0.131592 0.359675 -0.209150
N13   N     N_R   0.864626 0.554023 0.551716 0.146653
O73   O     O_R   0.853463 0.547007 0.506106 -0.169726
O74   O     O_R   0.889033 0.588195 0.540444 -0.210700
N14   N     N_R   0.135521 0.554226 0.447818 0.146484
O75   O     O_R   0.146593 0.547206 0.493559 -0.170008
O76   O     O_R   0.111233 0.588397 0.458836 -0.210607
N15   N     N_R   0.364944 0.068999 0.576447 0.159690
O77   O     O_R   0.393529 0.064977 0.503869 -0.198795
O78   O     O_R   0.359042 0.107417 0.607953 -0.224397
N16   N     N_R   0.635525 0.052131 0.451158 0.152562
O79   O     O_R   0.647427 0.044612 0.495629 -0.162852
O80   O     O_R   0.610136 0.085772 0.464797 -0.211588
N17   N     N_R   0.863920 0.447966 0.724740 0.169263
O81   O     O_R   0.848433 0.453706 0.795292 -0.168456
O82   O     O_R   0.892515 0.416607 0.686898 -0.196999
N18   N     N_R   0.135970 0.448230 0.275206 0.169548
O83   O     O_R   0.151556 0.454016 0.204596 -0.168550
O84   O     O_R   0.107253 0.416874 0.313092 -0.196807
N19   N     N_R   0.364569 0.940791 0.713067 0.159876
O85   O     O_R   0.353077 0.946873 0.781392 -0.168586
O86   O     O_R   0.389402 0.907118 0.674557 -0.197280
N20   N     N_R   0.635836 0.949502 0.274815 0.172569
O87   O     O_R   0.650970 0.956533 0.204682 -0.172158
O88   O     O_R   0.607485 0.917705 0.311621 -0.190311
N21   N     N_R   0.794708 0.389892 0.782455 0.199517
O89   O     O_R   0.818938 0.368091 0.719398 -0.213642
O90   O     O_R   0.785145 0.371903 0.844601 -0.134077
N22   N     N_R   0.204909 0.390043 0.218036 0.199479
O91   O     O_R   0.180549 0.368274 0.281227 -0.213788
O92   O     O_R   0.214438 0.372041 0.155976 -0.134106
N23   N     N_R   0.293246 0.886627 0.778053 0.201001
O93   O     O_R   0.313075 0.862361 0.717437 -0.205928
O94   O     O_R   0.285759 0.870245 0.839755 -0.133062
N24   N     N_R   0.704947 0.891464 0.214725 0.200011
O95   O     O_R   0.681057 0.868725 0.276941 -0.213358
O96   O     O_R   0.714200 0.874613 0.152119 -0.131806
F21   F     F_    0.922337 0.520674 0.370194 -0.509314
F22   F     F_    0.077746 0.520592 0.629701 -0.509358
F23   F     F_    0.425952 0.032109 0.366101 -0.498628
F24   F     F_    0.575482 0.027314 0.632483 -0.506399
F25   F     F_    0.705410 0.393562 0.876244 -0.520064
F26   F     F_    0.294225 0.393619 0.124352 -0.520018
F27   F     F_    0.204653 0.893744 0.877367 -0.519503
F28   F     F_    0.794200 0.895573 0.120270 -0.519934
N25   N     N_R   0.398672 0.298601 0.195803 0.146853
O97   O     O_R   0.394474 0.293407 0.258936 -0.208479
O98   O     O_R   0.370155 0.322651 0.194641 -0.237074
N26   N     N_R   0.601144 0.298841 0.804424 0.147017
O99   O     O_R   0.604596 0.294171 0.741853 -0.209382
O100  O     O_R   0.630009 0.322719 0.804936 -0.236632
N27   N     N_R   0.890864 0.798720 0.183993 0.149588
O101  O     O_R   0.895536 0.816523 0.233234 -0.252416
O102  O     O_R   0.854044 0.803835 0.190923 -0.197001
N28   N     N_R   0.109604 0.799163 0.816602 0.149081
O103  O     O_R   0.105464 0.816206 0.766247 -0.251491
O104  O     O_R   0.145807 0.805496 0.811319 -0.198433
N29   N     N_R   0.890112 0.706951 0.184982 0.180850
O105  O     O_R   0.895806 0.692046 0.234712 -0.179723
O106  O     O_R   0.850495 0.708427 0.201604 -0.165670
N30   N     N_R   0.110226 0.707413 0.815210 0.180825
O107  O     O_R   0.104467 0.692313 0.765679 -0.179904
O108  O     O_R   0.149923 0.709470 0.798170 -0.165579
N31   N     N_R   0.399589 0.206374 0.198165 0.186752
O109  O     O_R   0.411916 0.187699 0.236825 -0.173146
O110  O     O_R   0.357693 0.211424 0.228865 -0.165966
N32   N     N_R   0.600362 0.206589 0.802552 0.186383
O111  O     O_R   0.587829 0.187239 0.764694 -0.174217
O112  O     O_R   0.642294 0.212118 0.771203 -0.166560
N33   N     N_R   0.918589 0.636670 0.092824 0.160133
O113  O     O_R   0.892852 0.640897 0.071141 -0.209138
O114  O     O_R   0.904839 0.614571 0.154142 -0.172834
N34   N     N_R   0.081565 0.636827 0.907112 0.160104
O115  O     O_R   0.107415 0.641182 0.928548 -0.208997
O116  O     O_R   0.095227 0.614767 0.845884 -0.173034
N35   N     N_R   0.420700 0.136330 0.107594 0.158980
O117  O     O_R   0.388991 0.143222 0.100185 -0.217141
O118  O     O_R   0.413331 0.111676 0.162844 -0.164806
N36   N     N_R   0.579906 0.137004 0.894801 0.159551
O119  O     O_R   0.610903 0.144936 0.903659 -0.217183
O120  O     O_R   0.588580 0.112357 0.838742 -0.167308
F29   F     F_    0.554628 0.632890 0.023105 -0.572280
F30   F     F_    0.445390 0.632794 0.976766 -0.572289
F31   F     F_    0.054393 0.132937 0.023908 -0.572703
F32   F     F_    0.943858 0.132856 0.980941 -0.574125
N37   N     N_R   0.405397 0.704965 0.985390 0.224267
O121  O     O_R   0.373968 0.683696 0.044920 -0.191583
O122  O     O_R   0.401554 0.713077 0.930874 -0.165184
N38   N     N_R   0.594562 0.705157 0.014601 0.224286
O123  O     O_R   0.626011 0.684063 0.955022 -0.191584
O124  O     O_R   0.598398 0.713181 0.069135 -0.165143
N39   N     N_R   0.919086 0.205146 0.952188 0.224916
O125  O     O_R   0.938112 0.184366 0.888143 -0.187313
O126  O     O_R   0.876841 0.212654 0.991835 -0.169587
N40   N     N_R   0.092810 0.205321 0.019870 0.224718
O127  O     O_R   0.125279 0.184475 0.961223 -0.196439
O128  O     O_R   0.094624 0.213151 0.076662 -0.165113
F33   F     F_    0.917396 0.295127 0.962237 -0.482243
F34   F     F_    0.088108 0.295360 0.024881 -0.484106
F35   F     F_    0.409339 0.795035 0.981828 -0.483607
F36   F     F_    0.590530 0.795206 0.018371 -0.483441
F37   F     F_    0.943915 0.366307 0.979759 -0.489196
F38   F     F_    0.056148 0.366469 0.020269 -0.489112
F39   F     F_    0.441681 0.866249 0.985074 -0.490586
F40   F     F_    0.558148 0.866341 0.015226 -0.491453
F41   F     F_    0.928021 0.538867 0.258305 -0.478370
F42   F     F_    0.072116 0.538797 0.741486 -0.478420
F43   F     F_    0.434900 0.049056 0.250609 -0.477998
F44   F     F_    0.567754 0.045614 0.746366 -0.477839
N41   N     N_R   0.985654 0.585878 0.203629 0.153923
O129  O     O_R   0.001866 0.616723 0.222149 -0.200619
O130  O     O_R   0.978110 0.596121 0.154249 -0.292530
N42   N     N_R   0.014648 0.585834 0.795912 0.154025
O131  O     O_R   0.998642 0.616733 0.777112 -0.200292
O132  O     O_R   0.022159 0.596029 0.845338 -0.292035
N43   N     N_R   0.499085 0.086576 0.190160 0.157138
O133  O     O_R   0.519062 0.115002 0.205118 -0.197500
O134  O     O_R   0.494496 0.097217 0.137408 -0.310402
N44   N     N_R   0.505829 0.086610 0.804353 0.157039
O135  O     O_R   0.489210 0.116888 0.785677 -0.194737
O136  O     O_R   0.510266 0.096549 0.857513 -0.308303
N45   N     N_R   0.065107 0.552682 0.249236 0.158820
O137  O     O_R   0.069339 0.589168 0.213975 -0.204191
O138  O     O_R   0.084636 0.550913 0.282865 -0.253491
N46   N     N_R   0.935080 0.552675 0.750492 0.158816
O139  O     O_R   0.931064 0.589175 0.785454 -0.204511
O140  O     O_R   0.915432 0.550909 0.717065 -0.252925
N47   N     N_R   0.571555 0.042192 0.242747 0.156126
O141  O     O_R   0.582387 0.076984 0.200227 -0.202613
O142  O     O_R   0.587957 0.038975 0.281316 -0.277707
N48   N     N_R   0.430939 0.046445 0.754730 0.155971
O143  O     O_R   0.423456 0.082191 0.793618 -0.205837
O144  O     O_R   0.412655 0.043671 0.719112 -0.263705
N49   N     N_R   0.077599 0.542657 0.110874 0.174333
O145  O     O_R   0.064211 0.570510 0.082827 -0.281631
O146  O     O_R   0.119637 0.541865 0.081441 -0.139225
N50   N     N_R   0.922540 0.542643 0.888882 0.174311
O147  O     O_R   0.936018 0.570504 0.916767 -0.281699
O148  O     O_R   0.880504 0.541870 0.918293 -0.139381
N51   N     N_R   0.583786 0.028903 0.105398 0.176661
O149  O     O_R   0.575477 0.061068 0.075880 -0.262174
O150  O     O_R   0.625019 0.020198 0.076087 -0.138000
N52   N     N_R   0.418128 0.034198 0.892642 0.175787
O151  O     O_R   0.428433 0.064747 0.921736 -0.269453
O152  O     O_R   0.376454 0.028592 0.921657 -0.140366
N53   N     N_R   0.014840 0.416470 0.288192 0.222057
O153  O     O_R   0.050197 0.406681 0.221868 -0.046109
O154  O     O_R   0.004223 0.389180 0.342737 -0.204780
N54   N     N_R   0.984866 0.416448 0.712255 0.222054
O155  O     O_R   0.949493 0.406646 0.778638 -0.045103
O156  O     O_R   0.995364 0.389194 0.657827 -0.204460
N55   N     N_R   0.501343 0.914843 0.302487 0.221601
O157  O     O_R   0.535049 0.899799 0.238343 -0.053517
O158  O     O_R   0.486337 0.889500 0.361198 -0.210510
N56   N     N_R   0.492944 0.915137 0.703765 0.220529
O159  O     O_R   0.458398 0.902210 0.768924 -0.051649
O160  O     O_R   0.506217 0.888868 0.646857 -0.209056
N57   N     N_R   0.939297 0.437110 0.368807 0.197887
O161  O     O_R   0.921374 0.454142 0.435540 -0.269842
O162  O     O_R   0.923661 0.399235 0.365694 -0.188776
N58   N     N_R   0.060486 0.437032 0.631551 0.197930
O163  O     O_R   0.078495 0.454067 0.564723 -0.269458
O164  O     O_R   0.075971 0.399140 0.634887 -0.188861
N59   N     N_R   0.430157 0.947404 0.378968 0.195612
O165  O     O_R   0.416152 0.966468 0.442786 -0.288762
O166  O     O_R   0.408380 0.912663 0.382127 -0.189966
N60   N     N_R   0.566161 0.943100 0.625255 0.198036
O167  O     O_R   0.581685 0.961291 0.560084 -0.284504
O168  O     O_R   0.585542 0.907084 0.624801 -0.189147
N61   N     N_R   0.935307 0.447726 0.250422 0.183307
O169  O     O_R   0.899776 0.465386 0.308726 -0.134406
O170  O     O_R   0.930251 0.418080 0.212677 -0.233711
N62   N     N_R   0.064506 0.447657 0.749885 0.183293
O171  O     O_R   0.100102 0.465295 0.691480 -0.134473
O172  O     O_R   0.069453 0.418015 0.787813 -0.234957
N63   N     N_R   0.427616 0.957458 0.259125 0.185798
O173  O     O_R   0.395472 0.981169 0.313142 -0.132279
O174  O     O_R   0.417607 0.927624 0.228283 -0.217079
N64   N     N_R   0.569287 0.953551 0.744447 0.184429
O175  O     O_R   0.602879 0.975197 0.688823 -0.132403
O176  O     O_R   0.577313 0.923573 0.777933 -0.223475

loop_
_geom_bond_atom_site_label_1
_geom_bond_atom_site_label_2
_geom_bond_distance
_ccdc_geom_bond_type
O22   Cu6   1.998819 S    
C79   C83   1.417573 A    
N3    O54   1.299452 A    
C66   F18   1.359699 S    
C67   C71   1.394763 A    
N45   O137  1.299224 A    
C49   F13   1.360848 S    
O30   C111  1.297619 A    
O26   C108  1.295723 A    
C83   C103  1.413081 A    
C22   C38   1.608601 S    
N62   O172  1.302876 A    
Cu7   Cu8   2.695138 S    
N49   O145  1.299333 A    
C47   C117  1.457475 S    
O25   C107  1.295747 A    
C103  N19   1.438044 S    
N8    O63   1.300293 A    
N41   O129  1.297007 A    
C39   N63   1.491030 S    
C119  C157  1.461288 S    
C128  C131  1.416931 A    
C59   C79   1.415075 A    
C30   C108  1.498009 S    
C89   F25   1.358703 S    
C22   N54   1.503618 S    
O28   Cu7   1.998876 S    
Cu5   Cu6   2.695138 S    
C9    C13   1.580251 S    
C80   C84   1.415723 A    
C161  C164  1.421782 A    
N8    O64   1.301049 A    
C16   F44   1.386780 S    
C169  C173  1.403619 A    
C44   C64   1.411509 A    
Cu8   O32   1.970771 S    
C96   N16   1.436307 S    
O46   C119  1.306898 A    
N34   O116  1.301583 A    
N58   O163  1.302020 A    
N53   O154  1.303627 A    
C50   C54   1.399667 A    
C21   N53   1.503657 S    
C120  C158  1.462345 S    
N20   O87   1.301573 A    
O4    C4    1.299186 A    
C162  C164  1.422185 A    
C179  F37   1.360246 S    
N41   O130  1.299246 A    
C127  C133  1.405062 A    
O35   C114  1.302825 A    
C38   N62   1.490687 S    
C149  N35   1.437294 S    
C182  C184  1.399040 A    
O43   C117  1.306475 A    
O24   Cu8   1.998819 S    
N1    O50   1.298814 A    
N19   O85   1.300915 A    
O27   Cu8   1.998877 S    
O42   C116  1.305396 A    
N38   O124  1.301017 A    
C66   C70   1.394357 A    
N23   O94   1.301332 A    
C42   C46   1.404338 A    
O16   Cu4   1.999048 S    
O18   C105  1.304895 A    
N16   O79   1.300716 A    
C133  C139  1.401288 A    
O13   C5    1.303674 A    
O7    Cu4   1.977781 S    
C9    C25   1.624148 S    
C122  C125  1.388454 A    
C8    C28   1.509046 S    
O15   C7    1.304309 A    
C58   C62   1.418693 A    
O48   C120  1.307759 A    
N27   O101  1.300787 A    
C170  F34   1.359475 S    
C48   C52   1.395108 A    
O36   Cu12  1.971423 S    
N26   O99   1.301364 A    
C168  C170  1.397127 A    
O38   Cu10  1.976279 S    
O9    C5    1.294687 A    
C42   N6    1.434854 S    
O41   Cu10  1.974797 S    
O37   Cu9   1.976277 S    
O19   Cu7   1.970706 S    
N10   O67   1.301251 A    
N59   O166  1.303691 A    
N64   O176  1.303048 A    
C167  C169  1.397156 A    
O17   C105  1.304650 A    
C15   C31   1.584395 S    
N37   O121  1.301284 A    
O8    Cu4   1.977147 S    
C166  N38   1.433928 S    
C35   F11   1.386624 S    
C17   C25   1.594290 S    
C36   F12   1.386602 S    
O21   Cu5   1.998819 S    
C19   C27   1.591796 S    
C20   C28   1.592610 S    
N52   O152  1.302670 A    
C68   F20   1.359654 S    
O3    Cu2   1.975914 S    
C99   C103  1.413686 A    
C85   N21   1.435522 S    
C124  C126  1.387690 A    
C180  C183  1.398811 A    
N42   O131  1.297005 A    
C12   N4    1.484063 S    
C92   F28   1.358805 S    
C46   C50   1.394277 A    
C32   C36   1.611941 S    
C162  C168  1.417223 A    
O36   C114  1.302642 A    
O37   C115  1.305529 A    
C17   F5    1.381115 S    
C31   C35   1.611916 S    
O38   C116  1.305488 A    
N51   O150  1.302617 A    
O3    C3    1.302626 A    
N23   O93   1.301029 A    
C44   N8    1.434885 S    
C153  F29   1.359027 S    
C181  C184  1.399025 A    
N55   O158  1.303780 A    
C53   C57   1.414809 A    
C76   C96   1.414497 A    
C83   C87   1.419549 A    
C13   C29   1.586101 S    
C24   C28   1.642908 S    
C9    N1    1.483398 S    
N2    O51   1.302301 A    
C24   N56   1.503222 S    
C29   C33   1.608867 S    
C102  N18   1.439057 S    
N25   O97   1.300996 A    
C33   N49   1.481532 S    
C132  C145  1.407524 A    
O41   C115  1.305374 A    
N43   O133  1.297167 A    
C16   N44   1.481751 S    
N32   O111  1.301131 A    
C154  C159  1.407101 A    
N47   O142  1.300847 A    
C138  N30   1.432404 S    
N57   O161  1.302017 A    
N1    O49   1.302305 A    
C44   C48   1.404828 A    
C39   F3    1.390544 S    
C113  C125  1.442070 S    
O26   Cu5   1.998876 S    
C153  C157  1.397292 A    
C170  C174  1.403696 A    
C34   N50   1.481539 S    
C72   C76   1.420558 A    
C29   C37   1.605193 S    
N30   O107  1.300952 A    
C98   C102  1.413439 A    
C32   C40   1.608930 S    
O5    Cu3   1.977781 S    
C134  C140  1.400988 A    
N59   O165  1.301640 A    
N30   O108  1.300934 A    
N13   O74   1.300844 A    
C138  C142  1.423353 A    
C57   C77   1.414196 A    
C167  N39   1.434074 S    
C105  C151  1.488014 S    
C171  F35   1.359477 S    
C16   C32   1.586122 S    
C23   C39   1.607835 S    
C17   C33   1.584125 S    
C94   N14   1.435769 S    
N7    O62   1.301021 A    
C147  C151  1.420465 A    
N21   O90   1.301312 A    
C37   N61   1.490699 S    
C139  C143  1.422566 A    
N14   O76   1.300852 A    
O7    C3    1.296480 A    
C5    C25   1.510662 S    
C31   C109  1.499101 S    
N12   O72   1.301014 A    
C7    C27   1.509491 S    
N56   O159  1.301064 A    
C10   C14   1.580290 S    
O13   Cu3   1.998742 S    
C140  N32   1.433625 S    
C11   F23   1.380594 S    
N22   O91   1.301119 A    
C123  C126  1.387764 A    
N60   O167  1.301780 A    
C23   N55   1.503070 S    
O43   Cu12  1.974797 S    
C96   C100  1.413332 A    
N19   O86   1.301133 A    
N18   O84   1.300601 A    
O29   C111  1.298248 A    
C43   C47   1.404283 A    
O5    C1    1.298732 A    
N9    O65   1.301252 A    
C41   C45   1.404389 A    
N47   O141  1.299368 A    
O8    C4    1.298027 A    
C18   N46   1.485391 S    
C133  N25   1.436087 S    
N28   O104  1.300757 A    
O15   Cu4   1.998742 S    
C53   C65   1.401021 A    
C93   C97   1.413437 A    
C55   C67   1.400831 A    
N27   O102  1.300593 A    
O44   C118  1.305433 A    
N24   O96   1.301315 A    
C29   C107  1.498054 S    
N44   O135  1.297035 A    
N40   O128  1.301025 A    
C154  F30   1.359014 S    
C73   C77   1.418471 A    
N46   O139  1.299232 A    
C154  C157  1.397313 A    
C85   C89   1.395242 A    
C21   C25   1.645165 S    
O14   C6    1.303881 A    
C87   C91   1.393703 A    
C10   C26   1.624255 S    
C56   C60   1.414419 A    
C144  C146  1.417002 A    
N54   O155  1.301175 A    
O1    Cu1   1.975914 S    
C84   C104  1.411321 A    
C35   N51   1.482517 S    
C10   F22   1.378399 S    
C23   N59   1.493396 S    
C150  C152  1.418994 A    
C11   N3    1.484183 S    
O10   C6    1.294489 A    
C180  F38   1.360306 S    
N4    O55   1.302489 A    
C41   C61   1.412260 A    
C155  C158  1.397343 A    
O20   Cu8   1.971340 S    
C23   C27   1.641705 S    
O17   Cu5   1.970706 S    
C76   C80   1.418539 A    
O18   Cu6   1.971340 S    
N5    O58   1.301026 A    
C155  C162  1.407732 A    
C69   C73   1.420546 A    
C57   C61   1.418632 A    
C18   C26   1.594386 S    
O21   C107  1.299746 A    
C71   C75   1.422243 A    
C31   C39   1.610697 S    
N6    O59   1.300540 A    
N58   O164  1.303684 A    
N53   O153  1.301173 A    
C141  C145  1.417575 A    
C143  C149  1.411358 A    
N20   O88   1.300711 A    
C15   N43   1.481535 S    
Cu10  O46   1.970919 S    
C135  C137  1.398817 A    
O2    C2    1.299052 A    
C176  C182  1.403384 A    
N36   O119  1.300917 A    
N45   O138  1.302051 A    
C40   F4    1.390663 S    
C87   N23   1.434443 S    
N63   O173  1.300842 A    
C60   C64   1.418375 A    
C163  C178  1.412032 A    
N48   O143  1.299572 A    
N35   O117  1.300910 A    
N14   O75   1.300548 A    
N29   O106  1.300894 A    
C174  C177  1.415529 A    
C37   F1    1.390412 S    
C30   C34   1.608865 S    
C91   F27   1.358944 S    
C20   N48   1.484881 S    
C147  N33   1.436591 S    
N43   O134  1.298306 A    
N33   O114  1.301612 A    
C111  C183  1.460219 S    
C90   F26   1.358702 S    
C124  H4    1.083306 S    
C74   C78   1.418520 A    
C75   C79   1.419835 A    
C86   N22   1.435529 S    
C149  C152  1.419467 A    
C1    C97   1.475641 S    
N50   O147  1.299323 A    
C22   C26   1.645062 S    
N16   O80   1.300642 A    
N17   O82   1.300605 A    
C48   C118  1.456774 S    
C19   C35   1.582317 S    
C164  C177  1.412356 A    
C20   C36   1.583230 S    
C142  C145  1.417681 A    
N26   O100  1.301108 A    
C67   F19   1.359692 S    
N7    O61   1.300307 A    
C148  N34   1.436616 S    
C49   C53   1.399637 A    
Cu12  O48   1.970919 S    
C52   C56   1.399883 A    
N10   O68   1.300972 A    
C42   C62   1.412249 A    
N55   O157  1.301019 A    
C11   C27   1.627609 S    
C38   F2    1.390401 S    
C123  H3    1.083475 S    
C12   C28   1.625250 S    
C114  C126  1.438416 S    
N62   O171  1.301038 A    
C121  C128  1.397798 A    
C136  N28   1.433594 S    
C70   C74   1.420548 A    
C40   N64   1.490827 S    
N49   O146  1.302598 A    
C21   N57   1.494174 S    
C143  C146  1.417110 A    
C173  C179  1.403885 A    
C30   C38   1.605232 S    
O1    C1    1.298836 A    
O34   C113  1.303648 A    
C136  C138  1.398775 A    
O28   C110  1.294068 A    
C65   C69   1.394290 A    
C150  N36   1.437897 S    
C81   C101  1.412254 A    
C88   C92   1.394606 A    
C95   C99   1.412638 A    
C43   C63   1.411551 A    
N42   O132  1.299298 A    
C165  C171  1.396935 A    
C88   N24   1.435457 S    
N11   O69   1.301166 A    
C160  C166  1.417081 A    
O24   C110  1.302045 A    
O39   Cu11  1.976277 S    
C129  C135  1.402530 A    
C18   C34   1.584040 S    
C71   N11   1.434456 S    
C141  C147  1.410683 A    
N31   O110  1.301224 A    
C73   C93   1.414125 A    
C121  H1    1.082984 S    
C20   F8    1.382574 S    
C6    C26   1.510663 S    
C15   F43   1.386434 S    
C179  C183  1.398506 A    
C13   F41   1.386855 S    
N61   O170  1.302874 A    
C160  C163  1.421976 A    
C12   C16   1.580719 S    
C84   C88   1.417794 A    
N2    O52   1.298805 A    
O27   C109  1.294170 A    
O44   Cu11  1.974804 S    
C130  C132  1.415696 A    
C171  C175  1.403713 A    
N38   O123  1.301284 A    
O20   C106  1.303797 A    
O6    C2    1.298554 A    
N32   O112  1.301218 A    
N39   O125  1.301232 A    
C173  C177  1.415913 A    
O22   C108  1.299737 A    
C65   F17   1.359699 S    
C45   C115  1.455899 S    
O23   C109  1.301754 A    
C46   C116  1.455863 S    
C175  C181  1.403510 A    
C166  C172  1.396854 A    
C21   C37   1.608478 S    
C78   C82   1.415943 A    
C59   C63   1.418203 A    
C69   N9    1.433701 S    
C24   C40   1.608043 S    
C148  C151  1.420410 A    
C45   C49   1.394237 A    
C156  F32   1.359211 S    
C10   N2    1.483438 S    
O2    Cu1   1.976541 S    
C47   C51   1.395824 A    
O10   Cu1   1.998523 S    
O33   C113  1.303542 A    
C112  C184  1.460816 S    
C155  F31   1.358888 S    
C134  N26   1.435742 S    
N64   O175  1.300852 A    
C54   C58   1.414784 A    
N37   O122  1.301013 A    
C41   N5    1.434814 S    
C82   C102  1.412113 A    
C131  C146  1.407355 A    
Cu7   O31   1.971409 S    
C159  C165  1.417106 A    
C14   N42   1.481371 S    
Cu9   Cu10  2.725489 S    
N52   O151  1.298951 A    
C139  N31   1.433520 S    
C51   F15   1.360838 S    
N21   O89   1.301118 A    
O12   C8    1.293737 A    
C95   N15   1.433600 S    
N31   O109  1.301144 A    
C52   F16   1.360799 S    
C43   N7    1.434879 S    
Cu6   O30   1.970771 S    
C3    C99   1.479541 S    
C156  C158  1.397432 A    
C74   C94   1.414262 A    
Cu11  Cu12  2.725489 S    
Cu5   O29   1.971409 S    
C161  C167  1.417301 A    
N56   O160  1.303781 A    
N13   O73   1.300554 A    
C62   C90   1.407025 A    
N22   O92   1.301313 A    
C165  N37   1.433926 S    
N60   O168  1.303766 A    
N35   O118  1.301384 A    
C174  C180  1.403565 A    
C97   C101  1.413414 A    
C34   F10   1.387078 S    
C4    C100  1.475073 S    
O16   C8    1.303654 A    
C63   C91   1.405296 A    
C75   C95   1.414295 A    
C50   F14   1.360846 S    
O40   C118  1.305965 A    
C58   C78   1.414198 A    
C93   N13   1.435816 S    
C137  C141  1.423325 A    
C135  N27   1.433917 S    
C56   C68   1.401375 A    
C127  C131  1.416816 A    
C24   N60   1.493772 S    
C130  C136  1.402368 A    
C122  C127  1.397871 A    
C169  F33   1.359477 S    
O35   Cu11  1.971105 S    
C101  N17   1.439033 S    
O11   C7    1.293245 A    
C128  C134  1.405002 A    
C181  F39   1.360290 S    
C142  C148  1.410890 A    
C60   C80   1.413844 A    
C182  F40   1.360313 S    
O9    Cu1   1.998837 S    
N17   O81   1.301436 A    
N46   O140  1.302069 A    
N50   O148  1.302596 A    
N57   O162  1.303690 A    
C81   C85   1.417875 A    
C168  N40   1.433892 S    
O4    Cu2   1.976541 S    
C14   C30   1.586137 S    
C68   C72   1.394878 A    
N54   O156  1.303618 A    
O31   C112  1.298187 A    
C121  C125  1.388488 A    
O11   Cu2   1.998837 S    
O45   C119  1.306978 A    
N15   O77   1.298795 A    
C70   N10   1.433691 S    
N61   O169  1.301042 A    
Cu9   O45   1.971237 S    
N15   O78   1.301078 A    
C32   C110  1.499481 S    
C172  C176  1.403699 A    
C129  C132  1.415691 A    
N4    O56   1.299491 A    
C2    C98   1.475712 S    
C140  C144  1.421918 A    
O6    Cu3   1.977147 S    
Cu11  O47   1.971237 S    
O47   C120  1.306602 A    
O33   Cu9   1.971105 S    
C176  C178  1.415598 A    
N5    O57   1.300482 A    
C159  C163  1.421975 A    
O34   Cu10  1.971423 S    
C54   C66   1.401063 A    
N44   O136  1.298422 A    
N11   O70   1.301243 A    
C94   C98   1.413429 A    
C19   N47   1.485188 S    
O25   Cu6   1.998877 S    
N6    O60   1.301032 A    
C33   F9    1.387080 S    
C17   N45   1.485386 S    
O32   C112  1.298002 A    
C55   C59   1.413822 A    
N3    O53   1.302536 A    
C12   F24   1.377703 S    
N34   O115  1.300778 A    
C86   C90   1.395198 A    
C137  N29   1.432355 S    
N12   O71   1.301277 A    
N36   O120  1.301375 A    
C72   N12   1.434151 S    
C124  C129  1.396926 A    
O14   Cu3   1.999048 S    
C61   C89   1.407042 A    
C19   F7    1.381641 S    
C172  F36   1.359485 S    
O12   Cu2   1.998523 S    
N48   O144  1.301614 A    
N63   O174  1.303022 A    
C22   N58   1.494149 S    
O40   Cu12  1.976279 S    
Cu1   Cu3   2.686192 S    
N29   O105  1.300933 A    
Cu2   Cu4   2.686192 S    
N18   O83   1.301449 A    
C18   F6    1.381192 S    
O19   C106  1.303824 A    
O39   C117  1.305304 A    
N51   O149  1.298990 A    
N9    O66   1.300975 A    
N33   O113  1.300766 A    
C51   C55   1.399961 A    
N39   O126  1.301049 A    
C153  C160  1.407010 A    
C13   N41   1.481305 S    
C156  C161  1.407089 A    
C82   C86   1.417848 A    
C175  C178  1.415637 A    
C11   C15   1.580270 S    
C123  C130  1.397078 A    
C14   F42   1.386859 S    
N28   O103  1.300817 A    
C36   N52   1.482190 S    
C104  N20   1.438220 S    
O23   Cu7   1.998819 S    
N25   O98   1.301182 A    
N24   O95   1.301112 A    
C144  C150  1.410633 A    
C122  H2    1.082926 S    
N40   O127  1.301258 A    
O42   Cu9   1.974804 S    
C64   C92   1.406761 A    
C106  C152  1.484640 S    
C77   C81   1.416033 A    
C100  C104  1.413015 A    
C9    F21   1.378352 S    
