data_mof_unit_6245.cif
_audit_creation_date              2012-12-10T18:04:42-0500
_audit_creation_method            fapswitch 2.2
_symmetry_space_group_name_H-M    P1
_symmetry_Int_Tables_number       1
_space_group_crystal_system       triclinic
_cell_length_a                    19.238731
_cell_length_b                    18.164843
_cell_length_c                    12.587359
_cell_angle_alpha                 87.288758
_cell_angle_beta                  95.889838
_cell_angle_gamma                 89.400018
_cell_volume                      4370.24624993

loop_
_atom_site_label
_atom_site_type_symbol
_atom_type_description
_atom_site_fract_x
_atom_site_fract_y
_atom_site_fract_z
_atom_type_partial_charge
Br1   Br    Br    0.681934 0.128592 0.915678 -0.580801
Br2   Br    Br    0.743880 0.897408 0.337214 -0.517113
Br3   Br    Br    0.306316 0.575006 0.409859 -0.520357
Br4   Br    Br    0.245729 0.398599 0.337770 -0.516192
Br5   Br    Br    0.181944 0.628659 0.916088 -0.580167
Br6   Br    Br    0.308111 0.992167 0.662290 -0.558695
Br7   Br    Br    0.808030 0.492908 0.662333 -0.556002
Br8   Br    Br    0.420292 0.857919 0.052961 -0.676738
Br9   Br    Br    0.919897 0.357969 0.053371 -0.679837
Br10  Br    Br    0.638913 0.986167 0.777641 -0.435783
Br11  Br    Br    0.139775 0.487231 0.776176 -0.429958
Br12  Br    Br    0.806117 0.074690 0.412009 -0.520685
C1    C     C_R   0.417778 0.109043 0.448188 0.901921
C2    C     C_R   0.743604 0.738459 0.644213 0.050990
C3    C     C_3   0.740644 0.502387 0.901632 -0.878152
C4    C     C_3   0.332400 0.766423 0.811445 -0.420967
C5    C     C_3   0.375927 0.695430 0.831605 -0.756912
C6    C     C_3   0.332388 0.202151 0.804521 -0.446808
C7    C     C_3   0.394593 0.250360 0.838218 -0.862409
C8    C     C_3   0.831556 0.266531 0.811515 -0.420763
C9    C     C_3   0.874414 0.195048 0.830690 -0.764070
C10   C     C_3   0.833518 0.702889 0.804284 -0.449116
C11   C     C_3   0.895189 0.752021 0.837081 -0.863223
C12   C     C_3   0.664933 0.333470 0.738407 -0.424082
C13   C     C_R   0.247242 0.749512 0.647603 0.056520
C14   C     C_3   0.649816 0.323702 0.856033 -0.827796
C15   C     C_3   0.671932 0.660272 0.763384 -0.453883
C16   C     C_3   0.625965 0.609626 0.692772 -0.831643
C17   C     C_3   0.165998 0.833199 0.738204 -0.424747
C18   C     C_3   0.150549 0.823444 0.855696 -0.827993
C19   C     C_3   0.170517 0.158271 0.757992 -0.461805
C20   C     C_3   0.131130 0.106579 0.680755 -0.824286
C21   C     C_3   0.489197 0.773782 0.325417 -0.378152
C22   C     C_3   0.536997 0.708276 0.366125 -0.915314
C23   C     C_3   0.452761 0.215655 0.265519 -0.364330
C24   C     C_R   0.243371 0.238743 0.643942 0.054975
C25   C     C_3   0.492429 0.287209 0.247823 -0.877075
C26   C     C_3   0.989014 0.273597 0.326152 -0.377246
C27   C     C_3   0.037142 0.208541 0.367667 -0.917350
C28   C     C_3   0.951465 0.715398 0.264096 -0.364099
C29   C     C_3   0.990678 0.787175 0.245871 -0.876583
C30   C     C_3   0.383634 0.663489 0.236655 -0.390431
C31   C     C_3   0.318023 0.673735 0.157868 -0.771015
C32   C     C_3   0.327975 0.311955 0.179327 -0.355776
C33   C     C_3   0.354577 0.390828 0.163312 -0.725129
C34   C     C_3   0.884024 0.162395 0.238738 -0.390383
C35   C     C_R   0.309214 0.779637 0.693969 0.118547
C36   C     C_3   0.818590 0.172264 0.159507 -0.771465
C37   C     C_3   0.825875 0.810696 0.178214 -0.357843
C38   C     C_3   0.851914 0.889725 0.161477 -0.726784
C39   C     C_R   0.309531 0.211007 0.685094 0.158855
C40   C     C_R   0.808066 0.280409 0.694208 0.117850
C41   C     C_R   0.810072 0.711300 0.684955 0.157091
C42   C     C_R   0.359106 0.801452 0.626883 -0.121827
C43   C     C_R   0.356785 0.195116 0.612543 -0.114461
C44   C     C_R   0.857724 0.302646 0.627096 -0.125147
C45   C     C_R   0.422379 0.889334 0.454925 0.891712
C46   C     C_R   0.857057 0.695475 0.612037 -0.113126
C47   C     C_R   0.694144 0.168939 0.518079 -0.230421
C48   C     C_R   0.671584 0.806383 0.506769 -0.224304
C49   C     C_R   0.194631 0.668516 0.517994 -0.229564
C50   C     C_R   0.172598 0.307719 0.506384 -0.224170
C51   C     C_R   0.623661 0.217673 0.647872 0.193223
C52   C     C_R   0.628721 0.783648 0.678805 0.157984
C53   C     C_R   0.124352 0.717561 0.647697 0.194009
C54   C     C_R   0.127105 0.282236 0.675440 0.179575
C55   C     C_R   0.397009 0.812051 0.445579 -0.222917
C56   C     C_R   0.917651 0.608995 0.448055 0.901870
C57   C     C_R   0.383206 0.183111 0.425220 -0.226765
C58   C     C_R   0.896642 0.312161 0.445977 -0.223391
C59   C     C_R   0.882718 0.682883 0.424682 -0.227124
C60   C     C_R   0.633118 0.053688 0.126970 -0.221434
C61   C     C_R   0.133305 0.553273 0.127005 -0.219726
C62   C     C_R   0.380270 0.984584 0.779352 0.317507
C63   C     C_R   0.880253 0.484784 0.779346 0.318220
C64   C     C_R   0.364487 0.959391 0.882556 0.022327
C65   C     C_R   0.864475 0.459377 0.882414 0.020345
C66   C     C_R   0.584696 0.893180 0.553745 0.917515
C67   C     C_R   0.922164 0.389416 0.454893 0.891645
C68   C     C_R   0.587465 0.103936 0.551398 0.934315
C69   C     C_R   0.084673 0.393230 0.553487 0.918019
C70   C     C_R   0.087640 0.603839 0.551461 0.934432
C71   C     C_R   0.419443 0.947125 0.961755 0.174507
C72   C     C_R   0.919458 0.446910 0.961626 0.177909
C73   C     C_R   0.480554 0.986289 0.954282 -0.106320
C74   C     C_R   0.980745 0.485863 0.954165 -0.097229
C75   C     C_R   0.498332 0.006639 0.850111 -0.011215
C76   C     C_R   0.998554 0.506246 0.849990 -0.015592
C77   C     C_R   0.524842 0.002948 0.046881 -0.007029
C78   C     C_R   0.750748 0.211540 0.553104 0.066425
C79   C     C_R   0.025006 0.502576 0.046819 -0.006868
C80   C     C_R   0.587044 0.041730 0.035807 0.045149
C81   C     C_R   0.087256 0.541289 0.035807 0.043747
C82   C     C_R   0.602848 0.065656 0.933960 0.181398
C83   C     C_R   0.103137 0.565221 0.934032 0.186697
C84   C     C_R   0.567044 0.035557 0.844108 0.284217
C85   C     C_R   0.067386 0.535242 0.844033 0.271301
C86   C     C_R   0.506100 0.988958 0.151443 0.017745
C87   C     C_R   0.006155 0.488845 0.151393 0.016984
C88   C     C_R   0.615390 0.030463 0.226967 0.048411
C89   C     C_R   0.734874 0.770967 0.538713 0.077270
C90   C     C_R   0.115466 0.530266 0.227005 0.047992
C91   C     C_R   0.680071 0.261905 0.686123 0.170231
C92   C     C_R   0.684424 0.732238 0.702774 0.136026
C93   C     C_R   0.180946 0.761603 0.685967 0.170351
C94   C     C_R   0.183428 0.231544 0.700988 0.130248
C95   C     C_R   0.636339 0.163134 0.575827 -0.101572
C96   C     C_R   0.628277 0.827301 0.582404 -0.148985
C97   C     C_R   0.136855 0.662837 0.575899 -0.100593
C98   C     C_R   0.128497 0.327601 0.581371 -0.149390
C99   C     C_R   0.416837 0.766426 0.364792 0.123309
C100  C     C_R   0.251324 0.711185 0.552703 0.066254
C101  C     C_R   0.388627 0.224855 0.327627 0.071904
C102  C     C_R   0.916707 0.266152 0.365746 0.122755
C103  C     C_R   0.887519 0.724345 0.326664 0.072729
C104  C     C_R   0.375839 0.703987 0.338425 0.173728
C105  C     C_R   0.337724 0.280979 0.295134 0.155294
C106  C     C_R   0.875930 0.203445 0.339944 0.173723
C107  C     C_R   0.836182 0.780074 0.294169 0.156149
C108  C     C_R   0.326102 0.679304 0.407017 0.179463
C109  C     C_R   0.290350 0.302635 0.367444 0.203409
C110  C     C_R   0.826061 0.179030 0.408471 0.178759
C111  C     C_R   0.235491 0.271840 0.538744 0.074853
C112  C     C_R   0.788917 0.801623 0.366719 0.202597
C113  C     C_R   0.309518 0.722679 0.492102 0.005796
C114  C     C_R   0.288367 0.263313 0.468165 -0.007801
C115  C     C_R   0.809133 0.222859 0.492884 0.006425
C116  C     C_R   0.787488 0.762526 0.467681 -0.007667
C117  C     C_R   0.353265 0.781980 0.519481 -0.016700
C118  C     C_R   0.342097 0.211836 0.501379 -0.016990
C119  C     C_R   0.852629 0.282433 0.519923 -0.016801
C120  C     C_R   0.841727 0.711621 0.500890 -0.015946
C121  C     C_3   0.548345 0.238630 0.661616 -0.456630
C122  C     C_R   0.746382 0.249959 0.647845 0.058210
C123  C     C_3   0.513899 0.278192 0.559621 -0.894904
C124  C     C_3   0.568296 0.784248 0.748751 -0.404549
C125  C     C_3   0.590159 0.811198 0.860754 -0.726257
C126  C     C_3   0.049048 0.738798 0.661150 -0.456780
C127  C     C_3   0.014564 0.777729 0.558654 -0.895773
C128  C     C_3   0.061874 0.277377 0.734868 -0.431908
C129  C     C_3   0.073545 0.303958 0.848562 -0.748230
C130  C     C_3   0.292614 0.938474 0.910461 -0.358608
C131  C     C_3   0.240714 0.002368 0.901907 -0.879532
C132  C     C_3   0.792507 0.438434 0.909895 -0.359325
H1    H     H_    0.682765 0.079967 0.122196 0.195751
H2    H     H_    0.406659 0.172805 0.645469 0.178011
H3    H     H_    0.971794 0.814585 0.167792 0.266774
H4    H     H_    0.985859 0.824975 0.311655 0.275480
H5    H     H_    0.047187 0.775073 0.242723 0.246614
H6    H     H_    0.992245 0.679907 0.308958 0.232003
H7    H     H_    0.936430 0.689648 0.186958 0.198056
H8    H     H_    0.271147 0.655027 0.195229 0.264262
H9    H     H_    0.310646 0.732777 0.131469 0.278400
H10   H     H_    0.323371 0.641150 0.086624 0.270868
H11   H     H_    0.427642 0.683201 0.193669 0.225146
H12   H     H_    0.394511 0.603943 0.255502 0.239482
H13   H     H_    0.903997 0.328014 0.663291 0.162489
H14   H     H_    0.310276 0.430992 0.151145 0.288203
H15   H     H_    0.390723 0.406847 0.232606 0.272890
H16   H     H_    0.382246 0.395460 0.090113 0.219612
H17   H     H_    0.353429 0.275581 0.126016 0.187945
H18   H     H_    0.271568 0.310622 0.149591 0.211666
H19   H     H_    0.771609 0.153805 0.196795 0.264198
H20   H     H_    0.811275 0.231189 0.132412 0.278697
H21   H     H_    0.824113 0.139269 0.088719 0.270191
H22   H     H_    0.928153 0.181826 0.195813 0.224265
H23   H     H_    0.894885 0.102924 0.258293 0.239601
H24   H     H_    0.907205 0.673605 0.644537 0.177520
H25   H     H_    0.807354 0.929573 0.149512 0.287797
H26   H     H_    0.888216 0.906139 0.230353 0.273390
H27   H     H_    0.879243 0.894370 0.087946 0.219704
H28   H     H_    0.851374 0.774353 0.124913 0.188081
H29   H     H_    0.769414 0.808913 0.148941 0.210516
H30   H     H_    0.650016 0.041431 0.297384 0.193826
H31   H     H_    0.150070 0.541242 0.297440 0.193948
H32   H     H_    0.544540 0.327057 0.537704 0.266313
H33   H     H_    0.510828 0.240656 0.492588 0.253866
H34   H     H_    0.460584 0.297463 0.572006 0.276211
H35   H     H_    0.518683 0.189847 0.683507 0.216098
H36   H     H_    0.542867 0.275395 0.727298 0.230500
H37   H     H_    0.183030 0.579401 0.122269 0.195999
H38   H     H_    0.590507 0.764798 0.921484 0.227039
H39   H     H_    0.643131 0.835267 0.866780 0.275875
H40   H     H_    0.552239 0.853398 0.881190 0.275184
H41   H     H_    0.522851 0.816636 0.711528 0.205380
H42   H     H_    0.546417 0.728407 0.757056 0.195645
H43   H     H_    0.045286 0.826374 0.536032 0.266740
H44   H     H_    0.011287 0.739739 0.492143 0.253144
H45   H     H_    0.961299 0.797255 0.570881 0.275859
H46   H     H_    0.019387 0.690173 0.683815 0.216571
H47   H     H_    0.043591 0.776121 0.726156 0.230312
H48   H     H_    0.453809 0.973849 0.166242 0.182020
H49   H     H_    0.031227 0.283198 0.895222 0.257526
H50   H     H_    0.124563 0.284244 0.889812 0.245186
H51   H     H_    0.071298 0.364682 0.847418 0.294478
H52   H     H_    0.017340 0.307910 0.691069 0.199737
H53   H     H_    0.043206 0.220008 0.738734 0.203370
H54   H     H_    0.266210 0.053157 0.931363 0.256360
H55   H     H_    0.217807 0.010201 0.818240 0.297171
H56   H     H_    0.197129 0.989154 0.950692 0.249544
H57   H     H_    0.274283 0.894816 0.859648 0.222309
H58   H     H_    0.293743 0.915377 0.993781 0.251560
H59   H     H_    0.953825 0.473881 0.166153 0.182005
H60   H     H_    0.766257 0.553191 0.930808 0.256440
H61   H     H_    0.717391 0.510178 0.818074 0.296779
H62   H     H_    0.697248 0.489249 0.950833 0.249280
H63   H     H_    0.774173 0.395074 0.858485 0.222297
H64   H     H_    0.793469 0.414963 0.992981 0.251724
H65   H     H_    0.344540 0.647496 0.804656 0.288269
H66   H     H_    0.423361 0.698612 0.788361 0.237251
H67   H     H_    0.392542 0.686956 0.918495 0.264076
H68   H     H_    0.364804 0.812710 0.840497 0.236872
H69   H     H_    0.287439 0.760653 0.858403 0.254173
H70   H     H_    0.692542 0.142048 0.443684 0.204747
H71   H     H_    0.442766 0.228367 0.809532 0.244681
H72   H     H_    0.384858 0.308031 0.806327 0.280815
H73   H     H_    0.402987 0.250234 0.926874 0.246362
H74   H     H_    0.289948 0.218873 0.852227 0.212695
H75   H     H_    0.346425 0.143502 0.826468 0.217334
H76   H     H_    0.842441 0.147546 0.803646 0.290793
H77   H     H_    0.921637 0.197884 0.786941 0.239136
H78   H     H_    0.891342 0.186131 0.917423 0.262617
H79   H     H_    0.864551 0.312321 0.840842 0.236287
H80   H     H_    0.786737 0.261094 0.858832 0.254799
H81   H     H_    0.655364 0.819274 0.423761 0.210394
H82   H     H_    0.943415 0.730741 0.807763 0.245619
H83   H     H_    0.884544 0.809552 0.805169 0.280468
H84   H     H_    0.904044 0.752023 0.925697 0.246466
H85   H     H_    0.791203 0.719054 0.852552 0.212807
H86   H     H_    0.848323 0.644438 0.826358 0.217239
H87   H     H_    0.614266 0.277494 0.869592 0.278743
H88   H     H_    0.697391 0.313008 0.911449 0.259737
H89   H     H_    0.625040 0.375019 0.879830 0.245871
H90   H     H_    0.706552 0.373289 0.727461 0.226661
H91   H     H_    0.619500 0.362249 0.692434 0.216305
H92   H     H_    0.192861 0.641558 0.443658 0.204928
H93   H     H_    0.578156 0.638366 0.654125 0.248615
H94   H     H_    0.655819 0.589173 0.628825 0.286163
H95   H     H_    0.609628 0.561681 0.741718 0.250136
H96   H     H_    0.721337 0.630227 0.785830 0.226445
H97   H     H_    0.648790 0.669563 0.838769 0.219048
H98   H     H_    0.114441 0.777683 0.868880 0.278598
H99   H     H_    0.197913 0.812018 0.911296 0.260135
H100  H     H_    0.126298 0.875013 0.879616 0.246175
H101  H     H_    0.207873 0.872747 0.727549 0.227269
H102  H     H_    0.120795 0.862221 0.691959 0.216001
H103  H     H_    0.156787 0.320971 0.423372 0.211427
H104  H     H_    0.084099 0.133671 0.636789 0.247681
H105  H     H_    0.165847 0.088764 0.621202 0.289775
H106  H     H_    0.114017 0.057096 0.725606 0.250125
H107  H     H_    0.219982 0.130495 0.787507 0.224926
H108  H     H_    0.141939 0.165158 0.829053 0.221500
H109  H     H_    0.543576 0.705001 0.454980 0.263735
H110  H     H_    0.515974 0.655370 0.337557 0.269971
H111  H     H_    0.589156 0.715649 0.337006 0.259951
H112  H     H_    0.485751 0.780154 0.237335 0.255982
H113  H     H_    0.517385 0.822330 0.355015 0.236117
H114  H     H_    0.406178 0.825829 0.662658 0.156223
H115  H     H_    0.474000 0.314738 0.169636 0.266854
H116  H     H_    0.487511 0.325024 0.313553 0.275415
H117  H     H_    0.548936 0.274793 0.245252 0.246704
H118  H     H_    0.493246 0.179886 0.310564 0.231845
H119  H     H_    0.437819 0.190087 0.188211 0.198431
H120  H     H_    0.043673 0.205845 0.456502 0.261875
H121  H     H_    0.016419 0.155335 0.339805 0.270159
H122  H     H_    0.089289 0.216037 0.338550 0.260727
H123  H     H_    0.985480 0.279466 0.238007 0.255610
H124  H     H_    0.017050 0.322416 0.355019 0.236644
N1    N     N_R   0.552340 0.000000 0.237260 -0.125283
N2    N     N_R   0.052340 0.500000 0.237260 -0.125538
N3    N     N_R   0.448170 0.000000 0.762060 -0.149020
N4    N     N_R   0.948170 0.500000 0.762060 -0.147756
O1    O     O_R   0.448200 0.076800 0.373930 -0.632573
O2    O     O_R   0.585240 0.076800 0.457600 -0.644997
O3    O     O_R   0.085240 0.423200 0.457600 -0.602821
O4    O     O_R   0.085240 0.576800 0.457600 -0.645046
O5    O     O_R   0.551780 0.923190 0.626070 -0.585215
O6    O     O_R   0.551780 0.076810 0.626070 -0.602814
O7    O     O_R   0.051780 0.423190 0.626070 -0.585688
O8    O     O_R   0.051780 0.576810 0.626070 -0.602289
O9    O     O_R   0.448200 0.923200 0.373930 -0.616574
O10   O     O_R   0.948200 0.576800 0.373930 -0.632622
O11   O     O_R   0.948200 0.423200 0.373930 -0.616237
O12   O     O_R   0.414750 0.076790 0.542400 -0.574820
O13   O     O_R   0.414750 0.923210 0.542400 -0.579877
O14   O     O_R   0.914750 0.576790 0.542400 -0.574073
O15   O     O_R   0.914750 0.423210 0.542400 -0.581069
O16   O     O_R   0.585240 0.923200 0.457600 -0.601104
Zn1   Zn    Zn3+2 0.522330 0.000000 0.387520 0.958944
Zn2   Zn    Zn3+2 0.022330 0.500000 0.387520 0.958602
Zn3   Zn    Zn3+2 0.477660 0.000000 0.612480 0.989924
Zn4   Zn    Zn3+2 0.977660 0.500000 0.612480 0.989742

loop_
_geom_bond_atom_site_label_1
_geom_bond_atom_site_label_2
_ccdc_geom_bond_type
C52   C124  S    
C1    O12   A    
C124  H41   S    
Br8   C71   S    
C40   C122  A    
C17   H102  S    
C101  C105  A    
C30   H12   S    
C126  H47   S    
C33   H15   S    
C25   H116  S    
C61   C81   A    
C15   H97   S    
C49   C97   A    
C69   C98   S    
C37   H29   S    
C11   H84   S    
C50   H103  S    
C27   H122  S    
C13   C93   A    
C125  H40   S    
C126  H46   S    
C107  C112  A    
C58   C102  A    
O6    Zn3   S    
C29   H4    S    
C68   C95   S    
C57   C101  A    
O8    Zn4   S    
C9    H77   S    
C20   H104  S    
C22   H109  S    
C51   C121  S    
C23   H118  S    
C23   C25   S    
C91   C122  A    
C12   C14   S    
O15   Zn4   S    
C6    C7    S    
C5    H65   S    
C27   H120  S    
C21   H112  S    
C16   H95   S    
C106  C110  A    
C26   C27   S    
C60   C80   A    
C74   C76   A    
C28   C103  S    
C29   H5    S    
C63   N4    A    
C114  C118  A    
C67   O11   A    
C60   H1    S    
C20   H106  S    
C15   C92   S    
C37   C107  S    
C89   C116  A    
C132  H64   S    
C34   C106  S    
C37   H28   S    
C66   C96   S    
C48   H81   S    
C129  H51   S    
C23   H119  S    
C110  C115  A    
C63   C65   A    
C26   H124  S    
C105  C109  A    
C22   H110  S    
C13   C100  A    
C75   N3    A    
C59   C120  A    
C40   C44   A    
C45   O9    A    
O10   Zn2   S    
C3    H60   S    
C36   H21   S    
O12   Zn3   S    
C46   C120  A    
C57   C118  A    
C9    H76   S    
C10   H86   S    
C15   H96   S    
C116  C120  A    
C78   C115  A    
C17   H101  S    
Br6   C62   S    
C99   C104  A    
C7    H73   S    
C31   H10   S    
C46   H24   S    
C30   C31   S    
C13   C35   A    
C7    H71   S    
C76   C85   A    
C48   C96   A    
C1    O1    A    
C112  C116  A    
C132  H63   S    
O4    Zn2   S    
C66   O5    A    
C81   C83   A    
C18   H100  S    
C19   H107  S    
C68   O6    A    
C17   C93   S    
C55   C117  A    
C33   H16   S    
O1    Zn1   S    
Br4   C109  S    
C45   C55   S    
C127  H43   S    
C6    H75   S    
C7    H72   S    
C4    C35   S    
C66   O16   A    
C50   C111  A    
Br5   C83   S    
C76   N4    A    
C6    C39   S    
C52   C96   A    
C10   C41   S    
C56   O10   A    
C88   N1    A    
C73   C75   A    
O11   Zn2   S    
C67   O15   A    
C34   C36   S    
C47   H70   S    
C34   H23   S    
C24   C94   A    
O14   Zn4   S    
C3    H62   S    
C130  H57   S    
C4    H68   S    
C24   C111  A    
C128  C129  S    
C123  H33   S    
Br12  C110  S    
C86   H48   S    
C5    H66   S    
C9    H78   S    
C36   H19   S    
C73   C77   A    
C108  C113  A    
C4    C5    S    
C111  C114  A    
Br7   C63   S    
C125  H38   S    
C65   C72   A    
C14   H88   S    
C90   H31   S    
C20   H105  S    
C47   C95   A    
C104  C108  A    
C28   H7    S    
O5    Zn3   S    
C22   H111  S    
C69   O3    A    
C47   C78   A    
C70   O4    A    
C128  H53   S    
C70   C97   S    
N1    Zn1   S    
C44   H13   S    
C131  H56   S    
C113  C117  A    
C16   H93   S    
C79   C81   A    
C61   H37   S    
C2    C92   A    
C19   C20   S    
C29   H3    S    
C53   C93   A    
Br10  C84   S    
C62   N3    A    
C43   C118  A    
C75   C84   A    
C80   C82   A    
C21   C22   S    
C8    H80   S    
C59   C103  A    
C38   H26   S    
C129  H49   S    
C54   C98   A    
C77   C80   A    
C82   C84   A    
C3    H61   S    
C53   C97   A    
C100  C113  A    
C38   H27   S    
C24   C39   A    
C62   C64   A    
C35   C42   A    
C21   C99   S    
C53   C126  S    
C14   H89   S    
C51   C91   A    
C28   C29   S    
C71   C73   A    
O7    Zn4   S    
C103  C107  A    
C18   H99   S    
C88   H30   S    
C42   H114  S    
C19   C94   S    
C56   O14   A    
C32   H17   S    
C128  H52   S    
C51   C95   A    
C127  H44   S    
C6    H74   S    
C64   C71   A    
C2    C89   A    
C11   H82   S    
C32   C33   S    
C68   O2    A    
C60   C88   A    
C30   C104  S    
Br3   C108  S    
C52   C92   A    
C131  H54   S    
C86   N1    A    
C27   H121  S    
C102  C106  A    
C45   O13   A    
Br2   C112  S    
C34   H22   S    
C87   H59   S    
C58   C67   S    
C69   O7    A    
C90   N2    A    
C42   C117  A    
C10   C11   S    
C121  H35   S    
C33   H14   S    
C25   H115  S    
C123  H34   S    
C72   C74   A    
N3    Zn3   S    
C5    H67   S    
O3    Zn2   S    
N2    Zn2   S    
C70   O8    A    
C11   H83   S    
C41   C46   A    
C83   C85   A    
C121  H36   S    
C36   H20   S    
C124  H42   S    
C14   H87   S    
C131  H55   S    
O13   Zn3   S    
C87   N2    A    
Br11  C85   S    
C77   C86   A    
C74   C79   A    
C12   C91   S    
O16   Zn1   S    
C16   H94   S    
C115  C119  A    
C30   H11   S    
C26   H123  S    
C109  C114  A    
C32   H18   S    
C12   H91   S    
C123  H32   S    
C26   C102  S    
C125  H39   S    
C54   C94   A    
C10   H85   S    
C1    C57   S    
C50   C98   A    
C56   C59   S    
C78   C122  A    
C58   C119  A    
C8    H79   S    
C19   H108  S    
C23   C101  S    
C38   H25   S    
C39   C43   A    
C129  H50   S    
C43   H2    S    
C4    H69   S    
O2    Zn1   S    
C25   H117  S    
C65   C132  S    
C44   C119  A    
C12   H90   S    
C126  C127  S    
N4    Zn4   S    
Br9   C72   S    
C17   C18   S    
C3    C132  S    
C55   C99   A    
C127  H45   S    
C2    C41   A    
C54   C128  S    
C8    C9    S    
C8    C40   S    
C37   C38   S    
C18   H98   S    
C28   H6    S    
C21   H113  S    
C15   C16   S    
C121  C123  S    
C49   H92   S    
C130  C131  S    
C124  C125  S    
Br1   C82   S    
C79   C87   A    
C31   H9    S    
C49   C100  A    
C61   C90   A    
C31   H8    S    
C48   C89   A    
O9    Zn1   S    
C32   C105  S    
C130  H58   S    
C64   C130  S    
