data_mof_unit_66958.cif
_audit_creation_date              2012-12-11T17:40:56-0500
_audit_creation_method            fapswitch 2.2
_symmetry_space_group_name_H-M    P1
_symmetry_Int_Tables_number       1
_space_group_crystal_system       triclinic
_cell_length_a                    8.157731
_cell_length_b                    12.670976
_cell_length_c                    14.23675
_cell_angle_alpha                 92.325904
_cell_angle_beta                  90.630138
_cell_angle_gamma                 98.621837
_cell_volume                      1453.55566036

loop_
_atom_site_label
_atom_site_type_symbol
_atom_type_description
_atom_site_fract_x
_atom_site_fract_y
_atom_site_fract_z
_atom_type_partial_charge
Ba1   Ba    Ba6+2 0.855630 0.555280 0.454520 1.652390
Ba2   Ba    Ba6+2 0.334200 0.444810 0.545490 1.664327
C1    C     C_3   0.614332 0.953211 0.181176 -0.436971
C2    C     C_R   0.183207 0.501971 0.195238 0.040585
C3    C     C_R   0.337782 0.556520 0.224725 -0.295754
C4    C     C_3   0.150574 0.810532 0.195093 0.379324
C5    C     C_R   0.447678 0.611148 0.162336 0.001666
C6    C     C_R   0.398017 0.620537 0.067983 -0.040055
C7    C     C_R   0.244472 0.561534 0.034343 0.001216
C8    C     C_R   0.137031 0.500985 0.097663 -0.035064
C9    C     C_R   0.050681 0.500942 0.901627 -0.032662
C10   C     C_R   0.941860 0.443868 0.965207 0.007696
C11   C     C_R   0.005936 0.498479 0.803838 0.037637
C12   C     C_3   0.658969 0.864567 0.241168 0.340670
C13   C     C_R   0.852605 0.442760 0.773824 -0.244041
C14   C     C_R   0.741028 0.392229 0.837345 -0.016712
C15   C     C_R   0.786149 0.391417 0.932508 -0.173440
C16   C     C_3   0.139042 0.852332 0.096912 -0.379959
C17   C     C_R   0.198449 0.560275 0.937936 -0.052128
C18   C     C_R   0.765957 0.177291 0.534859 -0.268258
C19   C     C_R   0.428161 0.814120 0.462513 -0.278682
C20   C     C_R   0.405919 0.995582 0.427250 -0.107630
C21   C     C_R   0.340488 0.888091 0.423372 -0.007452
C22   C     C_R   0.576140 0.847252 0.512741 0.020412
C23   C     C_3   0.475950 0.314361 0.258312 0.308390
C24   C     C_R   0.643804 0.957565 0.519176 -0.049984
C25   C     C_R   0.556695 0.032198 0.475439 -0.048884
C26   C     C_R   0.620709 0.141954 0.483089 0.049647
C27   C     C_R   0.856989 0.104933 0.573519 -0.021965
C28   C     C_3   0.221342 0.763944 0.655715 0.283352
C29   C     C_R   0.795534 0.995936 0.566952 -0.105672
C30   C     C_3   0.230343 0.883452 0.675739 -0.347775
C31   C     C_3   0.970951 0.235311 0.342741 0.276986
C32   C     C_3   0.971252 0.116974 0.322184 -0.345325
C33   C     C_3   0.637436 0.831148 0.741152 0.270395
C34   C     C_3   0.455141 0.294224 0.152453 -0.398431
C35   C     C_3   0.780354 0.900690 0.794349 -0.390322
C36   C     C_3   0.506777 0.695298 0.005106 -0.216129
C37   C     C_3   0.622165 0.636210 0.944514 -0.165917
C38   C     C_3   0.800878 0.693998 0.946713 -0.393809
C39   C     C_3   0.015134 0.191429 0.802357 0.424958
C40   C     C_3   0.023004 0.157239 0.903393 -0.365876
C41   C     C_3   0.543091 0.147490 0.848314 0.311069
C42   C     C_3   0.459596 0.065309 0.914603 -0.370194
C43   C     C_R   0.986899 0.442422 0.061162 -0.041413
H1    H     H_    0.745188 0.900260 0.298673 0.083863
H2    H     H_    0.543208 0.799444 0.792608 0.051591
H3    H     H_    0.576038 0.881837 0.694777 -0.059613
H4    H     H_    0.567684 0.015222 0.226528 0.111381
H5    H     H_    0.821273 0.974378 0.756722 0.093692
H6    H     H_    0.887795 0.857379 0.803086 0.145984
H7    H     H_    0.739826 0.925009 0.864837 0.068099
H8    H     H_    0.543453 0.826298 0.274055 -0.051887
H9    H     H_    0.516207 0.920287 0.128969 0.101998
H10   H     H_    0.359025 0.336253 0.286624 0.015302
H11   H     H_    0.578395 0.381617 0.272010 0.064058
H12   H     H_    0.306132 0.908771 0.740033 0.104870
H13   H     H_    0.346774 0.231606 0.136374 0.124730
H14   H     H_    0.435132 0.368692 0.118537 0.061164
H15   H     H_    0.568294 0.267329 0.123155 0.115712
H16   H     H_    0.724513 0.990256 0.142767 0.132130
H17   H     H_    0.175738 0.793891 0.044015 0.062320
H18   H     H_    0.082625 0.274246 0.799860 0.067596
H19   H     H_    0.883021 0.190048 0.781761 -0.146018
H20   H     H_    0.153713 0.166320 0.928413 0.141436
H21   H     H_    0.955662 0.207938 0.949791 0.063478
H22   H     H_    0.965592 0.072707 0.908568 0.106543
H23   H     H_    0.286953 0.927971 0.616031 0.092833
H24   H     H_    0.654258 0.190292 0.886035 -0.029256
H25   H     H_    0.581319 0.105955 0.783752 0.015392
H26   H     H_    0.421665 0.106433 0.979395 0.109018
H27   H     H_    0.546317 0.010676 0.935365 0.063990
H28   H     H_    0.069427 0.732024 0.197063 0.087378
H29   H     H_    0.347955 0.017963 0.880284 0.131912
H30   H     H_    0.376072 0.552829 0.297362 0.070739
H31   H     H_    0.697896 0.352922 0.981308 0.058384
H32   H     H_    0.816246 0.443315 0.700565 0.079125
H33   H     H_    0.902798 0.395184 0.106690 0.098725
H34   H     H_    0.104055 0.903439 0.686404 0.126984
H35   H     H_    0.278946 0.604952 0.889968 0.102264
H36   H     H_    0.334649 0.049369 0.394293 0.095882
H37   H     H_    0.868903 0.942884 0.598698 0.092236
H38   H     H_    0.813786 0.261765 0.540163 0.059938
H39   H     H_    0.280984 0.799878 0.209035 -0.081623
H40   H     H_    0.376058 0.730324 0.458280 0.066647
H41   H     H_    0.010028 0.864926 0.081150 0.148141
H42   H     H_    0.222420 0.929576 0.091899 0.110388
H43   H     H_    0.344677 0.745541 0.636547 -0.028907
H44   H     H_    0.133226 0.740663 0.596031 0.087460
H45   H     H_    0.844984 0.249229 0.360596 -0.002562
H46   H     H_    0.865025 0.671923 0.882231 0.116721
H47   H     H_    0.805299 0.781755 0.950527 0.123667
H48   H     H_    0.869249 0.671492 0.008645 0.161978
H49   H     H_    0.622066 0.554237 0.968906 0.131967
H50   H     H_    0.575392 0.628650 0.870607 0.135511
H51   H     H_    0.430426 0.739089 0.960017 0.068028
H52   H     H_    0.577465 0.761593 0.047361 0.136542
H53   H     H_    0.056789 0.260609 0.403103 0.077792
H54   H     H_    0.890936 0.089872 0.260122 0.118584
H55   H     H_    0.924209 0.070864 0.383122 0.083187
H56   H     H_    0.099246 0.102078 0.307237 0.136870
O1    O     O_2   0.887370 0.460630 0.272300 -0.466110
O2    O     O_2   0.202546 0.112895 0.572527 -0.471597
O3    O     O_3   0.089592 0.121598 0.743047 -0.584870
O4    O     O_3   0.129410 0.451380 0.388510 -0.496978
O5    O     O_3   0.575400 0.626570 0.547370 -0.456386
O6    O     O_2   0.344320 0.238700 0.455090 -0.468037
O7    O     O_3   0.512508 0.221226 0.298564 -0.653102
O8    O     O_2   0.412772 0.415980 0.832402 -0.486175
O9    O     O_3   0.428441 0.214667 0.824098 -0.564434
O10   O     O_3   0.670210 0.653170 0.329170 -0.471762
O11   O     O_2   0.787763 0.595129 0.166957 -0.496391
O12   O     O_3   0.694852 0.743180 0.695635 -0.603864
O13   O     O_3   0.018351 0.289463 0.261651 -0.640844
O14   O     O_3   0.739405 0.794338 0.185124 -0.594535
O15   O     O_2   0.845380 0.761330 0.544970 -0.463010
O16   O     O_3   0.088930 0.704860 0.376040 -0.487500
O17   O     O_2   0.001357 0.888340 0.434385 -0.491780
O18   O     O_3   0.098306 0.883963 0.260525 -0.595028
O19   O     O_2   0.302330 0.539400 0.727760 -0.453824
O20   O     O_3   0.060300 0.548700 0.611500 -0.490903
O21   O     O_3   0.519500 0.346920 0.670840 -0.445940
O22   O     O_3   0.171051 0.711033 0.737129 -0.644127
O23   O     O_3   0.614310 0.373510 0.452640 -0.479241
O24   O     O_3   0.100780 0.295230 0.623970 -0.485297
P1    P     P_3+3 0.054400 0.427280 0.286870 0.969592
P2    P     P_3+3 0.668300 0.742890 0.573060 1.007683
P3    P     P_3+3 0.132670 0.842986 0.374081 0.948365
P4    P     P_3+3 0.135310 0.572810 0.713130 0.991897
P5    P     P_3+3 0.061953 0.156289 0.626758 0.970609
P6    P     P_3+3 0.660018 0.661960 0.208165 0.950081
P7    P     P_3+3 0.526671 0.242312 0.420862 0.932905
P8    P     P_3+3 0.529491 0.340247 0.793407 0.976017

loop_
_geom_bond_atom_site_label_1
_geom_bond_atom_site_label_2
_ccdc_geom_bond_type
C39   C40   S    
C23   H11   S    
C38   H48   S    
C34   H14   S    
C33   H2    S    
C1    H4    S    
C5    C6    A    
C12   H1    S    
O14   P6    S    
C9    C17   A    
C31   O13   S    
C16   H41   S    
C29   H37   S    
C6    C36   S    
O4    P1    S    
C33   C35   S    
C22   C24   A    
C31   H53   S    
C34   H13   S    
C36   H52   S    
C36   C37   S    
O13   P1    S    
C1    H9    S    
C14   C15   A    
C14   P8    S    
C13   C14   A    
Ba2   O6    S    
Ba2   P4    S    
O23   P7    S    
C42   H26   S    
Ba1   Ba2   S    
O24   P5    S    
C7    C17   A    
C6    C7    A    
O15   P2    D    
C10   C15   A    
C40   H20   S    
C32   H55   S    
C33   O12   S    
C43   H33   S    
Ba1   O15   S    
C7    C8    A    
C5    P6    S    
Ba1   O5    S    
C30   H23   S    
O18   P3    S    
Ba2   O21   S    
C24   C29   A    
O11   P6    D    
O3    P5    S    
O22   P4    S    
O17   P3    D    
C30   H12   S    
C28   H44   S    
C33   H3    S    
O16   P3    S    
C31   C32   S    
C18   C27   A    
C1    H16   S    
C4    C16   S    
C19   H40   S    
C32   H56   S    
C4    H39   S    
O8    P8    D    
O19   P4    D    
C20   H36   S    
Ba1   P2    S    
Ba1   P1    S    
C37   C38   S    
C3    C5    A    
C35   H7    S    
Ba2   O19   S    
C10   C43   A    
C18   C26   A    
O1    P1    D    
O5    P2    S    
Ba2   O5    S    
C26   P7    S    
C3    H30   S    
C41   C42   S    
O21   P8    S    
C15   H31   S    
C27   P5    S    
C8    C43   A    
C32   H54   S    
C24   C25   A    
Ba1   O16   S    
C38   H47   S    
C42   H29   S    
C37   H50   S    
C1    C12   S    
O10   P6    S    
C41   O9    S    
C37   H49   S    
C20   C25   A    
C19   C21   A    
C40   H22   S    
C19   C22   A    
C39   H18   S    
C28   H43   S    
C4    O18   S    
C4    H28   S    
Ba2   O20   S    
C16   H17   S    
C23   H10   S    
O20   P4    S    
O6    P7    D    
C34   H15   S    
C9    C10   A    
O12   P2    S    
Ba2   O23   S    
C41   H25   S    
Ba2   O4    S    
C16   H42   S    
C39   O3    S    
C2    P1    S    
C11   C13   A    
Ba1   O23   S    
C27   C29   A    
C31   H45   S    
Ba1   O10   S    
C30   H34   S    
C28   C30   S    
C35   H5    S    
C9    C11   A    
C13   H32   S    
C35   H6    S    
C22   P2    S    
C42   H27   S    
C38   H46   S    
C17   H35   S    
O2    P5    D    
Ba1   O20   S    
O7    P7    S    
C23   C34   S    
Ba2   O24   S    
C2    C3    A    
C12   H8    S    
C28   O22   S    
C41   H24   S    
C18   H38   S    
C36   H51   S    
C25   C26   A    
C40   H21   S    
C11   P4    S    
C20   C21   A    
O9    P8    S    
C39   H19   S    
C2    C8    A    
Ba1   O1    S    
C12   O14   S    
C23   O7    S    
Ba1   O4    S    
C21   P3    S    
