data_mof_unit_68564.cif
_audit_creation_date              2012-12-11T17:48:44-0500
_audit_creation_method            fapswitch 2.2
_symmetry_space_group_name_H-M    P1
_symmetry_Int_Tables_number       1
_space_group_crystal_system       triclinic
_cell_length_a                    8.225245
_cell_length_b                    12.667886
_cell_length_c                    14.890291
_cell_angle_alpha                 96.708601
_cell_angle_beta                  97.686439
_cell_angle_gamma                 98.441432
_cell_volume                      1506.11061566

loop_
_atom_site_label
_atom_site_type_symbol
_atom_type_description
_atom_site_fract_x
_atom_site_fract_y
_atom_site_fract_z
_atom_type_partial_charge
Ba1   Ba    Ba6+2 0.843750 0.550210 0.455600 1.656105
Ba2   Ba    Ba6+2 0.346090 0.449880 0.544410 1.674927
C1    C     C_3   0.610598 0.926437 0.255444 -0.262099
C2    C     C_R   0.894182 0.439374 0.922558 -0.034507
C3    C     C_R   0.037365 0.452727 0.109530 -0.022458
C4    C     C_3   0.039208 0.774662 0.205207 0.319058
C5    C     C_R   0.876728 0.395713 0.076501 -0.020757
C6    C     C_R   0.804964 0.391806 0.985790 -0.120063
C7    C     C_R   0.107374 0.464808 0.203680 0.042259
C8    C     C_R   0.268466 0.521014 0.231874 -0.296238
C9    C     C_R   0.082385 0.531624 0.795705 0.032715
C10   C     C_R   0.152610 0.541440 0.889628 -0.058938
C11   C     C_R   0.059496 0.492928 0.952564 0.019328
C12   C     C_3   0.521033 0.818261 0.206238 0.732797
C13   C     C_R   0.313901 0.596948 0.922639 0.012148
C14   C     C_R   0.387072 0.597763 0.012474 -0.018721
C15   C     C_R   0.296396 0.552831 0.076160 -0.043924
C16   C     C_3   0.992282 0.805165 0.110291 -0.236641
C17   C     C_R   0.130792 0.499942 0.046262 0.008565
C18   C     C_R   0.365177 0.561445 0.169347 -0.007087
C19   C     C_R   0.921109 0.474814 0.767447 -0.290444
C20   C     C_R   0.769323 0.182668 0.544762 -0.268151
C21   C     C_R   0.425832 0.808813 0.461305 -0.281029
C22   C     C_R   0.390924 0.987890 0.434927 -0.092463
C23   C     C_3   0.362710 0.235998 0.258858 0.689860
C24   C     C_R   0.327016 0.879098 0.426634 -0.010328
C25   C     C_R   0.582484 0.847976 0.513068 0.072106
C26   C     C_R   0.647147 0.960226 0.526090 -0.054667
C27   C     C_R   0.550000 0.030427 0.484413 -0.066690
C28   C     C_3   0.261323 0.778318 0.649205 0.310989
C29   C     C_R   0.613534 0.141551 0.493659 0.045401
C30   C     C_R   0.869236 0.114559 0.582845 -0.037726
C31   C     C_R   0.806859 0.004390 0.576303 -0.098865
C32   C     C_3   0.309562 0.899903 0.670334 -0.367424
C33   C     C_3   0.919347 0.220648 0.350869 0.279745
C34   C     C_3   0.448954 0.306123 0.197351 -0.307643
C35   C     C_3   0.956564 0.106752 0.346117 -0.284442
C36   C     C_3   0.778128 0.699522 0.731698 0.357549
C37   C     C_3   0.841427 0.738351 0.833053 0.198015
C38   C     C_3   0.083896 0.166818 0.795160 0.262744
C39   C     C_3   0.181132 0.165097 0.890111 -0.066032
C40   C     C_3   0.620703 0.172119 0.771052 0.336166
C41   C     C_3   0.633665 0.082570 0.829960 -0.333383
C42   C     C_R   0.824284 0.433157 0.829784 -0.014627
Cl1   Cl    Cl    0.687975 0.795737 0.887349 -0.677351
Cl2   Cl    Cl    0.408398 0.841151 0.101443 -0.694387
Cl3   Cl    Cl    0.219109 0.130365 0.187779 -0.665366
H1    H     H_    0.434047 0.785152 0.250885 -0.141698
H2    H     H_    0.879849 0.669637 0.699962 -0.084874
H3    H     H_    0.671258 0.633072 0.724968 0.055130
H4    H     H_    0.688814 0.915108 0.319193 0.070795
H5    H     H_    0.955179 0.799957 0.840630 0.077153
H6    H     H_    0.872595 0.670099 0.868447 -0.019283
H7    H     H_    0.519444 0.978951 0.272723 0.123272
H8    H     H_    0.292511 0.285324 0.301125 -0.020841
H9    H     H_    0.534237 0.262134 0.161447 0.136357
H10   H     H_    0.356046 0.329273 0.145267 0.074928
H11   H     H_    0.520904 0.380077 0.239584 0.081498
H12   H     H_    0.440476 0.919957 0.704247 0.118598
H13   H     H_    0.688480 0.965440 0.209489 0.145102
H14   H     H_    0.079979 0.876301 0.099745 0.208891
H15   H     H_    0.047843 0.248026 0.793123 -0.004003
H16   H     H_    0.971689 0.103536 0.783179 -0.017750
H17   H     H_    0.282844 0.235689 0.906756 0.145071
H18   H     H_    0.238163 0.090768 0.890087 0.141679
H19   H     H_    0.748684 0.206505 0.761880 -0.114414
H20   H     H_    0.547847 0.137823 0.702906 0.065643
H21   H     H_    0.695168 0.019653 0.796510 0.112843
H22   H     H_    0.507923 0.045607 0.840459 0.156386
H23   H     H_    0.297601 0.936852 0.606578 0.085912
H24   H     H_    0.945368 0.706779 0.215036 0.103885
H25   H     H_    0.707295 0.116132 0.897873 0.121390
H26   H     H_    0.803026 0.353715 0.120023 0.104557
H27   H     H_    0.679226 0.349310 0.966088 0.106341
H28   H     H_    0.514542 0.637539 0.031652 0.149971
H29   H     H_    0.387757 0.639361 0.879566 0.165849
H30   H     H_    0.322420 0.529151 0.303214 0.075367
H31   H     H_    0.866813 0.467729 0.696265 0.068486
H32   H     H_    0.312916 0.038115 0.403352 0.116830
H33   H     H_    0.887294 0.954638 0.607730 0.102807
H34   H     H_    0.227369 0.933634 0.715599 0.147419
H35   H     H_    0.818629 0.267379 0.548513 0.056494
H36   H     H_    0.161314 0.747338 0.208812 -0.006741
H37   H     H_    0.375378 0.723838 0.453543 0.065966
H38   H     H_    0.995895 0.736473 0.057290 0.083109
H39   H     H_    0.865558 0.826219 0.102203 0.183582
H40   H     H_    0.362126 0.744058 0.620135 0.002031
H41   H     H_    0.146113 0.759406 0.598638 0.070168
H42   H     H_    0.988180 0.097237 0.949641 0.215664
H43   H     H_    0.009284 0.232801 0.955593 0.166029
H44   H     H_    0.785997 0.218340 0.351351 0.017365
H45   H     H_    0.989856 0.266210 0.416030 0.051836
H46   H     H_    0.920470 0.063993 0.275681 0.175916
H47   H     H_    0.890827 0.062659 0.394151 0.061480
H48   H     H_    0.091020 0.108950 0.364631 0.150240
N1    N     N_3   0.074618 0.168507 0.960989 -0.459232
O1    O     O_2   0.827880 0.435260 0.277750 -0.473259
O2    O     O_2   0.194752 0.118586 0.556024 -0.478328
O3    O     O_3   0.185322 0.144281 0.729234 -0.580478
O4    O     O_3   0.100280 0.438960 0.391170 -0.497576
O5    O     O_3   0.587780 0.631850 0.546230 -0.490901
O6    O     O_2   0.332590 0.233690 0.456160 -0.477126
O7    O     O_3   0.481774 0.188241 0.309421 -0.656136
O8    O     O_2   0.486493 0.445544 0.824914 -0.481120
O9    O     O_3   0.537791 0.248038 0.814384 -0.583033
O10   O     O_3   0.625580 0.634130 0.333250 -0.471793
O11   O     O_2   0.704840 0.557168 0.174302 -0.505655
O12   O     O_3   0.729715 0.785963 0.690371 -0.625512
O13   O     O_3   0.958887 0.262714 0.272092 -0.601107
O14   O     O_3   0.640017 0.752980 0.186600 -0.608686
O15   O     O_2   0.857130 0.766340 0.543890 -0.476415
O16   O     O_3   0.056550 0.691050 0.379010 -0.498305
O17   O     O_2   0.995988 0.883288 0.441365 -0.480507
O18   O     O_3   0.044191 0.864016 0.271555 -0.582348
O19   O     O_2   0.361830 0.564780 0.722310 -0.455668
O20   O     O_3   0.089430 0.561130 0.608830 -0.503921
O21   O     O_3   0.564130 0.365960 0.666760 -0.466219
O22   O     O_3   0.236571 0.737219 0.730317 -0.616106
O23   O     O_3   0.601940 0.368240 0.453770 -0.479662
O24   O     O_3   0.133170 0.309040 0.621000 -0.461445
P1    P     P_3+3 0.998730 0.403530 0.291970 0.988571
P2    P     P_3+3 0.687380 0.751030 0.571310 0.981039
P3    P     P_3+3 0.106988 0.829750 0.380088 0.957913
P4    P     P_3+3 0.190990 0.596560 0.708040 0.992420
P5    P     P_3+3 0.091640 0.169792 0.623225 0.969103
P6    P     P_3+3 0.582150 0.623844 0.214596 0.947723
P7    P     P_3+3 0.508848 0.232626 0.427607 0.925763
P8    P     P_3+3 0.604714 0.375072 0.785168 0.977544

loop_
_geom_bond_atom_site_label_1
_geom_bond_atom_site_label_2
_ccdc_geom_bond_type
C41   H25   S    
C14   H28   S    
C9    P4    S    
C29   P7    S    
C2    C6    A    
C38   O3    S    
C5    C6    A    
C5    H26   S    
C36   H2    S    
C37   H6    S    
C18   P6    S    
C16   H39   S    
C38   H16   S    
C20   C30   A    
C20   H35   S    
C26   C27   A    
C33   C35   S    
C22   C24   A    
O4    P1    S    
C34   H11   S    
Ba1   O16   S    
C36   C37   S    
C1    H7    S    
C39   N1    S    
Ba2   O6    S    
C13   C14   A    
C15   C18   A    
C38   H15   S    
C35   H48   S    
Ba1   Ba2   S    
Ba1   O23   S    
C21   C24   A    
C2    C11   A    
Ba1   P2    S    
C4    O18   S    
O1    P1    D    
C22   C27   A    
Ba2   O20   S    
C25   P2    S    
O2    P5    D    
C8    C18   A    
C14   C15   A    
O17   P3    D    
C19   H31   S    
C7    P1    S    
O19   P4    D    
C32   H34   S    
C21   C25   A    
O7    P7    S    
C7    C8    A    
C32   H23   S    
C33   O13   S    
Ba1   O10   S    
C37   Cl1   S    
C33   H45   S    
C13   H29   S    
Ba2   O4    S    
C41   H22   S    
O15   P2    D    
Ba1   O4    S    
C40   O9    S    
C8    H30   S    
C4    H24   S    
C4    C16   S    
C16   H38   S    
C21   H37   S    
C28   C32   S    
O16   P3    S    
O3    P5    S    
O6    P7    D    
C20   C29   A    
Ba1   O1    S    
C3    C5    A    
C1    H4    S    
O24   P5    S    
C41   H21   S    
C11   C17   A    
C12   H1    S    
C2    C42   A    
Ba2   O5    S    
C9    C19   A    
C12   Cl2   S    
C30   P5    S    
C3    C7    A    
C34   H9    S    
C19   C42   A    
Ba2   O19   S    
C22   H32   S    
O8    P8    D    
C10   C13   A    
C9    C10   A    
C6    H27   S    
C35   H46   S    
C31   H33   S    
O22   P4    S    
C1    C12   S    
O14   P6    S    
C36   H3    S    
O18   P3    S    
C38   C39   S    
Ba1   O20   S    
C26   C31   A    
C34   H10   S    
C40   H20   S    
C40   C41   S    
C28   H41   S    
Ba1   O5    S    
C12   O14   S    
C23   Cl3   S    
C42   P8    S    
Ba2   O24   S    
C4    H36   S    
O20   P4    S    
O9    P8    S    
C23   O7    S    
C23   H8    S    
O11   P6    D    
O12   P2    S    
C39   H18   S    
Ba2   O23   S    
C16   H14   S    
H43   N1    S    
C3    C17   A    
Ba2   P4    S    
Ba2   O21   S    
O10   P6    S    
O5    P2    S    
C30   C31   A    
H42   N1    S    
C27   C29   A    
Ba1   O15   S    
O13   P1    S    
C32   H12   S    
C15   C17   A    
C35   H47   S    
C37   H5    S    
C36   O12   S    
O21   P8    S    
Ba1   P1    S    
C23   C34   S    
C10   C11   A    
C24   P3    S    
C28   O22   S    
C25   C26   A    
C40   H19   S    
C39   H17   S    
C28   H40   S    
C1    H13   S    
O23   P7    S    
C33   H44   S    
