data_mof_unit_67213.cif
_audit_creation_date              2012-12-11T18:15:34-0500
_audit_creation_method            fapswitch 2.2
_symmetry_space_group_name_H-M    P1
_symmetry_Int_Tables_number       1
_space_group_crystal_system       triclinic
_cell_length_a                    20.130078
_cell_length_b                    19.929869
_cell_length_c                    8.391259
_cell_angle_alpha                 90.0
_cell_angle_beta                  91.793812
_cell_angle_gamma                 90.004304
_cell_volume                      3364.83789968

loop_
_atom_site_label
_atom_site_type_symbol
_atom_type_description
_atom_site_fract_x
_atom_site_fract_y
_atom_site_fract_z
_atom_type_partial_charge
Ba1   Ba    Ba6+2 0.999980 0.452130 0.155200 1.727107
Ba2   Ba    Ba6+2 0.999980 0.547870 0.655200 1.730346
Ba3   Ba    Ba6+2 0.499980 0.952130 0.155200 1.727070
Ba4   Ba    Ba6+2 0.499980 0.047870 0.655200 1.730290
C1    C     C_3   0.940695 0.141643 0.351448 -0.357289
C2    C     C_R   0.111817 0.663270 0.181968 -0.259837
C3    C     C_R   0.611390 0.836467 0.681571 -0.275794
C4    C     C_R   0.611817 0.163269 0.181964 -0.259951
C5    C     C_R   0.124861 0.283805 0.577776 -0.034623
C6    C     C_R   0.125740 0.715523 0.077752 -0.036209
C7    C     C_R   0.624852 0.783800 0.577783 -0.034698
C8    C     C_R   0.625738 0.215524 0.077752 -0.036216
C9    C     C_R   0.174148 0.237025 0.619361 -0.058803
C10   C     C_R   0.175262 0.762103 0.118742 -0.111126
C11   C     C_R   0.674136 0.737017 0.619373 -0.058948
C12   C     C_3   0.948304 0.862998 0.851258 -0.286151
C13   C     C_R   0.675257 0.262106 0.118746 -0.111225
C14   C     C_R   0.211503 0.243577 0.763382 0.044484
C15   C     C_R   0.212217 0.755903 0.263243 0.053539
C16   C     C_R   0.711495 0.743572 0.763389 0.044442
C17   C     C_R   0.712207 0.255910 0.263255 0.053472
C18   C     C_R   0.201222 0.299751 0.863687 -0.009222
C19   C     C_R   0.201716 0.699915 0.363911 -0.004176
C20   C     C_R   0.701216 0.799747 0.863689 -0.009303
C21   C     C_R   0.701702 0.199925 0.363930 -0.004261
C22   C     C_R   0.800550 0.701588 0.945027 -0.048118
C23   C     C_3   0.440660 0.641665 0.351253 -0.357229
C24   C     C_R   0.800727 0.298340 0.445520 -0.048548
C25   C     C_R   0.300553 0.201589 0.945030 -0.048125
C26   C     C_R   0.300733 0.798335 0.445516 -0.048546
C27   C     C_R   0.789860 0.757488 0.045733 0.023346
C28   C     C_R   0.789947 0.242540 0.546501 0.022224
C29   C     C_R   0.289862 0.257489 0.045739 0.023332
C30   C     C_R   0.289963 0.742527 0.546481 0.022215
C31   C     C_R   0.851645 0.654452 0.987927 0.003687
C32   C     C_R   0.851654 0.345630 0.488483 0.002553
C33   C     C_R   0.351647 0.154453 0.987930 0.003720
C34   C     C_3   0.448304 0.362994 0.851147 -0.285958
C35   C     C_R   0.351654 0.845630 0.488486 0.002557
C36   C     C_R   0.890615 0.665200 0.127074 -0.216863
C37   C     C_R   0.890495 0.335051 0.627965 -0.220937
C38   C     C_R   0.390619 0.165201 0.127074 -0.216880
C39   C     C_R   0.390494 0.835055 0.627971 -0.220994
C40   C     C_3   0.996734 0.176597 0.851187 0.738642
C41   C     C_3   0.994771 0.824217 0.353864 0.788290
C42   C     C_3   0.496879 0.676686 0.851181 0.738556
C43   C     C_3   0.494842 0.324184 0.353835 0.787705
C44   C     C_R   0.876870 0.717949 0.231202 0.042951
C45   C     C_R   0.150148 0.346844 0.821028 0.061513
C46   C     C_R   0.876887 0.282189 0.731977 0.036677
C47   C     C_R   0.376877 0.217953 0.231201 0.042862
C48   C     C_R   0.376896 0.782184 0.731967 0.036718
C49   C     C_R   0.826102 0.763315 0.191138 -0.109163
C50   C     C_R   0.826046 0.236874 0.692088 -0.101751
C51   C     C_R   0.326104 0.263315 0.191145 -0.109077
C52   C     C_R   0.326071 0.736854 0.692056 -0.101660
C53   C     C_R   0.759591 0.694885 0.806094 0.030650
C54   C     C_R   0.760088 0.304743 0.306073 0.033500
C55   C     C_R   0.259597 0.194889 0.806092 0.030580
C56   C     C_R   0.150488 0.652967 0.321360 0.061874
C57   C     C_R   0.260094 0.804739 0.306069 0.033479
C58   C     C_3   0.954242 0.121439 0.772274 -0.320706
C59   C     C_3   0.952296 0.880648 0.279831 -0.357848
C60   C     C_3   0.454434 0.621622 0.771755 -0.320706
C61   C     C_3   0.452359 0.380540 0.279571 -0.357853
C62   C     C_3   0.790235 0.470572 0.778567 0.554964
C63   C     C_3   0.790407 0.529336 0.277859 0.560074
C64   C     C_3   0.290235 0.970574 0.778575 0.554962
C65   C     C_3   0.290411 0.029338 0.277868 0.560121
C66   C     C_3   0.724133 0.469897 0.683487 0.357984
C67   C     C_R   0.650145 0.846844 0.821028 0.061455
C68   C     C_3   0.723832 0.531296 0.184781 0.359996
C69   C     C_3   0.224129 0.969907 0.683512 0.357957
C70   C     C_3   0.223834 0.031302 0.184813 0.359918
C71   C     C_3   0.189526 0.542350 0.993186 0.311922
C72   C     C_3   0.189136 0.457438 0.492757 0.311519
C73   C     C_3   0.689529 0.042348 0.993201 0.311917
C74   C     C_3   0.689145 0.957443 0.492787 0.311528
C75   C     C_3   0.252370 0.584828 0.004582 -0.395613
C76   C     C_3   0.251816 0.414718 0.504110 -0.394969
C77   C     C_3   0.752372 0.084828 0.004574 -0.395608
C78   C     C_R   0.650482 0.152971 0.321366 0.061825
C79   C     C_3   0.751818 0.914720 0.504074 -0.394973
C80   C     C_3   0.975201 0.208834 0.378800 0.413691
C81   C     C_3   0.979031 0.793878 0.876116 0.397877
C82   C     C_3   0.475195 0.708825 0.378840 0.413835
C83   C     C_3   0.479039 0.293891 0.876156 0.398137
C84   C     C_R   0.241837 0.306237 0.003112 -0.025942
C85   C     C_R   0.242127 0.693602 0.503666 -0.028104
C86   C     C_R   0.741834 0.806236 0.003109 -0.025933
C87   C     C_R   0.742109 0.193617 0.503693 -0.028089
C88   C     C_R   0.111393 0.336467 0.681573 -0.275747
Cl1   Cl    Cl    0.654133 0.465145 0.809041 -0.456247
Cl2   Cl    Cl    0.654800 0.538654 0.312736 -0.492609
Cl3   Cl    Cl    0.154138 0.965187 0.809100 -0.456241
Cl4   Cl    Cl    0.154815 0.038652 0.312806 -0.492810
Cl5   Cl    Cl    0.793939 0.397180 0.897109 -0.724545
Cl6   Cl    Cl    0.795863 0.602391 0.396821 -0.723679
Cl7   Cl    Cl    0.293940 0.897175 0.897103 -0.724542
Cl8   Cl    Cl    0.295879 0.102393 0.396822 -0.723680
H1    H     H_    0.948186 0.246958 0.305346 0.077110
H2    H     H_    0.722516 0.574798 0.102062 0.084232
H3    H     H_    0.222131 0.926123 0.601652 0.087803
H4    H     H_    0.222512 0.074804 0.102099 0.084188
H5    H     H_    0.168013 0.538812 0.112562 0.002201
H6    H     H_    0.167477 0.460826 0.611993 0.003399
H7    H     H_    0.668028 0.038803 0.112589 0.002256
H8    H     H_    0.667515 0.960840 0.612045 0.003443
H9    H     H_    0.153657 0.566797 0.908350 0.059994
H10   H     H_    0.153289 0.433243 0.407441 0.060607
H11   H     H_    0.653651 0.066796 0.908387 0.059978
H12   H     H_    0.950605 0.757554 0.800341 0.074797
H13   H     H_    0.653280 0.933245 0.407531 0.060573
H14   H     H_    0.287783 0.563263 0.094918 0.123680
H15   H     H_    0.287134 0.435888 0.595214 0.124340
H16   H     H_    0.787806 0.063246 0.094842 0.123693
H17   H     H_    0.787173 0.935916 0.595045 0.124356
H18   H     H_    0.240459 0.636887 0.039590 0.055541
H19   H     H_    0.239629 0.362586 0.538016 0.051661
H20   H     H_    0.740466 0.136878 0.039663 0.055561
H21   H     H_    0.739642 0.862602 0.538119 0.051691
H22   H     H_    0.276321 0.586115 0.887169 0.117856
H23   H     H_    0.448179 0.746997 0.305549 0.076963
H24   H     H_    0.275999 0.413714 0.386957 0.117617
H25   H     H_    0.776298 0.086143 0.887129 0.117836
H26   H     H_    0.775950 0.913673 0.386872 0.117589
H27   H     H_    0.971777 0.222227 0.506439 -0.119555
H28   H     H_    0.974417 0.779779 0.003098 -0.119417
H29   H     H_    0.471800 0.722139 0.506529 -0.119805
H30   H     H_    0.474448 0.279847 0.003170 -0.119868
H31   H     H_    0.890432 0.142996 0.402214 0.054535
H32   H     H_    0.896304 0.862817 0.891810 0.026754
H33   H     H_    0.390403 0.643000 0.402063 0.054567
H34   H     H_    0.450605 0.257538 0.800489 0.074680
H35   H     H_    0.396295 0.362815 0.891645 0.026720
H36   H     H_    0.934838 0.130952 0.222204 0.133476
H37   H     H_    0.947962 0.876885 0.723279 0.170214
H38   H     H_    0.434773 0.631069 0.221971 0.133559
H39   H     H_    0.447981 0.376844 0.723151 0.170286
H40   H     H_    0.984408 0.090495 0.691726 0.158718
H41   H     H_    0.982447 0.913689 0.204010 0.126176
H42   H     H_    0.484694 0.590687 0.691369 0.158986
H43   H     H_    0.482507 0.413602 0.203796 0.126189
H44   H     H_    0.073231 0.372438 0.647747 0.052685
H45   H     H_    0.719536 0.516853 0.613499 0.130004
H46   H     H_    0.073498 0.627434 0.148293 0.049705
H47   H     H_    0.573231 0.872440 0.647741 0.052709
H48   H     H_    0.573501 0.127430 0.148283 0.049730
H49   H     H_    0.183676 0.195921 0.538664 0.153183
H50   H     H_    0.185169 0.802848 0.037330 0.148266
H51   H     H_    0.683661 0.695911 0.538680 0.153199
H52   H     H_    0.685166 0.302849 0.037330 0.148277
H53   H     H_    0.814721 0.803028 0.274074 0.050014
H54   H     H_    0.814770 0.197088 0.774923 0.051758
H55   H     H_    0.314729 0.303034 0.274076 0.050015
H56   H     H_    0.717604 0.484249 0.115620 0.130674
H57   H     H_    0.314831 0.697036 0.774842 0.051692
H58   H     H_    0.928825 0.629289 0.160889 0.065444
H59   H     H_    0.928693 0.370987 0.661714 0.065984
H60   H     H_    0.428831 0.129292 0.160884 0.065454
H61   H     H_    0.428685 0.870997 0.661731 0.065998
H62   H     H_    0.236776 0.348962 0.080834 0.091126
H63   H     H_    0.237010 0.650915 0.581494 0.092185
H64   H     H_    0.736775 0.848961 0.080827 0.091127
H65   H     H_    0.736991 0.150932 0.581527 0.092201
H66   H     H_    0.764143 0.651891 0.729223 0.142739
H67   H     H_    0.219542 0.016860 0.613511 0.130011
H68   H     H_    0.764682 0.347625 0.228908 0.145101
H69   H     H_    0.264149 0.151895 0.729218 0.142713
H70   H     H_    0.264682 0.847625 0.228914 0.145068
H71   H     H_    0.970003 0.100663 0.409050 0.151827
H72   H     H_    0.977348 0.901171 0.919872 0.151083
H73   H     H_    0.469956 0.600632 0.408660 0.151762
H74   H     H_    0.477335 0.401191 0.919709 0.151091
H75   H     H_    0.010696 0.215180 0.762676 -0.140903
H76   H     H_    0.007887 0.786604 0.262266 -0.242625
H77   H     H_    0.510950 0.715344 0.762949 -0.140681
H78   H     H_    0.217604 0.984258 0.115647 0.130701
H79   H     H_    0.508014 0.286538 0.262400 -0.241606
H80   H     H_    0.933121 0.088147 0.864019 0.116603
H81   H     H_    0.930422 0.911866 0.374722 0.123349
H82   H     H_    0.433122 0.588311 0.863207 0.116521
H83   H     H_    0.430392 0.411753 0.374290 0.123335
H84   H     H_    0.913223 0.143016 0.699375 -0.000248
H85   H     H_    0.911800 0.860092 0.202903 0.018014
H86   H     H_    0.413546 0.643291 0.698551 -0.000300
H87   H     H_    0.411943 0.359911 0.202574 0.017899
H88   H     H_    0.832224 0.470545 0.696219 -0.038959
H89   H     H_    0.722149 0.426117 0.601613 0.087801
H90   H     H_    0.831919 0.528772 0.194211 -0.038672
H91   H     H_    0.332220 0.970549 0.696217 -0.038939
H92   H     H_    0.331919 0.028769 0.194205 -0.038648
H93   H     H_    0.035855 0.086254 0.127915 0.365834
H94   H     H_    0.093551 0.872884 0.177742 0.313040
H95   H     H_    0.535719 0.586209 0.127884 0.365755
H96   H     H_    0.593635 0.372926 0.177770 0.313088
O1    O     O_2   0.130070 0.404060 0.104920 -0.470681
O2    O     O_3   0.961877 0.795793 0.483522 -0.617770
O3    O     O_3   0.463546 0.703968 0.981671 -0.633093
O4    O     O_3   0.461920 0.295794 0.483480 -0.617742
O5    O     O_3   0.924190 0.533610 0.949240 -0.472790
O6    O     O_3   0.924190 0.466390 0.449240 -0.472964
O7    O     O_3   0.424190 0.033610 0.949240 -0.472780
O8    O     O_3   0.424190 0.966390 0.449240 -0.472948
O9    O     O_3   0.075780 0.466370 0.861070 -0.498351
O10   O     O_3   0.075780 0.533630 0.361070 -0.498991
O11   O     O_3   0.575780 0.966370 0.861070 -0.498345
O12   O     O_2   0.130070 0.595940 0.604920 -0.468660
O13   O     O_3   0.575780 0.033630 0.361070 -0.498972
O14   O     O_3   0.022320 0.344950 0.359800 -0.514692
O15   O     O_3   0.022320 0.655050 0.859800 -0.512857
O16   O     O_3   0.522320 0.844950 0.359800 -0.514683
O17   O     O_3   0.522320 0.155050 0.859800 -0.512843
O18   O     O_2   0.131287 0.291044 0.247561 -0.429756
O19   O     O_2   0.133137 0.706809 0.749490 -0.429137
O20   O     O_2   0.631283 0.791044 0.247575 -0.429724
O21   O     O_2   0.633136 0.206809 0.749488 -0.429190
O22   O     O_3   0.206723 0.478445 0.939591 -0.644396
O23   O     O_2   0.630070 0.904060 0.104920 -0.470674
O24   O     O_3   0.206609 0.521402 0.440009 -0.644879
O25   O     O_3   0.706723 0.978445 0.939584 -0.644392
O26   O     O_3   0.706610 0.021403 0.439995 -0.644871
O27   O     O_3   0.042039 0.204443 0.335359 -0.524872
O28   O     O_3   0.046023 0.795567 0.833631 -0.511547
O29   O     O_3   0.542022 0.704445 0.335329 -0.524809
O30   O     O_3   0.546025 0.295568 0.833623 -0.511540
O31   O     O_2   0.869860 0.403670 0.205810 -0.428482
O32   O     O_2   0.869860 0.596330 0.705810 -0.427685
O33   O     O_2   0.369860 0.903670 0.205810 -0.428490
O34   O     O_2   0.630070 0.095940 0.604920 -0.468682
O35   O     O_2   0.369860 0.096330 0.705810 -0.427683
O36   O     O_3   0.977590 0.344880 0.951200 -0.445076
O37   O     O_3   0.977590 0.655120 0.451200 -0.442749
O38   O     O_3   0.477590 0.844880 0.951200 -0.445113
O39   O     O_3   0.477590 0.155120 0.451200 -0.442768
O40   O     O_2   0.871637 0.287418 0.063520 -0.454160
O41   O     O_2   0.870785 0.711649 0.562693 -0.455311
O42   O     O_2   0.371654 0.787392 0.063515 -0.454147
O43   O     O_2   0.370808 0.211676 0.562696 -0.455295
O44   O     O_2   0.112965 0.118722 0.783853 -0.271088
O45   O     O_3   0.790301 0.473971 0.379974 -0.657108
O46   O     O_2   0.111515 0.186986 0.025873 -0.261026
O47   O     O_3   0.055065 0.069452 0.028515 -0.436107
O48   O     O_2   0.056262 0.916770 0.538280 -0.199048
O49   O     O_2   0.110822 0.807470 0.517091 -0.249675
O50   O     O_3   0.116135 0.889121 0.276874 -0.475598
O51   O     O_2   0.613101 0.618709 0.784213 -0.271249
O52   O     O_2   0.611556 0.686900 0.026316 -0.260805
O53   O     O_3   0.554979 0.569429 0.028533 -0.436111
O54   O     O_2   0.556186 0.416889 0.538028 -0.199132
O55   O     O_2   0.610830 0.307628 0.517394 -0.249403
O56   O     O_3   0.790434 0.525833 0.881038 -0.659799
O57   O     O_3   0.616209 0.389125 0.276924 -0.475707
O58   O     O_3   0.290304 0.973975 0.379984 -0.657106
O59   O     O_3   0.290437 0.025831 0.881057 -0.659801
O60   O     O_3   0.963518 0.203974 0.981744 -0.633044
P1    P     P_3+3 0.136530 0.426510 0.931350 0.970816
P2    P     P_3+3 0.920910 0.721151 0.428594 1.016225
P3    P     P_3+3 0.421509 0.778410 0.928596 1.002822
P4    P     P_3+3 0.420928 0.221163 0.428580 1.016085
P5    P     P_3+3 0.082433 0.717982 0.881251 1.028669
P6    P     P_3+3 0.081142 0.281006 0.381210 1.033396
P7    P     P_3+3 0.582433 0.217983 0.881250 1.028634
P8    P     P_3+3 0.581134 0.781000 0.381214 1.033390
P9    P     P_3+3 0.136530 0.573490 0.431350 0.970573
P10   P     P_3+3 0.636530 0.926510 0.931350 0.970803
P11   P     P_3+3 0.636530 0.073490 0.431350 0.970555
P12   P     P_3+3 0.863410 0.426100 0.379280 1.005892
P13   P     P_3+3 0.863410 0.573900 0.879280 1.005444
P14   P     P_3+3 0.363410 0.926100 0.379280 1.005904
P15   P     P_3+3 0.363410 0.073900 0.879280 1.005454
P16   P     P_3+3 0.921495 0.278419 0.928614 1.002900
S1    S     S_3+6 0.072296 0.138663 0.923139 -0.013394
S2    S     S_3+6 0.071232 0.859835 0.427716 -0.001360
S3    S     S_3+6 0.572353 0.638651 0.923361 -0.013347
S4    S     S_3+6 0.571247 0.359901 0.427727 -0.001364

loop_
_geom_bond_atom_site_label_1
_geom_bond_atom_site_label_2
_ccdc_geom_bond_type
O14   P6    S    
C1    H36   S    
C47   P4    S    
O10   P9    S    
Ba3   O13   S    
C68   H56   S    
C62   H88   S    
O23   P10   D    
Ba3   O7    S    
O19   P5    D    
C15   C19   A    
C12   H37   S    
Ba2   O6    S    
C40   H75   S    
C56   P9    S    
C69   H67   S    
C81   H12   S    
Ba1   O5    S    
Ba3   O33   S    
C11   H51   S    
C63   O45   S    
C63   H90   S    
Ba2   O32   S    
O30   P7    S    
O59   P15   S    
Ba4   P11   S    
C51   H55   S    
O60   P16   S    
C77   H20   S    
C44   P2    S    
Ba2   O15   S    
C46   C50   A    
Ba3   P14   S    
C60   H42   S    
C9    C14   A    
O17   P7    S    
C4    C78   A    
C83   H30   S    
C36   H58   S    
C29   C84   A    
C15   C57   A    
Ba1   Ba2   S    
O32   P13   D    
Ba3   O38   S    
C3    C67   A    
C2    H46   S    
C39   C48   A    
Ba4   O8    S    
C28   C87   A    
O24   P9    S    
C38   H60   S    
C41   S2    S    
C75   H18   S    
C25   C29   A    
O40   P16   D    
O44   S1    D    
C65   H92   S    
C74   H8    S    
C63   C68   S    
C27   C86   A    
C33   C38   A    
C73   H11   S    
O41   P2    D    
C5    C9    A    
C26   C57   A    
C43   H79   S    
O25   P10   S    
C63   Cl6   S    
C37   H59   S    
C45   P1    S    
C74   C79   S    
C25   C55   A    
O39   P4    S    
C59   H85   S    
O35   P15   D    
C8    C13   A    
C9    H49   S    
C69   H3    S    
C34   H39   S    
O36   P16   S    
C78   P11   S    
C18   C84   A    
C54   H68   S    
O47   S1    S    
C3    H47   S    
C35   P14   S    
C77   H16   S    
C38   C47   A    
C60   H82   S    
Ba1   O31   S    
Ba4   P15   S    
C40   S1    S    
C76   H19   S    
C22   C27   A    
Ba3   P10   S    
C43   C61   S    
C73   H7    S    
O48   S2    D    
C80   H1    S    
C32   P12   S    
C83   H34   S    
C23   H73   S    
C32   C37   A    
C4    H48   S    
Ba2   O5    S    
C7    C11   A    
C31   P13   S    
C12   H32   S    
Ba1   O6    S    
C5    C88   A    
C28   C50   A    
C81   O28   S    
C42   H77   S    
C65   O58   S    
O4    P4    S    
Ba1   P1    S    
O34   P11   D    
C59   H41   S    
C19   C56   A    
C75   H22   S    
C62   O56   S    
C21   C87   A    
C23   H38   S    
O15   P5    S    
C26   C30   A    
C88   H44   S    
C23   H33   S    
Ba4   O35   S    
C16   C20   A    
O43   P4    D    
O42   P3    D    
C66   Cl1   S    
O55   S4    D    
O20   P8    D    
O52   S3    D    
O1    P1    D    
C6    C10   A    
C41   H76   S    
Ba2   O9    S    
C1    C80   S    
C43   S4    S    
C40   O60   S    
Ba4   O7    S    
O9    P1    S    
C53   H66   S    
C71   O22   S    
C40   C58   S    
C41   O2    S    
C7    P8    S    
C48   P3    S    
C58   H84   S    
H96   O57   S    
O58   P14   S    
C13   C17   A    
C86   H64   S    
C11   C16   A    
C8    P7    S    
Ba4   O34   S    
C23   C82   S    
C3    C7    A    
C50   H54   S    
C52   H57   S    
C70   Cl4   S    
O33   P14   D    
C12   H72   S    
Ba2   O37   S    
C70   H78   S    
C76   H15   S    
C24   C28   A    
C4    C8    A    
C83   O30   S    
C5    P6    S    
C10   H50   S    
C19   C85   A    
O12   P9    D    
C1    H71   S    
O45   P12   S    
C29   C51   A    
C66   H45   S    
O5    P13   S    
C34   H35   S    
C79   H21   S    
Ba1   O10   S    
O37   P2    S    
O7    P15   S    
C14   C55   A    
C74   O26   S    
C18   C45   A    
C39   H61   S    
C73   O25   S    
C80   H27   S    
C46   P16   S    
C71   H5    S    
C67   P10   S    
O54   S4    D    
C64   O59   S    
C12   C81   S    
Ba4   O39   S    
C43   O4    S    
C27   C49   A    
C74   H13   S    
Ba2   O12   S    
C69   Cl3   S    
C45   C88   A    
O51   S3    D    
Ba3   Ba4   S    
C80   O27   S    
C37   C46   A    
O2    P2    S    
C61   H43   S    
O38   P3    S    
C62   Cl5   S    
Ba4   O11   S    
C70   H4    S    
O53   S3    S    
C76   H24   S    
Ba3   O16   S    
O13   P11   S    
Ba2   P13   S    
C17   C21   A    
C49   H53   S    
O16   P8    S    
C72   H6    S    
Ba4   O17   S    
C77   H25   S    
Ba1   O14   S    
C14   C18   A    
O22   P1    S    
C10   C15   A    
O18   P6    D    
Ba1   O1    S    
C72   C76   S    
O46   S1    D    
O57   S4    S    
C20   C86   A    
C2    C6    A    
C35   C39   A    
C82   H29   S    
H93   O47   S    
O28   P5    S    
C24   C54   A    
C44   C49   A    
C33   P15   S    
C30   C52   A    
C59   H81   S    
C42   S3    S    
C64   H91   S    
C6    P5    S    
C34   C83   S    
O29   P8    S    
C79   H17   S    
C61   H83   S    
C31   C36   A    
C64   C69   S    
C64   Cl7   S    
C68   Cl2   S    
C17   C54   A    
C71   C75   S    
C58   H80   S    
O26   P11   S    
Ba2   P9    S    
Ba1   O36   S    
C42   O3    S    
C21   C78   A    
Ba1   P12   S    
C68   H2    S    
C72   O24   S    
C84   H62   S    
H95   O53   S    
O50   S2    S    
C41   C59   S    
C26   C35   A    
C72   H10   S    
C71   H9    S    
C47   C51   A    
C2    C56   A    
O31   P12   D    
C22   C53   A    
C30   C85   A    
O21   P7    D    
C34   H74   S    
O3    P3    S    
C13   H52   S    
C65   Cl8   S    
C87   H65   S    
C22   C31   A    
C1    H31   S    
O11   P10   S    
C66   H89   S    
C62   C66   S    
C24   C32   A    
Ba3   O8    S    
Ba3   O23   S    
C73   C77   S    
H94   O50   S    
C75   H14   S    
C25   C33   A    
C82   H23   S    
C82   O29   S    
O56   P13   S    
C65   C70   S    
O49   S2    D    
C81   H28   S    
C57   H70   S    
C79   H26   S    
C42   C60   S    
C58   H40   S    
C16   C53   A    
C55   H69   S    
O6    P12   S    
C36   C44   A    
C85   H63   S    
O27   P6    S    
C60   H86   S    
C48   C52   A    
C20   C67   A    
C61   H87   S    
O8    P14   S    
