data_mof_unit_54553.cif
_audit_creation_date              2012-12-10T20:32:40-0500
_audit_creation_method            fapswitch 2.2
_symmetry_space_group_name_H-M    P1
_symmetry_Int_Tables_number       1
_space_group_crystal_system       triclinic
_cell_length_a                    11.543204
_cell_length_b                    10.772076
_cell_length_c                    9.879854
_cell_angle_alpha                 90.049328
_cell_angle_beta                  89.964895
_cell_angle_gamma                 90.108737
_cell_volume                      1228.50034395

loop_
_atom_site_label
_atom_site_type_symbol
_atom_type_description
_atom_site_fract_x
_atom_site_fract_y
_atom_site_fract_z
_atom_type_partial_charge
C1    C     C_R   0.495843 0.260420 0.499362 0.929403
C2    C     C_R   0.486291 0.128745 0.496147 -0.227808
C3    C     C_R   0.476467 0.064478 0.371927 0.345845
C4    C     C_R   0.493430 0.936241 0.371812 0.317980
C5    C     C_R   0.497545 0.871737 0.496349 -0.217944
C6    C     C_R   0.488824 0.936221 0.617555 -0.037528
C7    C     C_3   0.560232 0.927854 0.744028 0.199005
C8    C     C_3   0.562770 0.070039 0.743067 0.331305
C9    C     C_R   0.398381 0.493065 0.071170 0.238665
C10   C     C_R   0.599706 0.517268 0.071782 -0.123358
C11   C     C_R   0.599681 0.517502 0.928085 -0.114020
C12   C     C_R   0.281925 0.499770 0.500041 0.890061
C13   C     C_R   0.398444 0.492826 0.928789 0.215286
C14   C     C_3   0.312180 0.389863 0.922917 -0.512378
C15   C     C_3   0.311706 0.390381 0.076650 -0.497199
C16   C     C_R   0.502667 0.739798 0.499412 0.952713
C17   C     C_R   0.718063 0.499702 0.499976 0.891866
C18   C     C_1   0.161474 0.498959 0.500135 -0.186210
C19   C     C_1   0.059302 0.498432 0.500151 -0.007935
C20   C     C_1   0.940654 0.498377 0.500074 -0.006044
C21   C     C_1   0.838492 0.498858 0.499978 -0.182782
C22   C     C_R   0.489543 0.062830 0.616817 -0.176411
H1    H     H_    0.348753 0.303471 0.878468 0.215151
H2    H     H_    0.227877 0.421376 0.120488 0.206002
H3    H     H_    0.347419 0.304143 0.121624 0.255660
H4    H     H_    0.511264 0.886037 0.829711 0.088306
H5    H     H_    0.512497 0.109442 0.828912 0.074086
H6    H     H_    0.680508 0.529893 0.125333 0.154868
H7    H     H_    0.680485 0.530199 0.874472 0.165313
H8    H     H_    0.228554 0.420323 0.878296 0.210340
N1    N     N_R   0.499240 0.499140 0.142800 -0.095581
N2    N     N_R   0.499240 0.499180 0.857150 -0.106609
O1    O     O_R   0.500010 0.316790 0.614690 -0.614758
O2    O     O_R   0.500000 0.316760 0.385350 -0.553595
O3    O     O_R   0.334450 0.500030 0.614670 -0.623726
O4    O     O_R   0.334440 0.500000 0.385330 -0.615918
O5    O     O_R   0.500000 0.683240 0.614650 -0.595602
O6    O     O_R   0.499990 0.683210 0.385310 -0.585503
O7    O     O_R   0.665560 0.500000 0.614670 -0.606176
O8    O     O_R   0.665550 0.499970 0.385330 -0.637206
Zn1   Zn    Zn3+2 0.500010 0.500020 0.653130 0.970392
Zn2   Zn    Zn3+2 0.499990 0.499980 0.346870 0.984782
O9    O     O_3   0.461621 0.128350 0.251644 -0.758719
H9    H     H_    0.443701 0.069603 0.177323 0.359228
O10   O     O_3   0.517246 0.877896 0.250116 -0.597554
C23   C     C_3   0.638799 0.878604 0.230108 0.147688
H10   H     H_    0.678789 0.799136 0.284425 0.154158
H11   H     H_    0.681169 0.966256 0.265280 0.122453
C24   C     C_3   0.664314 0.865764 0.080250 -0.858091
H12   H     H_    0.633246 0.949890 0.026688 0.250971
H13   H     H_    0.759112 0.856538 0.064065 0.208517
H14   H     H_    0.619987 0.782667 0.038480 0.261923
O11   O     O_3   0.667686 0.871329 0.719872 -0.750922
H15   H     H_    0.712510 0.879844 0.804794 0.349800
O12   O     O_3   0.675924 0.124283 0.737006 -0.582571
C25   C     C_3   0.734061 0.115429 0.610867 0.205907
H16   H     H_    0.716064 0.199613 0.549973 0.118980
H17   H     H_    0.710209 0.032056 0.550799 0.160082
C26   C     C_3   0.863931 0.111114 0.635955 -0.827691
H18   H     H_    0.886073 0.027835 0.696780 0.263626
H19   H     H_    0.910754 0.106602 0.537867 0.201816
H20   H     H_    0.892102 0.195736 0.691301 0.257662

loop_
_geom_bond_atom_site_label_1
_geom_bond_atom_site_label_2
_ccdc_geom_bond_type
C14   H1    S    
C2    C22   A    
C8    C22   S    
N2    Zn1   S    
C6    C7    S    
N1    Zn2   S    
C13   C14   S    
C12   O4    A    
C13   N2    A    
O4    Zn2   S    
C19   C20   S    
O2    Zn2   S    
C25   C26   S    
C16   O5    A    
O12   C25   S    
C24   H14   S    
O1    Zn1   S    
O8    Zn2   S    
C2    C3    A    
C9    C15   S    
C1    O1    A    
C7    C8    S    
O7    Zn1   S    
O11   H15   S    
C25   H16   S    
C12   O3    A    
C23   C24   S    
C3    O9    S    
C7    H4    S    
C14   H8    S    
C8    O12   S    
C15   H2    S    
C25   H17   S    
C11   N2    A    
O6    Zn2   S    
C4    O10   S    
O9    H9    S    
O5    Zn1   S    
C5    C6    A    
O3    Zn1   S    
C23   H11   S    
C26   H19   S    
C15   H3    S    
C10   C11   A    
C7    O11   S    
C1    O2    A    
C10   H6    S    
C3    C4    A    
C6    C22   A    
C26   H18   S    
C20   C21   T    
C11   H7    S    
C1    C2    S    
C17   O7    A    
C12   C18   S    
C24   H12   S    
C8    H5    S    
C9    N1    A    
C23   H10   S    
C18   C19   T    
C5    C16   S    
C9    C13   A    
C24   H13   S    
O10   C23   S    
C10   N1    A    
C17   C21   S    
C14   C15   S    
C16   O6    A    
C4    C5    A    
C26   H20   S    
C17   O8    A    
