data_mof_unit_26628.cif
_audit_creation_date              2013-03-05T15:40:53-0500
_audit_creation_method            fapswitch 2.2
_symmetry_space_group_name_H-M    P1
_symmetry_Int_Tables_number       1
_space_group_crystal_system       triclinic
_cell_length_a                    28.002412
_cell_length_b                    18.725361
_cell_length_c                    16.734791
_cell_angle_alpha                 90.042588
_cell_angle_beta                  62.637592
_cell_angle_gamma                 90.193324
_cell_volume                      7793.15886668

loop_
_atom_site_label
_atom_site_type_symbol
_atom_site_description
_atom_site_fract_x
_atom_site_fract_y
_atom_site_fract_z
_atom_type_partial_charge
O1    O     O_R   0.255040 0.869590 0.478480 -0.537479
O2    O     O_R   0.744960 0.130410 0.521520 -0.555424
O3    O     O_R   0.744960 0.869590 0.521520 -0.540843
O4    O     O_R   0.255040 0.130410 0.478480 -0.537578
O5    O     O_R   0.755040 0.369590 0.478480 -0.566461
O6    O     O_R   0.244960 0.630410 0.521520 -0.537445
O7    O     O_R   0.244960 0.369590 0.521520 -0.538103
O8    O     O_R   0.755040 0.630410 0.478480 -0.534974
O9    O     O_R   0.182050 0.796550 0.624440 -0.600755
O10   O     O_R   0.817950 0.203450 0.375560 -0.601644
O11   O     O_R   0.817950 0.796550 0.375560 -0.596967
O12   O     O_R   0.182050 0.203450 0.624440 -0.594140
O13   O     O_R   0.682050 0.296550 0.624440 -0.601260
O14   O     O_R   0.317950 0.703450 0.375560 -0.603326
O15   O     O_R   0.317950 0.296550 0.375560 -0.604721
O16   O     O_R   0.682050 0.703450 0.624440 -0.602217
Cu1   Cu    Cu3+1 0.209920 0.785290 0.495070 1.035419
Cu2   Cu    Cu3+1 0.790080 0.214710 0.504930 1.061261
Cu3   Cu    Cu3+1 0.790080 0.785290 0.504930 1.037187
Cu4   Cu    Cu3+1 0.209920 0.214710 0.495070 1.027148
Cu5   Cu    Cu3+1 0.709920 0.285290 0.495070 1.075689
Cu6   Cu    Cu3+1 0.290080 0.714710 0.504930 1.019850
Cu7   Cu    Cu3+1 0.290080 0.285290 0.504930 1.030490
Cu8   Cu    Cu3+1 0.709920 0.714710 0.495070 1.026565
C1    C     C_R   0.297147 0.733201 0.328129 0.830919
C2    C     C_R   0.703398 0.268191 0.671527 0.819808
C3    C     C_R   0.703363 0.732240 0.671966 0.827846
C4    C     C_R   0.297345 0.266323 0.328079 0.813722
C5    C     C_R   0.791896 0.222858 0.331285 0.815763
C6    C     C_R   0.202738 0.766554 0.671893 0.827223
C7    C     C_R   0.202765 0.233435 0.671908 0.848190
C8    C     C_R   0.797033 0.766893 0.327910 0.831274
O17   O     O_R   0.250530 0.763330 0.367210 -0.546767
O18   O     O_R   0.749470 0.236670 0.632790 -0.551476
O19   O     O_R   0.749470 0.763330 0.632790 -0.550183
O20   O     O_R   0.250530 0.236670 0.367210 -0.572215
O21   O     O_R   0.750530 0.263330 0.367210 -0.548286
O22   O     O_R   0.249470 0.736670 0.632790 -0.556489
O23   O     O_R   0.249470 0.263330 0.632790 -0.547467
O24   O     O_R   0.750530 0.736670 0.367210 -0.553686
O25   O     O_R   0.177260 0.690030 0.513710 -0.610348
O26   O     O_R   0.822740 0.309970 0.486290 -0.594849
O27   O     O_R   0.822740 0.690030 0.486290 -0.619279
O28   O     O_R   0.177260 0.309970 0.513710 -0.605162
O29   O     O_R   0.677260 0.190030 0.513710 -0.567285
O30   O     O_R   0.322740 0.809970 0.486290 -0.616032
O31   O     O_R   0.322740 0.190030 0.486290 -0.615148
O32   O     O_R   0.677260 0.809970 0.513710 -0.614989
C9    C     C_R   0.196945 0.631455 0.525967 0.830373
C10   C     C_R   0.803771 0.368194 0.471147 0.784770
C11   C     C_R   0.803076 0.631641 0.473641 0.834413
C12   C     C_R   0.200577 0.368911 0.514008 0.836824
C13   C     C_R   0.696427 0.131748 0.528063 0.867498
C14   C     C_R   0.303447 0.868333 0.472616 0.826143
C15   C     C_R   0.303339 0.131654 0.473022 0.830152
C16   C     C_R   0.696594 0.868312 0.527414 0.826851
H1    H     H_    0.535435 0.755058 0.522264 0.144367
H2    H     H_    0.462635 0.244954 0.485071 0.149715
H3    H     H_    0.465466 0.755520 0.473105 0.143540
H4    H     H_    0.532244 0.244408 0.535014 0.164760
H5    H     H_    0.077948 0.266286 0.392853 0.140925
H6    H     H_    0.956160 0.743075 0.501633 0.150335
H7    H     H_    0.993047 0.264068 0.383621 0.146561
H8    H     H_    0.027085 0.739524 0.548559 0.146476
C17   C     C_R   0.041025 0.625859 0.525749 0.090120
C18   C     C_R   0.972840 0.374130 0.424958 0.096232
C19   C     C_R   0.956999 0.628967 0.478961 0.083175
C20   C     C_R   0.069637 0.375930 0.438926 0.097420
C21   C     C_R   0.539574 0.129159 0.532399 0.098424
C22   C     C_R   0.458799 0.870826 0.474140 0.089654
C23   C     C_R   0.457472 0.129651 0.480135 0.078563
C24   C     C_R   0.541058 0.870366 0.525981 0.090386
C25   C     C_R   0.014971 0.690351 0.528700 -0.172019
C26   C     C_R   0.005183 0.312903 0.404115 -0.178176
C27   C     C_R   0.974733 0.692399 0.501657 -0.169155
C28   C     C_R   0.053629 0.314163 0.409573 -0.189960
C29   C     C_R   0.517570 0.193945 0.523073 -0.101186
C30   C     C_R   0.480376 0.806003 0.484483 -0.190403
C31   C     C_R   0.478110 0.194264 0.494062 -0.169218
C32   C     C_R   0.520031 0.805734 0.513054 -0.190282
C33   C     C_R   0.980895 0.563954 0.480209 0.035203
C34   C     C_R   0.037765 0.437329 0.459584 0.034514
C35   C     C_R   0.025339 0.563059 0.498064 0.032364
C36   C     C_R   0.990233 0.437011 0.449676 0.031020
C37   C     C_R   0.477510 0.064737 0.493319 0.035581
C38   C     C_R   0.520958 0.935279 0.512839 0.037135
C39   C     C_R   0.520204 0.064545 0.516079 0.025687
C40   C     C_R   0.478225 0.935469 0.490190 0.033455
C41   C     C_R   0.455843 0.000193 0.481459 -0.036916
C42   C     C_R   0.542772 0.999832 0.524263 -0.035780
C43   C     C_R   0.961457 0.500398 0.460658 -0.040977
C44   C     C_R   0.054183 0.499747 0.487459 -0.040662
C45   C     C_R   0.387665 0.934709 0.456914 0.043985
C46   C     C_R   0.611567 0.065318 0.546982 0.062892
C47   C     C_R   0.612029 0.934089 0.544719 0.046266
C48   C     C_R   0.387287 0.065954 0.458898 0.044665
C49   C     C_R   0.890603 0.435210 0.443204 0.049301
C50   C     C_R   0.116766 0.563197 0.528453 0.046457
C51   C     C_R   0.130802 0.436488 0.486213 0.040224
C52   C     C_R   0.887739 0.566260 0.454971 0.041375
C53   C     C_R   0.336198 0.934678 0.457925 -0.102820
C54   C     C_R   0.663561 0.065383 0.543849 -0.076759
C55   C     C_R   0.663789 0.934388 0.542743 -0.102619
C56   C     C_R   0.336036 0.065623 0.458805 -0.102498
C57   C     C_R   0.836755 0.434766 0.454032 -0.117842
C58   C     C_R   0.166745 0.564295 0.532169 -0.101319
C59   C     C_R   0.173978 0.435566 0.509444 -0.124868
C60   C     C_R   0.835660 0.565727 0.458539 -0.090827
C61   C     C_R   0.312098 0.000070 0.457458 -0.188865
C62   C     C_R   0.687984 0.999970 0.543176 -0.188013
C63   C     C_R   0.811282 0.500128 0.458889 -0.216374
C64   C     C_R   0.192225 0.499676 0.528756 -0.199133
H9    H     H_    0.272657 0.999933 0.460306 0.214125
H10   H     H_    0.727833 0.000114 0.538669 0.210132
H11   H     H_    0.770654 0.499899 0.466795 0.206042
H12   H     H_    0.227882 0.499597 0.538550 0.220590
C65   C     C_R   0.410192 0.000299 0.465457 0.065261
C66   C     C_R   0.588820 0.999738 0.539079 0.065011
C67   C     C_R   0.913052 0.500542 0.453030 0.068233
C68   C     C_R   0.100416 0.499627 0.501456 0.071587
C69   C     C_R   0.582661 0.870759 0.549890 -0.219089
C70   C     C_R   0.416435 0.129292 0.454879 -0.208251
C71   C     C_R   0.417335 0.871623 0.449898 -0.216433
C72   C     C_R   0.581622 0.128362 0.555308 -0.137677
C73   C     C_R   0.117137 0.377254 0.447253 -0.230261
C74   C     C_R   0.915708 0.629809 0.454948 -0.217715
C75   C     C_R   0.923520 0.373459 0.421712 -0.216823
C76   C     C_R   0.083375 0.623904 0.547683 -0.209775
H13   H     H_    0.590104 0.820810 0.573760 0.179272
H14   H     H_    0.409503 0.179293 0.430494 0.179929
H15   H     H_    0.410177 0.822262 0.424151 0.179028
H16   H     H_    0.589433 0.177739 0.580223 0.166781
H17   H     H_    0.143526 0.332228 0.419528 0.169881
H18   H     H_    0.908166 0.681123 0.434686 0.186501
H19   H     H_    0.912698 0.325054 0.398834 0.170140
H20   H     H_    0.088852 0.670269 0.580881 0.173717
C77   C     C_R   0.219811 0.763903 0.952789 0.011780
C78   C     C_R   0.760888 0.198598 0.061083 0.041504
C79   C     C_R   0.787972 0.746836 0.039413 0.038347
C80   C     C_R   0.223679 0.229021 0.948732 0.013273
C81   C     C_R   0.704132 0.236896 0.964900 0.038943
C82   C     C_R   0.276404 0.728957 0.051092 0.014405
C83   C     C_R   0.279829 0.264091 0.047715 0.011237
C84   C     C_R   0.727252 0.717852 0.946773 0.041607
C85   C     C_R   0.253728 0.703287 0.926463 -0.086019
C86   C     C_R   0.715475 0.243919 0.101578 -0.097208
C87   C     C_R   0.747960 0.692993 0.073223 -0.085369
C88   C     C_R   0.258830 0.288214 0.921493 -0.014350
C89   C     C_R   0.750595 0.193338 0.922988 -0.100871
C90   C     C_R   0.241178 0.787804 0.078804 -0.014344
C91   C     C_R   0.245929 0.203216 0.073638 -0.086206
C92   C     C_R   0.763211 0.775851 0.919804 -0.101251
C93   C     C_R   0.279635 0.683925 0.980015 0.085199
C94   C     C_R   0.684562 0.257754 0.055684 0.087728
C95   C     C_R   0.722524 0.672870 0.018800 0.082609
C96   C     C_R   0.283684 0.308370 0.975731 0.113571
C97   C     C_R   0.775985 0.169341 0.974972 0.086987
C98   C     C_R   0.216042 0.807876 0.024999 0.113686
C99   C     C_R   0.220313 0.183743 0.019658 0.084125
C100  C     C_R   0.799141 0.781845 0.957703 0.075771
C101  C     C_R   0.156560 0.843150 0.931782 0.088040
C102  C     C_R   0.836485 0.136831 0.068594 0.096708
C103  C     C_R   0.861848 0.814083 0.045902 0.094245
C104  C     C_R   0.158342 0.153207 0.928909 0.090342
C105  C     C_R   0.631785 0.305873 0.956152 0.093409
C106  C     C_R   0.341893 0.653423 0.070421 0.092263
C107  C     C_R   0.343099 0.343418 0.069023 0.086963
C108  C     C_R   0.661185 0.644804 0.926266 0.085274
C109  C     C_R   0.122678 0.857024 0.891266 -0.115891
C110  C     C_R   0.870934 0.129873 0.110590 -0.117450
C111  C     C_R   0.885881 0.843048 0.098319 -0.114660
C112  C     C_R   0.123121 0.142033 0.890467 -0.124565
C113  C     C_R   0.611865 0.340921 0.901694 -0.116636
C114  C     C_R   0.376906 0.641988 0.109309 -0.122675
C115  C     C_R   0.377279 0.356950 0.108988 -0.116051
C116  C     C_R   0.625386 0.636846 0.888538 -0.123884
C117  C     C_R   0.135018 0.824819 0.809042 -0.256774
C118  C     C_R   0.855784 0.161002 0.194314 -0.266683
C119  C     C_R   0.865251 0.822849 0.188468 -0.258685
C120  C     C_R   0.134628 0.175856 0.809493 -0.257717
C121  C     C_R   0.634929 0.324634 0.810033 -0.258835
C122  C     C_R   0.365165 0.675485 0.190612 -0.258086
C123  C     C_R   0.365224 0.324364 0.190847 -0.258031
C124  C     C_R   0.636943 0.671769 0.808261 -0.256196
H21   H     H_    0.114208 0.841734 0.771463 0.187317
H22   H     H_    0.881850 0.156035 0.225857 0.185080
H23   H     H_    0.880729 0.848449 0.229924 0.189942
H24   H     H_    0.112603 0.160854 0.773104 0.191587
H25   H     H_    0.621574 0.353171 0.767674 0.189055
H26   H     H_    0.386953 0.660329 0.227245 0.188863
H27   H     H_    0.386336 0.341043 0.228133 0.187690
H28   H     H_    0.614053 0.658888 0.772647 0.188080
C125  C     C_R   0.176809 0.775447 0.771298 -0.073031
C126  C     C_R   0.806887 0.196207 0.239702 -0.079210
C127  C     C_R   0.823386 0.773188 0.227762 -0.075075
C128  C     C_R   0.177309 0.224119 0.771108 -0.073509
C129  C     C_R   0.676362 0.274635 0.770945 -0.071525
C130  C     C_R   0.322642 0.723725 0.228882 -0.070059
C131  C     C_R   0.323222 0.275036 0.228753 -0.067670
C132  C     C_R   0.679722 0.719802 0.770535 -0.068041
C133  C     C_R   0.198325 0.745517 0.826606 -0.068968
C134  C     C_R   0.773367 0.205462 0.196770 -0.075425
C135  C     C_R   0.803085 0.738670 0.172791 -0.066781
C136  C     C_R   0.200657 0.251546 0.825058 -0.040092
C137  C     C_R   0.695485 0.238864 0.825711 -0.079276
C138  C     C_R   0.299552 0.751239 0.174760 -0.038491
C139  C     C_R   0.301333 0.245291 0.173724 -0.071660
C140  C     C_R   0.703923 0.744797 0.824579 -0.071667
C141  C     C_R   0.191359 0.783585 0.904020 0.030254
C142  C     C_R   0.791305 0.182116 0.107661 0.033761
C143  C     C_R   0.817323 0.766823 0.086575 0.029556
C144  C     C_R   0.194028 0.211825 0.901205 0.028590
C145  C     C_R   0.677507 0.261250 0.915184 0.029807
C146  C     C_R   0.306162 0.711763 0.098441 0.028802
C147  C     C_R   0.308275 0.283655 0.096544 0.028597
C148  C     C_R   0.697284 0.702948 0.899512 0.029611
C149  C     C_R   0.160073 0.890055 0.993810 -0.180485
C150  C     C_R   0.842260 0.096440 0.993330 -0.183659
C151  C     C_R   0.880872 0.828584 0.953330 -0.185556
C152  C     C_R   0.162649 0.104056 0.987857 -0.195136
C153  C     C_R   0.606681 0.310576 0.050624 -0.179265
C154  C     C_R   0.337746 0.604727 0.010745 -0.195194
C155  C     C_R   0.339381 0.390828 0.007792 -0.180029
C156  C     C_R   0.664352 0.594365 0.985614 -0.188527
C157  C     C_R   0.191372 0.874720 0.035405 -0.143856
C158  C     C_R   0.812585 0.112285 0.947885 -0.238040
C159  C     C_R   0.848832 0.816220 0.911704 -0.236333
C160  C     C_R   0.195344 0.117016 0.027824 -0.217667
C161  C     C_R   0.632480 0.286698 0.099341 -0.227780
C162  C     C_R   0.304850 0.617530 0.971184 -0.219019
C163  C     C_R   0.308130 0.375520 0.966032 -0.143990
C164  C     C_R   0.695667 0.607228 0.028679 -0.223059
C165  C     C_R   0.228477 0.681666 0.804664 0.306495
C166  C     C_R   0.720958 0.234110 0.240734 0.377470
C167  C     C_R   0.769092 0.677512 0.200482 0.306570
C168  C     C_R   0.233205 0.313561 0.801845 0.261984
C169  C     C_R   0.732851 0.182139 0.794298 0.347769
C170  C     C_R   0.267256 0.813179 0.198003 0.265228
C171  C     C_R   0.270813 0.181455 0.195728 0.304114
C172  C     C_R   0.732000 0.810750 0.809401 0.320715
C173  C     C_R   0.260908 0.665566 0.846895 -0.112216
C174  C     C_R   0.701540 0.270444 0.188748 -0.138540
C175  C     C_R   0.737466 0.659810 0.156820 -0.127482
C176  C     C_R   0.268055 0.324838 0.840498 -0.128903
C177  C     C_R   0.768547 0.174120 0.831420 -0.116459
C178  C     C_R   0.232195 0.824236 0.159809 -0.130084
C179  C     C_R   0.238455 0.165358 0.153240 -0.114669
C180  C     C_R   0.761011 0.826895 0.858256 -0.137581
H29   H     H_    0.141391 0.941194 0.007459 0.150673
H30   H     H_    0.867261 0.049713 0.970390 0.182056
H31   H     H_    0.920645 0.847904 0.909767 0.186352
H32   H     H_    0.143715 0.052932 0.999103 0.151152
H33   H     H_    0.566274 0.330178 0.089031 0.179708
H34   H     H_    0.356869 0.553903 0.998581 0.152135
H35   H     H_    0.357978 0.442177 0.994933 0.149490
H36   H     H_    0.645007 0.542724 0.995836 0.168397
H37   H     H_    0.196646 0.917163 0.074320 0.141232
H38   H     H_    0.817833 0.078042 0.892388 0.172116
H39   H     H_    0.864210 0.831327 0.841730 0.168099
H40   H     H_    0.202098 0.072353 0.061709 0.173705
H41   H     H_    0.610698 0.290430 0.171824 0.159103
H42   H     H_    0.298096 0.572856 0.937182 0.173025
H43   H     H_    0.302794 0.418084 0.927453 0.140781
H44   H     H_    0.700227 0.563297 0.066017 0.179682
O33   O     O_R   0.051640 0.926880 0.885090 -0.588840
O34   O     O_R   0.948360 0.073120 0.114910 -0.576527
O35   O     O_R   0.948360 0.926880 0.114910 -0.573308
O36   O     O_R   0.051640 0.073120 0.885090 -0.578725
O37   O     O_R   0.551640 0.426880 0.885090 -0.574845
O38   O     O_R   0.448360 0.573120 0.114910 -0.579941
O39   O     O_R   0.448360 0.426880 0.114910 -0.590913
O40   O     O_R   0.551640 0.573120 0.885090 -0.579827
Cu9   Cu    Cu3+1 0.495240 0.500000 0.924150 0.974507
Cu10  Cu    Cu3+1 0.504760 0.500000 0.075850 0.950133
Cu11  Cu    Cu3+1 0.995240 1.000000 0.924150 0.946598
Cu12  Cu    Cu3+1 0.004760 1.000000 0.075850 0.976472
C181  C     C_R   0.927515 0.900622 0.065079 0.803533
C182  C     C_R   0.076261 0.093320 0.930858 0.807206
C183  C     C_R   0.076228 0.906518 0.930966 0.795031
C184  C     C_R   0.922322 0.090276 0.069581 0.821017
C185  C     C_R   0.423780 0.406479 0.069053 0.794069
C186  C     C_R   0.577038 0.591476 0.930164 0.823583
C187  C     C_R   0.571576 0.399746 0.935366 0.795125
C188  C     C_R   0.423726 0.593293 0.069128 0.806060
O41   O     O_R   0.940620 0.926560 0.986760 -0.613450
O42   O     O_R   0.059380 0.073440 0.013240 -0.591606
O43   O     O_R   0.059380 0.926560 0.013240 -0.586492
O44   O     O_R   0.940620 0.073440 0.986760 -0.595045
O45   O     O_R   0.440620 0.426560 0.986760 -0.585879
O46   O     O_R   0.559380 0.573440 0.013240 -0.584001
O47   O     O_R   0.559380 0.426560 0.013240 -0.608379
O48   O     O_R   0.440620 0.573440 0.986760 -0.591308
N1    N     N_R   0.220892 0.629353 0.748052 0.160150
O49   O     O_R   0.172464 0.613278 0.761749 -0.352969
O50   O     O_R   0.261602 0.601959 0.678832 -0.285159
N2    N     N_R   0.682103 0.202888 0.324209 0.154043
O51   O     O_R   0.689693 0.138519 0.345329 -0.400248
O52   O     O_R   0.635121 0.231986 0.369952 -0.344169
N3    N     N_R   0.773602 0.627194 0.261936 0.155251
O53   O     O_R   0.820905 0.609971 0.252493 -0.374534
O54   O     O_R   0.731164 0.602157 0.330592 -0.299580
N4    N     N_R   0.225555 0.368859 0.748703 0.134502
O55   O     O_R   0.266120 0.399899 0.682645 -0.333602
O56   O     O_R   0.177106 0.385505 0.763422 -0.334998
N5    N     N_R   0.726652 0.124824 0.741628 0.162489
O57   O     O_R   0.682153 0.118836 0.735344 -0.380942
O58   O     O_R   0.759223 0.070533 0.717117 -0.235404
N6    N     N_R   0.275438 0.868628 0.250603 0.132642
O59   O     O_R   0.235194 0.900267 0.316191 -0.334372
O60   O     O_R   0.324046 0.884962 0.235725 -0.342482
N7    N     N_R   0.277896 0.129160 0.252704 0.162640
O61   O     O_R   0.326162 0.112784 0.239199 -0.348302
O62   O     O_R   0.236905 0.102109 0.322070 -0.286533
N8    N     N_R   0.722306 0.865907 0.758737 0.151650
O63   O     O_R   0.761944 0.894308 0.688538 -0.256311
O64   O     O_R   0.673218 0.882361 0.777092 -0.355898
C189  C     C_2   0.307956 0.618673 0.797496 0.399269
H45   H     H_    0.348001 0.638566 0.780055 0.062263
O65   O     O_2   0.302226 0.556564 0.781291 -0.508198
C190  C     C_2   0.677633 0.342512 0.218756 0.422906
H46   H     H_    0.671852 0.377951 0.172726 0.079374
O66   O     O_2   0.666667 0.364791 0.293813 -0.468266
C191  C     C_2   0.689303 0.614289 0.205800 0.411710
H47   H     H_    0.649987 0.634713 0.219920 0.059112
O67   O     O_2   0.693409 0.552558 0.225270 -0.477334
C192  C     C_2   0.319338 0.363197 0.785519 0.398942
H48   H     H_    0.319735 0.415331 0.757456 0.171867
O68   O     O_2   0.362131 0.336224 0.771489 -0.530387
C193  C     C_2   0.826916 0.165003 0.768564 0.411067
H49   H     H_    0.856874 0.172402 0.791830 0.069734
O69   O     O_2   0.842816 0.154117 0.688387 -0.490839
C194  C     C_2   0.180862 0.861820 0.215451 0.401882
H50   H     H_    0.180412 0.913995 0.243539 0.171670
O70   O     O_2   0.138075 0.834179 0.229918 -0.526601
C195  C     C_2   0.191216 0.118256 0.202265 0.395462
H51   H     H_    0.151295 0.137927 0.219080 0.057278
O71   O     O_2   0.196671 0.056229 0.218867 -0.506382
C196  C     C_2   0.779897 0.901231 0.859804 0.425260
H52   H     H_    0.776364 0.922994 0.922439 0.062641
O72   O     O_2   0.801509 0.937581 0.791944 -0.461445

loop_
_geom_bond_atom_site_label_1
_geom_bond_atom_site_label_2
_geom_bond_distance
_ccdc_geom_bond_type
C101  C149  1.396615 A    
C130  C138  1.430070 A    
Cu2   Cu5   2.678307 S    
C59   C64   1.397768 A    
O38   Cu10  1.964832 S    
C23   C70   1.394832 A    
C111  C119  1.396767 A    
C171  N7    1.443571 S    
C105  C153  1.407131 A    
C119  C127  1.398720 A    
C117  C125  1.396467 A    
C77   C98   1.425237 A    
C110  C118  1.391731 A    
C83   C147  1.425605 A    
C134  C142  1.406800 A    
C80   C99   1.426416 A    
C38   C40   1.411574 A    
C81   C94   1.412870 A    
C127  C135  1.436858 A    
Cu6   O22   1.950838 S    
C125  C133  1.431596 A    
C6    O22   1.292677 A    
C133  C141  1.411318 A    
C2    C129  1.482638 S    
Cu4   O28   1.965582 S    
N6    O60   1.301568 A    
O40   Cu9   1.958072 S    
O3    Cu3   1.963570 S    
C192  H48   1.081435 S    
C109  C183  1.484940 S    
C36   C43   1.400697 A    
C128  C136  1.430372 A    
C110  C184  1.479882 S    
C111  C181  1.492369 S    
C49   C57   1.433648 A    
C138  C146  1.412118 A    
C83   C91   1.415503 A    
C132  C140  1.434190 A    
C150  H30   1.076892 S    
C106  C154  1.395287 A    
Cu9   O45   1.960390 S    
C136  C144  1.412291 A    
C177  C193  1.492762 S    
O25   C9    1.287371 A    
C153  H33   1.077998 S    
C29   C31   1.396378 A    
O40   C186  1.297695 A    
C106  C114  1.420829 A    
C191  H47   1.085242 S    
C38   C42   1.404575 A    
C45   C53   1.433510 A    
C195  O71   1.220752 D    
C102  C142  1.411802 A    
C3    O19   1.285736 A    
N8    O63   1.301248 A    
C134  C166  1.412464 A    
C86   C94   1.420992 A    
C170  N6    1.444917 S    
C13   C54   1.493450 S    
O12   Cu4   1.946043 S    
O13   Cu5   1.946265 S    
C138  C170  1.413332 A    
C167  C175  1.421441 A    
H2    C31   1.083660 S    
N2    O51   1.301673 A    
C34   C36   1.414876 A    
C152  H32   1.066805 S    
H6    C27   1.083737 S    
Cu11  O41   1.960390 S    
C51   C59   1.430164 A    
C156  H36   1.081362 S    
C115  C123  1.391989 A    
C116  C124  1.391893 A    
C45   C71   1.419956 A    
C16   C55   1.493705 S    
O2    C13   1.312655 A    
C60   C63   1.401984 A    
C50   C68   1.420000 A    
C9    C58   1.489917 S    
H7    C26   1.083467 S    
O37   Cu9   1.964835 S    
C50   C58   1.429251 A    
C100  C159  1.397562 A    
C79   C143  1.425600 A    
C136  C168  1.413566 A    
Cu3   O19   1.949891 S    
C104  C144  1.409200 A    
C195  H51   1.085338 S    
C118  H22   1.083856 S    
C179  C195  1.482042 S    
C40   C41   1.404498 A    
C188  O48   1.289590 A    
O37   C187  1.308436 A    
C122  H26   1.083441 S    
O38   C188  1.301337 A    
N8    O64   1.301302 A    
C150  C158  1.392777 A    
C190  O66   1.221295 D    
Cu12  O43   1.966530 S    
C103  C151  1.413676 A    
C14   C53   1.493471 S    
C21   C29   1.403385 A    
C107  C147  1.412777 A    
O27   C11   1.283039 A    
C114  C122  1.393440 A    
C23   C31   1.403863 A    
C34   C44   1.409871 A    
C26   C28   1.401078 A    
C55   C62   1.402162 A    
C52   C74   1.422293 A    
O10   Cu2   1.946265 S    
O7    C12   1.305412 A    
Cu2   O26   1.960395 S    
C30   C32   1.396342 A    
C6    C125  1.487393 S    
C18   C26   1.404409 A    
C72   H16   1.076328 S    
C116  C186  1.471800 S    
C186  O46   1.288038 A    
C90   C98   1.425601 A    
C82   C93   1.426241 A    
N5    O58   1.302054 A    
C10   C57   1.496229 S    
H8    C25   1.083704 S    
C62   H10   1.083291 S    
C101  C109  1.421504 A    
O28   C12   1.281638 A    
O16   C3    1.308780 A    
O29   C13   1.288267 A    
C193  O69   1.221121 D    
H1    C32   1.083670 S    
C135  C143  1.410487 A    
C45   C65   1.415696 A    
H3    C30   1.083668 S    
C109  C117  1.392682 A    
C33   C35   1.407267 A    
C47   C55   1.434479 A    
Cu5   O29   1.960395 S    
H5    C28   1.083678 S    
N4    O56   1.301526 A    
C52   C60   1.431878 A    
C4    C131  1.485601 S    
Cu7   O31   1.965582 S    
Cu8   O32   1.965582 S    
C48   C65   1.416031 A    
C194  H50   1.081469 S    
O34   Cu12  1.964832 S    
C84   C148  1.419784 A    
C181  O41   1.282965 A    
C15   C56   1.493560 S    
C78   C142  1.428548 A    
C191  O67   1.221252 D    
C91   C99   1.434178 A    
C49   C67   1.417162 A    
N1    O49   1.301435 A    
N3    O54   1.301538 A    
Cu4   Cu7   2.670700 S    
C86   C174  1.415623 A    
O5    Cu5   1.957038 S    
C52   C67   1.415096 A    
C99   C160  1.405459 A    
Cu10  O46   1.960391 S    
C74   H18   1.072641 S    
O9    C6    1.306717 A    
O26   C10   1.289624 A    
C105  C145  1.416660 A    
C41   C65   1.421478 A    
O11   C8    1.309145 A    
C19   C33   1.395916 A    
C196  O72   1.218932 D    
N7    O62   1.301466 A    
O12   C7    1.305172 A    
C43   C67   1.418689 A    
O13   C2    1.302327 A    
C104  C112  1.418454 A    
C19   C27   1.403717 A    
C153  C161  1.389475 A    
C64   H12   1.083661 S    
C87   C95   1.439728 A    
C107  C115  1.419219 A    
C165  C173  1.416777 A    
C108  C116  1.416474 A    
C163  H43   1.079197 S    
C164  H44   1.076232 S    
C178  C194  1.484605 S    
C120  C128  1.394887 A    
C183  O43   1.289345 A    
C160  H40   1.075708 S    
C113  C187  1.492222 S    
C161  H41   1.080882 S    
C20   C28   1.406413 A    
C114  C188  1.483006 S    
O1    Cu1   1.957038 S    
C20   C34   1.400237 A    
O14   Cu6   1.946265 S    
C44   C68   1.417651 A    
C24   C32   1.403608 A    
C166  C174  1.397723 A    
C46   C66   1.415334 A    
C47   C69   1.420645 A    
C78   C86   1.418056 A    
O7    Cu7   1.963570 S    
C50   C76   1.414242 A    
O8    Cu8   1.963572 S    
C113  C121  1.397508 A    
C154  C162  1.380823 A    
C88   C176  1.432676 A    
C192  O68   1.221258 D    
C149  H29   1.065862 S    
C20   C73   1.399796 A    
C149  C157  1.377653 A    
O39   Cu10  1.958072 S    
C102  C150  1.413076 A    
C24   C69   1.394903 A    
C176  C192  1.484649 S    
C129  C137  1.424724 A    
Cu11  Cu12  2.671706 S    
C158  H38   1.081472 S    
Cu12  O42   1.960391 S    
C118  C126  1.391281 A    
O11   Cu3   1.946043 S    
C42   C66   1.420603 A    
C77   C85   1.416465 A    
C75   H19   1.079010 S    
C76   H20   1.078274 S    
C91   C179  1.437018 A    
O39   C185  1.300743 A    
C119  H23   1.083267 S    
C53   C61   1.401903 A    
O6    Cu6   1.957036 S    
O36   C182  1.299341 A    
C95   C164  1.408394 A    
C117  H21   1.083397 S    
C152  C160  1.380435 A    
C171  C179  1.416869 A    
C189  O65   1.220737 D    
C175  C191  1.481376 S    
C1    C130  1.486651 S    
C120  H24   1.083494 S    
C121  H25   1.083269 S    
O33   Cu11  1.964835 S    
C12   C59   1.475539 S    
Cu3   O27   1.965582 S    
C124  H28   1.083604 S    
C103  C111  1.433890 A    
C21   C39   1.401408 A    
C139  C171  1.413988 A    
C112  C120  1.392728 A    
N2    O52   1.300819 A    
C57   C63   1.402101 A    
C137  C145  1.406656 A    
C151  H31   1.074282 S    
C140  C172  1.420649 A    
Cu1   O17   1.950837 S    
C8    C127  1.493359 S    
Cu11  O44   1.966527 S    
C155  C163  1.377141 A    
O35   Cu12  1.958072 S    
C17   C76   1.393885 A    
C82   C146  1.426550 A    
C19   C74   1.387755 A    
C37   C41   1.404855 A    
C21   C72   1.395934 A    
C187  O47   1.287691 A    
C101  C141  1.414166 A    
C77   C141  1.427187 A    
N3    O53   1.301531 A    
C184  O44   1.276925 A    
C135  C167  1.421378 A    
C133  C165  1.413647 A    
C102  C110  1.437234 A    
O30   C14   1.287089 A    
C139  C147  1.411265 A    
C137  C169  1.414381 A    
C98   C157  1.403264 A    
C107  C155  1.396062 A    
Cu6   O30   1.960395 S    
C79   C100  1.415685 A    
O4    C15   1.313134 A    
O5    C10   1.313057 A    
C54   C62   1.402403 A    
C80   C144  1.424956 A    
C89   C177  1.422200 A    
C182  O42   1.289647 A    
C71   H15   1.075965 S    
C69   H13   1.075291 S    
C24   C38   1.400535 A    
C124  C132  1.393157 A    
C173  C189  1.481790 S    
Cu1   Cu6   2.678307 S    
C48   C70   1.421457 A    
C82   C90   1.410111 A    
Cu3   Cu8   2.670700 S    
O10   C5    1.308605 A    
C108  C148  1.408901 A    
O15   C4    1.305076 A    
C7    C128  1.485356 S    
C165  N1    1.443758 S    
C121  C129  1.399779 A    
O14   C1    1.306756 A    
C180  C196  1.491819 S    
C92   C180  1.427743 A    
Cu4   O20   1.949890 S    
Cu5   O21   1.950837 S    
C4    O20   1.289261 A    
C84   C92   1.404551 A    
N5    O57   1.302256 A    
C39   C42   1.404108 A    
C5    O21   1.281653 A    
C172  C180  1.424178 A    
C88   C96   1.424454 A    
C151  C159  1.384430 A    
C89   C97   1.426727 A    
C112  C182  1.479304 S    
N7    O61   1.301429 A    
C92   C100  1.418752 A    
C22   C30   1.403509 A    
C193  H49   1.083480 S    
C122  C130  1.396198 A    
C49   C75   1.420512 A    
C22   C40   1.400942 A    
C80   C88   1.409332 A    
C81   C89   1.420365 A    
C51   C73   1.423796 A    
C58   C64   1.394538 A    
C35   C44   1.401362 A    
C79   C87   1.415086 A    
C194  O70   1.221243 D    
C156  C164  1.387641 A    
C172  N8    1.440160 S    
C56   C61   1.401751 A    
C17   C35   1.404721 A    
C105  C113  1.429370 A    
C5    C126  1.477521 S    
C17   C25   1.402082 A    
C18   C75   1.406890 A    
C51   C68   1.411988 A    
C23   C37   1.399959 A    
C22   C71   1.395019 A    
C2    O18   1.291844 A    
C11   C60   1.488287 S    
C168  N4    1.444641 S    
Cu9   O48   1.966527 S    
C87   C175  1.432394 A    
Cu10  O47   1.966530 S    
C61   H9    1.083357 S    
C85   C93   1.435513 A    
C104  C152  1.395078 A    
O15   Cu7   1.946043 S    
C140  C148  1.416791 A    
C170  C178  1.412011 A    
C108  C156  1.403298 A    
C37   C39   1.411735 A    
C47   C66   1.415773 A    
H4    C29   1.083641 S    
C174  C190  1.489137 S    
C169  C177  1.406989 A    
C81   C145  1.424466 A    
C103  C143  1.419263 A    
O33   C183  1.302683 A    
O34   C184  1.311734 A    
O35   C181  1.312553 A    
C123  C131  1.395222 A    
C166  N2    1.441124 S    
O1    C14   1.313582 A    
C155  H35   1.065799 S    
O3    C16   1.312097 A    
C131  C139  1.431718 A    
Cu9   Cu10  2.671706 S    
C154  H34   1.066247 S    
C85   C173  1.437310 A    
C167  N3    1.443272 S    
C33   C43   1.406568 A    
Cu2   O18   1.950838 S    
O8    C11   1.309990 A    
C106  C146  1.410586 A    
C97   C158  1.406032 A    
O9    Cu1   1.946265 S    
C93   C162  1.405644 A    
C25   C27   1.394611 A    
C94   C161  1.407045 A    
N6    O59   1.300847 A    
O31   C15   1.282911 A    
C73   H17   1.077325 S    
O32   C16   1.284123 A    
N4    O55   1.300923 A    
C3    C132  1.486337 S    
O2    Cu2   1.957036 S    
C123  H27   1.083459 S    
O4    Cu4   1.963572 S    
C159  H39   1.082986 S    
C190  H46   1.084468 S    
C168  C176  1.412105 A    
C84   C95   1.426174 A    
C48   C56   1.435865 A    
C157  H37   1.079078 S    
N1    O50   1.301433 A    
C96   C163  1.402993 A    
C83   C96   1.425349 A    
C78   C97   1.412758 A    
C90   C178  1.432697 A    
Cu7   O23   1.949891 S    
O36   Cu11  1.958072 S    
C162  H42   1.075404 S    
Cu8   O24   1.949890 S    
C7    O23   1.288793 A    
C8    O24   1.287180 A    
O6    C9    1.312203 A    
C189  H45   1.085278 S    
Cu1   O25   1.960395 S    
C18   C36   1.405475 A    
C169  N5    1.448049 S    
C126  C134  1.431241 A    
O16   Cu8   1.946043 S    
C196  H52   1.085753 S    
C1    O17   1.292173 A    
C63   H11   1.083256 S    
C115  C185  1.481618 S    
C70   H14   1.074925 S    
C46   C54   1.432614 A    
C185  O45   1.289550 A    
C46   C72   1.419583 A    
