data_mof_unit_56234.cif
_audit_creation_date              2013-03-05T15:48:20-0500
_audit_creation_method            fapswitch 2.2
_symmetry_space_group_name_H-M    P1
_symmetry_Int_Tables_number       1
_space_group_crystal_system       triclinic
_cell_length_a                    10.124912
_cell_length_b                    10.375254
_cell_length_c                    16.930102
_cell_angle_alpha                 92.017076
_cell_angle_beta                  75.935993
_cell_angle_gamma                 94.949486
_cell_volume                      1718.55285672

loop_
_atom_site_label
_atom_site_type_symbol
_atom_site_description
_atom_site_fract_x
_atom_site_fract_y
_atom_site_fract_z
_atom_type_partial_charge
O1    O     O_R   0.430310 0.692580 0.506610 -0.574881
O2    O     O_R   0.569690 0.307420 0.493390 -0.573068
O3    O     O_R   0.652740 0.659410 0.485540 -0.584326
O4    O     O_R   0.347260 0.340590 0.514460 -0.577088
C1    C     C_R   0.555192 0.735869 0.498672 0.962449
C2    C     C_R   0.443661 0.264281 0.508091 0.958580
O5    O     O_R   0.375640 0.518570 0.627580 -0.590323
O6    O     O_R   0.624360 0.481430 0.372420 -0.552161
O7    O     O_R   0.598070 0.485390 0.606510 -0.595786
O8    O     O_R   0.401930 0.514610 0.393490 -0.582724
C3    C     C_R   0.481201 0.503198 0.654601 1.052400
C4    C     C_R   0.518812 0.493779 0.344723 0.988379
Zn1   Zn    Zn3+2 0.351480 0.522150 0.514070 1.080041
Zn2   Zn    Zn3+2 0.648520 0.477850 0.485930 1.107435
C5    C     C_R   0.467626 0.498602 0.741656 -0.397158
C6    C     C_R   0.530471 0.463909 0.257721 -0.345574
C7    C     C_R   0.577761 0.549488 0.773476 0.179668
C8    C     C_R   0.417482 0.400022 0.233833 0.184987
C9    C     C_R   0.575252 0.527349 0.854566 0.223991
C10   C     C_R   0.433032 0.350813 0.154912 0.184950
C11   C     C_R   0.460559 0.459429 0.904188 -0.200642
C12   C     C_R   0.556102 0.379965 0.096587 -0.103856
C13   C     C_R   0.347569 0.415036 0.873782 0.363203
C14   C     C_R   0.672924 0.438978 0.118333 0.420496
C15   C     C_R   0.350479 0.434444 0.792158 0.156710
C16   C     C_R   0.660559 0.476986 0.201291 0.134309
C17   C     C_2   0.456086 0.436563 0.988923 -0.065070
C18   C     C_2   0.553333 0.376268 0.010532 -0.036657
H1    H     H_    0.638645 0.341922 0.964831 0.200493
H2    H     H_    0.372687 0.474308 0.034426 0.188418
C19   C     C_2   0.580319 0.874711 0.512414 0.065113
C20   C     C_2   0.413672 0.126123 0.524083 0.024902
C21   C     C_2   0.488517 0.930749 0.573515 0.273881
C22   C     C_2   0.480295 0.073310 0.574449 0.300242
H3    H     H_    0.111383 0.404481 0.456636 0.219931
H4    H     H_    0.885120 0.588575 0.548684 0.203272
N1    N     N_2   0.846390 0.448330 0.467170 -0.155744
N2    N     N_2   0.153610 0.551670 0.532830 -0.178783
C23   C     C_2   0.925892 0.512283 0.506744 -0.058339
C24   C     C_2   0.072206 0.483909 0.496232 -0.005743
H5    H     H_    0.112904 0.626918 0.569550 0.188396
H6    H     H_    0.888550 0.376326 0.427995 0.241040
N3    N     N_R   0.688548 0.629516 0.724652 0.232622
O9    O     O_R   0.813425 0.597248 0.711430 -0.374070
O10   O     O_R   0.663595 0.730801 0.689151 -0.426601
N4    N     N_R   0.288221 0.377281 0.290814 0.242008
O11   O     O_R   0.249875 0.262342 0.320382 -0.292473
O12   O     O_R   0.199724 0.463823 0.300705 -0.324197
N5    N     N_R   0.778697 0.523097 0.229677 0.193228
O13   O     O_R   0.793120 0.643181 0.253213 -0.336962
O14   O     O_R   0.859720 0.440807 0.244109 -0.315752
N6    N     N_R   0.238282 0.380676 0.760179 0.234227
O15   O     O_R   0.257103 0.289563 0.704723 -0.423868
O16   O     O_R   0.114488 0.408897 0.794483 -0.339992
O17   O     O_3   0.234254 0.350753 0.923801 -0.605049
C25   C     C_3   0.248853 0.216379 0.916576 0.116160
H7    H     H_    0.334107 0.192158 0.942830 0.179681
H8    H     H_    0.269971 0.182599 0.851791 0.141987
C26   C     C_3   0.115943 0.144725 0.962679 -0.231023
H9    H     H_    0.088411 0.181773 0.026493 0.285382
H10   H     H_    0.032601 0.162818 0.933126 0.234180
C27   C     C_3   0.129084 0.999508 0.963366 -0.927617
H11   H     H_    0.162386 0.960846 0.900327 0.252076
H12   H     H_    0.028534 0.949673 0.992844 0.283684
H13   H     H_    0.204741 0.978971 0.998118 0.304005
O18   O     O_3   0.793803 0.449098 0.056149 -0.619872
C28   C     C_3   0.890661 0.551670 0.065390 0.171939
H14   H     H_    0.955386 0.518385 0.103632 0.223423
H15   H     H_    0.841040 0.640569 0.091426 0.164806
C29   C     C_3   0.986151 0.586127 0.982609 -0.264916
H16   H     H_    0.008180 0.496744 0.945396 0.312510
H17   H     H_    0.936328 0.651220 0.950268 0.263302
C30   C     C_3   0.121107 0.655302 0.991702 -0.903783
H18   H     H_    0.102000 0.741563 0.032214 0.278026
H19   H     H_    0.183917 0.686375 0.931042 0.267170
H20   H     H_    0.178997 0.589238 0.018096 0.292855
N7    N     N_R   0.323089 0.271950 0.132843 0.239310
O19   O     O_R   0.347383 0.163385 0.093307 -0.386535
O20   O     O_R   0.199402 0.308526 0.151051 -0.309277
N8    N     N_R   0.688263 0.576166 0.886737 0.230920
O21   O     O_R   0.803528 0.523225 0.863728 -0.368064
O22   O     O_R   0.671263 0.661107 0.945987 -0.400533
O23   O     O_3   0.546599 0.157579 0.621863 -0.629805
C31   C     C_3   0.600669 0.094100 0.678009 0.146939
H21   H     H_    0.683704 0.034308 0.645185 0.198083
H22   H     H_    0.519194 0.032563 0.719342 0.157111
C32   C     C_3   0.659866 0.196058 0.730034 -0.338782
H23   H     H_    0.738575 0.261807 0.689979 0.270867
H24   H     H_    0.576974 0.254349 0.764271 0.203535
C33   C     C_3   0.724025 0.134192 0.790625 -0.858873
H25   H     H_    0.646061 0.070495 0.832543 0.262500
H26   H     H_    0.765759 0.211089 0.827236 0.287453
H27   H     H_    0.808671 0.076429 0.757959 0.281317
O24   O     O_3   0.407871 0.852340 0.635572 -0.645077
C34   C     C_3   0.277890 0.898118 0.667881 0.083094
H28   H     H_    0.224356 0.908112 0.618545 0.193221
H29   H     H_    0.286855 0.992590 0.700174 0.155528
C35   C     C_3   0.192541 0.800369 0.729114 -0.347483
H30   H     H_    0.189766 0.703059 0.699672 0.266276
H31   H     H_    0.240622 0.794589 0.781205 0.220249
C36   C     C_3   0.046404 0.838383 0.760635 -0.825811
H32   H     H_    0.045949 0.936805 0.788651 0.251742
H33   H     H_    0.988856 0.768487 0.807281 0.305677
H34   H     H_    0.994202 0.836959 0.709948 0.291109
N9    N     N_R   0.320482 0.052705 0.483793 0.167484
O25   O     O_R   0.218577 0.107607 0.468820 -0.296599
O26   O     O_R   0.343404 0.937025 0.454495 -0.371781
N10   N     N_R   0.687017 0.947723 0.455016 0.189662
O27   O     O_R   0.739425 0.897415 0.383993 -0.286064
O28   O     O_R   0.743334 0.056723 0.476259 -0.349852

loop_
_geom_bond_atom_site_label_1
_geom_bond_atom_site_label_2
_geom_bond_distance
_ccdc_geom_bond_type
C2    C20   1.460304 S    
O17   C25   1.412538 S    
C36   H32   1.110584 S    
C19   N10   1.444165 S    
C34   H28   1.112676 S    
C31   C32   1.528285 S    
O7    Zn2   1.980742 S    
C21   O24   1.400344 S    
C34   C35   1.528855 S    
N7    O19   1.300762 A    
N10   O27   1.301287 A    
O5    C3    1.284216 A    
N9    O26   1.300236 A    
C10   N7    1.439337 S    
O1    C1    1.281489 A    
C18   H1    1.086567 S    
C9    C11   1.406130 A    
C14   C16   1.424013 A    
C5    C15   1.411344 A    
O4    Zn1   1.880733 S    
C25   H7    1.112458 S    
C30   H18   1.109516 S    
N1    H6    1.030900 S    
C27   H12   1.110521 S    
C3    C5    1.448717 S    
C4    C6    1.472837 S    
C25   H8    1.115106 S    
N5    O14   1.301759 A    
C19   C21   1.362233 D    
C29   H16   1.110384 S    
C14   O18   1.405943 S    
O18   C28   1.414755 S    
C11   C17   1.451503 S    
C26   H9    1.111565 S    
C36   H33   1.110329 S    
C12   C18   1.463077 S    
C17   H2    1.086066 S    
C30   H19   1.110660 S    
O2    C2    1.282757 A    
C8    N4    1.431172 S    
N6    O16   1.300614 A    
N7    O20   1.301342 A    
C6    C16   1.425719 A    
N4    O12   1.300937 A    
C26   H10   1.112089 S    
C28   H14   1.108557 S    
C31   H21   1.113165 S    
N2    H5    1.030870 S    
O4    C2    1.291245 A    
C16   N5    1.433543 S    
C23   C24   1.502124 S    
C28   H15   1.114063 S    
C20   C22   1.363296 D    
N3    O9    1.300395 A    
C7    N3    1.438018 S    
C27   H11   1.109922 S    
O7    C3    1.286900 A    
C33   H26   1.110659 S    
O23   C31   1.412877 S    
O6    C4    1.284421 A    
C29   C30   1.526803 S    
C21   C22   1.487916 S    
O24   C34   1.412970 S    
N3    O10   1.301323 A    
Zn1   N2    1.999535 S    
O3    Zn2   1.880733 S    
O8    C4    1.298293 A    
N8    O22   1.300980 A    
C10   C12   1.406136 A    
C35   H30   1.111331 S    
C36   H34   1.110933 S    
C35   H31   1.111658 S    
C20   N9    1.444987 S    
C32   H24   1.110225 S    
C30   H20   1.109600 S    
C12   C14   1.407224 A    
O1    Zn1   1.871607 S    
C22   O23   1.403813 S    
N6    O15   1.301183 A    
C33   H27   1.111065 S    
C5    C7    1.408109 A    
N4    O11   1.300429 A    
C26   C27   1.524618 S    
O6    Zn2   1.997335 S    
C27   H13   1.111036 S    
H4    C23   1.084198 S    
C31   H22   1.112582 S    
N8    O21   1.300017 A    
O3    C1    1.292390 A    
O8    Zn1   1.980742 S    
C34   H29   1.113071 S    
C13   O17   1.383395 S    
C35   C36   1.527010 S    
N9    O25   1.300773 A    
C25   C26   1.526620 S    
C28   C29   1.530956 S    
C11   C13   1.401602 A    
H3    C24   1.083580 S    
C15   N6    1.436346 S    
N1    C23   1.294505 D    
Zn2   N1    1.999535 S    
N2    C24   1.294227 D    
C33   H25   1.110967 S    
C7    C9    1.393694 A    
N10   O28   1.301226 A    
C8    C10   1.390811 A    
C13   C15   1.396376 A    
C9    N8    1.430346 S    
O2    Zn2   1.871607 S    
O5    Zn1   1.997334 S    
C32   H23   1.111938 S    
C6    C8    1.409537 A    
N5    O13   1.301656 A    
C32   C33   1.525925 S    
C17   C18   1.338706 D    
C29   H17   1.108796 S    
C1    C19   1.461469 S    
