data_mof_unit_39017.cif
_audit_creation_date              2012-12-10T16:37:24-0500
_audit_creation_method            fapswitch 2.2
_symmetry_space_group_name_H-M    P1
_symmetry_Int_Tables_number       1
_space_group_crystal_system       triclinic
_cell_length_a                    16.817317
_cell_length_b                    16.799746
_cell_length_c                    16.815261
_cell_angle_alpha                 65.565674
_cell_angle_beta                  65.447276
_cell_angle_gamma                 65.535709
_cell_volume                      3762.08318993

loop_
_atom_site_label
_atom_site_type_symbol
_atom_type_description
_atom_site_fract_x
_atom_site_fract_y
_atom_site_fract_z
_atom_type_partial_charge
C1    C     C_R   0.421799 0.108567 0.613566 0.437875
C2    C     C_R   0.487259 0.695150 0.882052 0.364456
C3    C     C_3   0.661029 0.246760 0.297864 -0.890654
C4    C     C_3   0.269040 0.718306 0.988018 0.023584
C5    C     C_3   0.181973 0.690297 0.045061 -0.741214
C6    C     C_3   0.253633 0.008428 0.701758 0.124103
C7    C     C_3   0.222962 0.038672 0.786332 -0.830443
C8    C     C_3   0.756765 0.735583 0.512371 0.120634
C9    C     C_3   0.750492 0.657250 0.494026 -0.883973
C10   C     C_3   0.703781 0.275407 0.957118 0.104158
C11   C     C_3   0.796598 0.207198 0.962377 -0.877477
C12   C     C_3   0.520501 0.761321 0.725182 0.119266
C13   C     C_R   0.045450 0.550934 0.312216 0.434420
C14   C     C_3   0.500061 0.760519 0.645522 -0.856637
C15   C     C_3   0.957998 0.696294 0.268223 0.124020
C16   C     C_3   0.956526 0.785618 0.192046 -0.860057
C17   C     C_3   0.733772 0.526910 0.750207 0.114243
C18   C     C_3   0.653877 0.508132 0.747632 -0.875485
C19   C     C_3   0.456480 0.234015 0.692835 -0.295876
C20   C     C_3   0.622781 0.769375 0.279669 -0.294508
C21   C     C_3   0.153473 0.788769 0.322285 -0.172140
C22   C     C_3   0.761925 0.287072 0.629747 -0.303713
C23   C     C_3   0.655629 0.479277 0.236634 -0.348539
C24   C     C_R   0.891237 0.487263 0.689303 0.382315
C25   C     C_3   0.279187 0.616810 0.765192 -0.287635
C26   C     C_3   0.180020 0.186571 0.417533 -0.294677
C27   C     C_3   0.876390 0.899879 0.394182 -0.201669
C28   C     C_3   0.442230 0.188965 0.191141 -0.346626
C29   C     C_3   0.398803 0.879699 0.890203 -0.214070
C30   C     C_3   0.190176 0.417971 0.187607 -0.362034
C31   C     C_3   0.897064 0.399840 0.873957 -0.202039
C32   C     C_R   0.957530 0.179296 0.440056 0.966337
C33   C     C_R   0.037499 0.820129 0.562535 0.954233
C34   C     C_R   0.179478 0.439725 0.958232 0.956498
C35   C     C_R   0.820259 0.565157 0.033193 0.961536
C36   C     C_R   0.439548 0.958568 0.179458 0.954158
C37   C     C_R   0.564448 0.034368 0.820288 0.930068
C38   C     C_R   0.575763 0.837179 0.994147 0.960892
C39   C     C_R   0.603255 0.926134 0.344795 0.422677
C40   C     C_R   0.429677 0.176116 0.981805 0.944657
C41   C     C_R   0.004473 0.573882 0.830343 0.964991
C42   C     C_R   0.980849 0.429694 0.176212 0.957085
C43   C     C_R   0.835460 0.996519 0.575329 0.972012
C44   C     C_R   0.176213 0.981023 0.429903 0.948586
C45   C     C_R   0.465329 0.103438 0.672109 0.372996
C46   C     C_R   0.557203 0.908498 0.303959 0.424281
C47   C     C_R   0.096685 0.681416 0.454448 0.392429
C48   C     C_R   0.903105 0.306697 0.556702 0.421586
C49   C     C_R   0.670970 0.469952 0.099228 0.378910
C50   C     C_R   0.098687 0.623230 0.411482 0.367689
C51   C     C_R   0.306017 0.558084 0.902592 0.421010
C52   C     C_R   0.269126 0.055984 0.492930 0.413587
C53   C     C_R   0.744875 0.912987 0.513397 0.340775
C54   C     C_R   0.498413 0.272428 0.047297 0.442683
C55   C     C_R   0.517668 0.747950 0.904808 0.343178
C56   C     C_R   0.053507 0.491806 0.269347 0.436325
C57   C     C_R   0.915711 0.517186 0.741006 0.345258
C58   C     C_R   0.554898 0.998359 0.547925 -0.135110
C59   C     C_R   0.459659 0.984598 0.451456 -0.124527
C60   C     C_R   0.996271 0.551907 0.550430 -0.120169
C61   C     C_R   0.919055 0.349065 0.603157 0.443014
C62   C     C_R   0.980456 0.453028 0.458964 -0.123033
C63   C     C_R   0.553130 0.557320 0.988056 -0.121073
C64   C     C_R   0.454597 0.462799 0.976239 -0.123043
C65   C     C_R   0.601971 0.948528 0.483254 -0.036982
C66   C     C_R   0.410682 0.028842 0.521483 -0.074238
C67   C     C_R   0.946164 0.487257 0.599403 -0.024819
C68   C     C_R   0.021434 0.525201 0.408533 -0.098612
C69   C     C_R   0.488781 0.604671 0.937703 -0.044103
C70   C     C_R   0.526812 0.414164 0.017060 -0.063813
C71   C     C_R   0.556021 0.952009 0.426799 -0.076876
C72   C     C_R   0.620038 0.420847 0.097713 0.390464
C73   C     C_R   0.460499 0.044732 0.562422 -0.057746
C74   C     C_R   0.431004 0.559109 0.941990 -0.077693
C75   C     C_R   0.568803 0.462442 0.033165 -0.028434
C76   C     C_R   0.947450 0.429932 0.555184 -0.062887
C77   C     C_R   0.037701 0.568470 0.455266 -0.066612
C78   C     C_R   0.555634 0.045894 0.667865 -0.042770
C79   C     C_R   0.460619 0.937824 0.329320 -0.088573
C80   C     C_R   0.048476 0.670179 0.548212 -0.016419
C81   C     C_R   0.935129 0.329786 0.460585 -0.073652
C82   C     C_R   0.669673 0.558555 0.038727 -0.029045
C83   C     C_R   0.349055 0.605893 0.915493 0.470987
C84   C     C_R   0.330157 0.461601 0.934717 -0.086984
C85   C     C_R   0.316067 0.003419 0.430268 -0.096689
C86   C     C_R   0.699267 0.966879 0.575041 -0.034146
C87   C     C_R   0.432163 0.317908 0.999518 -0.105522
C88   C     C_R   0.578340 0.702092 0.959321 -0.034579
C89   C     C_R   0.002229 0.428713 0.316259 -0.110899
C90   C     C_R   0.973566 0.575657 0.693981 -0.042317
C91   C     C_R   0.604408 0.036173 0.724900 -0.056116
C92   C     C_R   0.409452 0.938419 0.278776 -0.084038
C93   C     C_R   0.047417 0.722435 0.597636 -0.039292
C94   C     C_R   0.313678 0.055725 0.547089 0.408813
C95   C     C_R   0.936394 0.278607 0.409701 -0.080923
C96   C     C_R   0.726130 0.606888 0.030968 -0.057848
C97   C     C_R   0.278757 0.409502 0.938125 -0.088571
C98   C     C_R   0.271292 0.977906 0.392267 -0.078402
C99   C     C_R   0.744539 0.986792 0.616964 -0.064004
C100  C     C_R   0.392417 0.271641 0.977850 -0.083706
C101  C     C_R   0.619091 0.747289 0.980889 -0.062806
C102  C     C_R   0.977204 0.391151 0.271252 -0.088956
C103  C     C_R   0.001328 0.613057 0.737523 -0.061016
C104  C     C_R   0.697641 0.011048 0.695981 -0.341088
C105  C     C_R   0.692247 0.892483 0.481001 0.385348
C106  C     C_R   0.318985 0.944389 0.318482 -0.309222
C107  C     C_R   0.034309 0.687145 0.689290 -0.359792
C108  C     C_R   0.943159 0.317704 0.318889 -0.318986
C109  C     C_R   0.698396 0.700286 0.004544 -0.343730
C110  C     C_R   0.317703 0.318518 0.946082 -0.325752
C111  C     C_R   0.602988 0.002621 0.597648 -0.096902
C112  C     C_R   0.412280 0.973924 0.404814 -0.092082
C113  C     C_R   0.005372 0.599736 0.597290 -0.101875
C114  C     C_R   0.971308 0.404768 0.412251 -0.100833
C115  C     C_R   0.601593 0.605574 0.993617 -0.096148
C116  C     C_R   0.555200 0.318061 0.039423 0.408827
C117  C     C_R   0.406554 0.414349 0.968864 -0.097971
C118  C     C_3   0.377067 0.254383 0.521205 0.150905
C119  C     C_3   0.338657 0.273132 0.445622 -0.875925
C120  C     C_3   0.698031 0.015187 0.254343 0.117069
C121  C     C_3   0.791283 0.015241 0.184277 -0.858991
C122  C     C_3   0.238793 0.538961 0.343127 0.116591
C123  C     C_3   0.312535 0.536675 0.251904 -0.829754
C124  C     C_3   0.991629 0.241701 0.709469 0.068873
C125  C     C_3   0.989822 0.146740 0.722869 -0.730826
C126  C     C_3   0.675170 0.275181 0.195429 0.250347
H1    H     H_    0.734817 0.012027 0.734910 0.197890
H2    H     H_    0.354958 0.333761 0.389117 0.203392
H3    H     H_    0.857662 0.370736 0.860356 0.188980
H4    H     H_    0.877141 0.382197 0.949184 0.177396
H5    H     H_    0.971461 0.364930 0.849979 0.135509
H6    H     H_    0.370169 0.213971 0.417826 0.238735
H7    H     H_    0.688455 0.047271 0.305033 0.122745
H8    H     H_    0.645393 0.057657 0.217346 0.175476
H9    H     H_    0.796917 0.085780 0.151974 0.206128
H10   H     H_    0.846197 0.973518 0.217514 0.233101
H11   H     H_    0.800949 0.987329 0.130401 0.263684
H12   H     H_    0.217524 0.475679 0.371477 0.127971
H13   H     H_    0.268487 0.540412 0.390527 0.140715
H14   H     H_    0.336039 0.598551 0.222429 0.247967
H15   H     H_    0.283448 0.931982 0.285636 0.181425
H16   H     H_    0.371891 0.475160 0.261583 0.214824
H17   H     H_    0.285080 0.534766 0.203188 0.267920
H18   H     H_    0.997429 0.241204 0.773080 0.138933
H19   H     H_    0.054177 0.256617 0.654039 0.157040
H20   H     H_    0.006370 0.137083 0.655852 0.289267
H21   H     H_    0.041206 0.093143 0.756857 0.188892
H22   H     H_    0.921432 0.137675 0.766125 0.255167
H23   H     H_    0.742343 0.288874 0.155436 0.142765
H24   H     H_    0.679377 0.214213 0.182230 0.184066
H25   H     H_    0.719521 0.187664 0.315801 0.206741
H26   H     H_    0.046033 0.721144 0.724239 0.199173
H27   H     H_    0.656035 0.303261 0.318942 0.275807
H28   H     H_    0.597264 0.226104 0.336434 0.243157
H29   H     H_    0.250490 0.793387 0.973418 0.150848
H30   H     H_    0.318229 0.686910 0.028594 0.128238
H31   H     H_    0.198052 0.614870 0.067637 0.278982
H32   H     H_    0.150991 0.714744 0.106296 0.261697
H33   H     H_    0.132864 0.720881 0.004689 0.253976
H34   H     H_    0.320286 0.953706 0.700924 0.122296
H35   H     H_    0.202392 0.979466 0.706901 0.147638
H36   H     H_    0.159818 0.097195 0.787703 0.256954
H37   H     H_    0.931078 0.284728 0.283187 0.195713
H38   H     H_    0.209704 0.981177 0.848927 0.185758
H39   H     H_    0.276969 0.060697 0.785786 0.266246
H40   H     H_    0.714020 0.736099 0.583616 0.106845
H41   H     H_    0.829179 0.722162 0.506399 0.185793
H42   H     H_    0.791613 0.655058 0.423138 0.248161
H43   H     H_    0.777057 0.591264 0.542016 0.235241
H44   H     H_    0.678247 0.666334 0.503304 0.247945
H45   H     H_    0.711657 0.345391 0.925781 0.150529
H46   H     H_    0.680829 0.260994 0.912299 0.146770
H47   H     H_    0.791150 0.136496 0.990827 0.263600
H48   H     H_    0.737331 0.737282 0.005911 0.197961
H49   H     H_    0.846062 0.214878 0.892946 0.243083
H50   H     H_    0.822005 0.219450 0.006363 0.222952
H51   H     H_    0.591430 0.716919 0.724615 0.106418
H52   H     H_    0.516024 0.832611 0.714721 0.192358
H53   H     H_    0.430771 0.807031 0.642401 0.255641
H54   H     H_    0.550798 0.783790 0.580392 0.232900
H55   H     H_    0.503324 0.690204 0.653923 0.247096
H56   H     H_    0.929199 0.711404 0.334801 0.149577
H57   H     H_    0.912990 0.665443 0.263894 0.129381
H58   H     H_    0.985237 0.772482 0.124637 0.252204
H59   H     H_    0.283997 0.282139 0.935900 0.199512
H60   H     H_    0.884697 0.828827 0.199135 0.259427
H61   H     H_    0.996440 0.821896 0.195883 0.230503
H62   H     H_    0.737097 0.596073 0.702842 0.108147
H63   H     H_    0.720706 0.526105 0.820904 0.188010
H64   H     H_    0.648101 0.439817 0.794908 0.246393
H65   H     H_    0.589151 0.560286 0.768746 0.237450
H66   H     H_    0.664201 0.510049 0.677288 0.248347
H67   H     H_    0.403647 0.291302 0.719240 0.189132
H68   H     H_    0.476760 0.260054 0.616887 0.120367
H69   H     H_    0.515932 0.214939 0.716882 0.140897
H70   H     H_    0.452908 0.240826 0.492411 0.087272
H71   H     H_    0.556808 0.752360 0.314395 0.138669
H72   H     H_    0.662455 0.743273 0.328913 0.181264
H73   H     H_    0.663247 0.733621 0.226225 0.189141
H74   H     H_    0.090478 0.799184 0.307668 0.124442
H75   H     H_    0.214750 0.757497 0.272759 0.189358
H76   H     H_    0.157049 0.857264 0.310449 0.166693
H77   H     H_    0.739489 0.331703 0.567641 0.137390
H78   H     H_    0.742942 0.327518 0.676603 0.195749
H79   H     H_    0.724466 0.234951 0.666230 0.186284
H80   H     H_    0.685719 0.446450 0.294158 0.183264
H81   H     H_    0.349804 0.317646 0.542044 0.150623
H82   H     H_    0.585720 0.471471 0.263574 0.181248
H83   H     H_    0.651411 0.552845 0.212563 0.157212
H84   H     H_    0.310238 0.548877 0.752280 0.134479
H85   H     H_    0.331187 0.654298 0.734642 0.178369
H86   H     H_    0.225255 0.657043 0.730272 0.191703
H87   H     H_    0.244176 0.207098 0.383513 0.125161
H88   H     H_    0.124131 0.247281 0.434007 0.189814
H89   H     H_    0.166089 0.168907 0.368833 0.153632
H90   H     H_    0.845098 0.973341 0.361554 0.134533
H91   H     H_    0.870666 0.855849 0.364030 0.185083
H92   H     H_    0.263269 0.286541 0.472328 0.271225
H93   H     H_    0.950039 0.890358 0.375727 0.172982
H94   H     H_    0.371326 0.212715 0.186919 0.146748
H95   H     H_    0.450700 0.233491 0.219326 0.171779
H96   H     H_    0.452936 0.119595 0.239944 0.191368
H97   H     H_    0.365152 0.852291 0.964320 0.120128
H98   H     H_    0.369815 0.869485 0.848124 0.186696
H99   H     H_    0.380153 0.954446 0.875247 0.193447
H100  H     H_    0.173191 0.356636 0.197334 0.158360
H101  H     H_    0.218232 0.405360 0.242692 0.145865
H102  H     H_    0.245099 0.428863 0.122365 0.199690
O1    O     O_R   0.982940 0.138950 0.510160 -0.562810
O2    O     O_R   0.982940 0.510160 0.138950 -0.583808
O3    O     O_R   0.861050 0.017060 0.489840 -0.610111
O4    O     O_R   0.138950 0.982940 0.510160 -0.587775
O5    O     O_R   0.867700 0.025880 0.612340 -0.630432
O6    O     O_R   0.132300 0.974120 0.387660 -0.658670
O7    O     O_R   0.025880 0.612340 0.867700 -0.633622
O8    O     O_R   0.974120 0.387660 0.132300 -0.640544
O9    O     O_R   0.612340 0.867700 0.025880 -0.629824
O10   O     O_R   0.387660 0.132300 0.974120 -0.633731
O11   O     O_R   0.387660 0.974120 0.132300 -0.657058
O12   O     O_R   0.017060 0.861050 0.489840 -0.597301
O13   O     O_R   0.612340 0.025880 0.867700 -0.673004
O14   O     O_R   0.132300 0.387660 0.974120 -0.652398
O15   O     O_R   0.867700 0.612340 0.025880 -0.664797
O16   O     O_R   0.974120 0.132300 0.387660 -0.653903
O17   O     O_R   0.025880 0.867700 0.612340 -0.664754
O18   O     O_3   0.347508 0.183998 0.598552 -0.530018
O19   O     O_3   0.693744 0.924171 0.298420 -0.549977
O20   O     O_3   0.164272 0.617497 0.328516 -0.567298
O21   O     O_3   0.908863 0.308254 0.695725 -0.577383
O22   O     O_3   0.598120 0.347004 0.172406 -0.605931
O23   O     O_R   0.138950 0.510160 0.982940 -0.543226
O24   O     O_3   0.306616 0.698847 0.903229 -0.545929
O25   O     O_3   0.259728 0.085145 0.623613 -0.532992
O26   O     O_3   0.728012 0.818269 0.446697 -0.580542
O27   O     O_3   0.641918 0.266604 0.046133 -0.611630
O28   O     O_3   0.454722 0.730990 0.806915 -0.580567
O29   O     O_3   0.048849 0.638455 0.258616 -0.560891
O30   O     O_3   0.814265 0.457326 0.725717 -0.583386
O31   O     O_3   0.419573 0.160130 0.728268 -0.575771
O32   O     O_3   0.608707 0.864093 0.237327 -0.552982
O33   O     O_3   0.155725 0.735470 0.412622 -0.618273
O34   O     O_R   0.861050 0.489840 0.017060 -0.593744
O35   O     O_3   0.856448 0.241760 0.606583 -0.572764
O36   O     O_3   0.712570 0.436048 0.167326 -0.608591
O37   O     O_3   0.238575 0.608093 0.859331 -0.557975
O38   O     O_3   0.180860 0.113770 0.499438 -0.561607
O39   O     O_3   0.839015 0.874324 0.490775 -0.618151
O40   O     O_3   0.507179 0.184390 0.105443 -0.554688
O41   O     O_3   0.495324 0.842255 0.867130 -0.617078
O42   O     O_3   0.113606 0.496385 0.182389 -0.564492
O43   O     O_3   0.876223 0.496366 0.835133 -0.614987
O44   O     O_R   0.510160 0.982940 0.138950 -0.541290
O45   O     O_R   0.489840 0.017060 0.861050 -0.580096
O46   O     O_R   0.489840 0.861050 0.017060 -0.615490
O47   O     O_R   0.510160 0.138950 0.982940 -0.582473
O48   O     O_R   0.017060 0.489840 0.861050 -0.609053
Zn1   Zn    Zn3+2 0.004880 0.004880 0.583590 0.986969
Zn2   Zn    Zn3+2 0.995120 0.995120 0.416410 0.909109
Zn3   Zn    Zn3+2 0.004880 0.583590 0.004880 1.016722
Zn4   Zn    Zn3+2 0.995120 0.416410 0.995120 0.940051
Zn5   Zn    Zn3+2 0.583590 0.004880 0.004880 1.026177
Zn6   Zn    Zn3+2 0.416410 0.995120 0.995120 0.940913

loop_
_geom_bond_atom_site_label_1
_geom_bond_atom_site_label_2
_ccdc_geom_bond_type
O4    Zn1   S    
C29   H98   S    
C12   H52   S    
C32   C95   S    
C110  H59   S    
C19   H69   S    
C12   O28   S    
C83   O24   S    
C34   O14   A    
C30   H100  S    
C52   O38   S    
O46   Zn6   S    
C53   C105  A    
C29   H99   S    
C91   C104  A    
C85   C112  A    
C56   O42   S    
C1    C73   A    
C19   H67   S    
C88   C101  A    
C9    H44   S    
C3    C126  S    
C2    O28   S    
C35   C96   S    
C47   O33   S    
C35   O15   A    
C18   H66   S    
C11   H50   S    
C79   C112  A    
C26   H87   S    
O48   Zn4   S    
C84   C97   A    
C105  O26   S    
C35   O34   A    
C52   C85   A    
C43   C99   S    
C82   C115  A    
C87   C117  A    
C38   C101  S    
C44   O6    A    
C2    C55   A    
C59   C66   A    
C19   O31   S    
C54   C87   A    
C23   H82   S    
C126  H23   S    
C43   O3    A    
C57   O43   S    
C17   H62   S    
C101  C109  A    
C15   C16   S    
C15   H56   S    
C24   O30   S    
C3    H27   S    
C34   C97   S    
C48   C81   A    
C8    C9    S    
C120  H7    S    
C90   C113  A    
C121  H11   S    
C55   C88   A    
C25   H85   S    
C13   O29   S    
C118  C119  S    
C40   O10   A    
C85   C98   A    
C24   C67   A    
C37   O45   A    
C32   O1    A    
C9    H43   S    
C59   C112  A    
C27   O39   S    
C103  C107  A    
C63   C69   A    
C60   C67   A    
C24   C57   A    
C5    H33   S    
C49   C72   A    
C54   C116  A    
C125  H20   S    
C119  H92   S    
C31   H5    S    
C102  C108  A    
C53   C86   A    
C55   O41   S    
C120  O19   S    
O14   Zn4   S    
C2    C69   A    
O9    Zn5   S    
C74   C83   A    
C124  H19   S    
C45   C78   A    
C14   H53   S    
C15   O29   S    
C66   C94   A    
C13   C56   A    
C63   C115  A    
C119  H2    S    
C36   C92   S    
C36   O11   A    
C12   H51   S    
C7    H39   S    
C28   H94   S    
C126  O22   S    
C32   O16   A    
C64   C74   A    
C16   H58   S    
C62   C76   A    
C60   C113  A    
C4    O24   S    
C42   O8    A    
C47   C80   A    
C72   C75   A    
C50   O20   S    
C27   H93   S    
C42   C102  S    
C65   C105  A    
C7    H36   S    
C49   O36   S    
C45   O31   S    
C47   C50   A    
C61   C76   A    
C46   O32   S    
C18   H65   S    
C108  H37   S    
C60   C77   A    
C11   H47   S    
C82   C96   A    
C57   C90   A    
C37   C91   S    
C28   H96   S    
C58   C111  A    
C21   H75   S    
O11   Zn6   S    
C37   O13   A    
C33   O17   A    
C122  H12   S    
C43   O5    A    
C94   O25   S    
O15   Zn3   S    
C109  H48   S    
C28   H95   S    
C80   C113  A    
C23   H83   S    
C40   O47   A    
C70   C116  A    
C10   H45   S    
C53   O39   S    
C66   C73   A    
C123  H14   S    
C16   H61   S    
C3    H28   S    
C54   O40   S    
C64   C117  A    
C10   O27   S    
C6    O25   S    
C15   H57   S    
C26   H89   S    
C49   C82   A    
C81   C114  A    
C25   H86   S    
C20   H73   S    
C40   C100  S    
C124  O21   S    
O10   Zn6   S    
C8    H41   S    
C30   H102  S    
C58   C65   A    
C6    H34   S    
C6    H35   S    
C22   O35   S    
O1    Zn1   S    
O34   Zn4   S    
O6    Zn2   S    
C89   C102  A    
O16   Zn2   S    
C17   C18   S    
C36   O44   A    
C69   C74   A    
C121  H9    S    
C52   C94   A    
C86   C99   A    
C14   H54   S    
C20   H72   S    
C79   C92   A    
C34   O23   A    
C41   O48   A    
C8    H40   S    
C95   C108  A    
C20   O32   S    
C39   C46   A    
C39   O19   S    
C107  H26   S    
C42   O2    A    
O7    Zn3   S    
C21   O33   S    
C56   C89   A    
C4    H30   S    
C12   C14   S    
C27   H91   S    
C64   C70   A    
C23   H80   S    
C125  H21   S    
C27   H90   S    
O12   Zn2   S    
O45   Zn6   S    
C21   H74   S    
C5    H32   S    
C50   C77   A    
C51   C83   A    
C14   H55   S    
C118  H70   S    
C120  C121  S    
C61   O21   S    
C106  H15   S    
C122  O20   S    
C87   C100  A    
C96   C109  A    
C92   C106  A    
C68   C77   A    
C29   H97   S    
C78   C111  A    
C89   C114  A    
C18   H64   S    
C119  H6    S    
C86   C111  A    
O3    Zn2   S    
C72   O22   S    
O8    Zn4   S    
C3    H25   S    
C21   H76   S    
C9    H42   S    
C38   O46   A    
O13   Zn5   S    
C4    C5    S    
C125  H22   S    
C33   C93   S    
C122  H13   S    
C25   O37   S    
C118  O18   S    
C62   C114  A    
C6    C7    S    
C22   H78   S    
C78   C91   A    
C31   H4    S    
C41   O7    A    
C7    H38   S    
C48   O35   S    
C5    H31   S    
C98   C106  A    
C62   C68   A    
O2    Zn3   S    
C26   H88   S    
C30   H101  S    
C17   H63   S    
C20   H71   S    
C88   C115  A    
C118  H81   S    
C80   C93   A    
C29   O41   S    
C28   O40   S    
C31   H3    S    
C33   O12   A    
C65   C71   A    
O44   Zn5   S    
C38   O9    A    
C31   O43   S    
C97   C110  A    
C126  H24   S    
C1    C45   A    
C48   C61   A    
C46   C79   A    
C104  H1    S    
C63   C75   A    
C23   O36   S    
C81   C95   A    
C100  C110  A    
C51   O37   S    
C123  H16   S    
C8    O26   S    
C11   H49   S    
C99   C104  A    
C120  H8    S    
O5    Zn1   S    
C121  H10   S    
C44   O4    A    
C25   H84   S    
O47   Zn5   S    
O23   Zn3   S    
C90   C103  A    
C10   C11   S    
C84   C117  A    
C44   C98   S    
C41   C103  S    
C4    H29   S    
C30   O42   S    
C22   H79   S    
C19   H68   S    
C22   H77   S    
C1    O18   S    
C123  H17   S    
C70   C75   A    
C122  C123  S    
C39   C71   A    
C124  H18   S    
C16   H60   S    
C67   C76   A    
O17   Zn1   S    
C17   O30   S    
C10   H46   S    
C51   C84   A    
C116  O27   S    
C93   C107  A    
C58   C73   A    
C59   C71   A    
C124  C125  S    
C26   O38   S    
C13   C68   A    
