data_mof_unit_6432.cif
_audit_creation_date              2012-12-11T15:28:47-0500
_audit_creation_method            fapswitch 2.2
_symmetry_space_group_name_H-M    P1
_symmetry_Int_Tables_number       1
_space_group_crystal_system       triclinic
_cell_length_a                    6.959812
_cell_length_b                    19.590004
_cell_length_c                    23.376847
_cell_angle_alpha                 96.05858
_cell_angle_beta                  91.25378
_cell_angle_gamma                 88.572538
_cell_volume                      3167.88325056

loop_
_atom_site_label
_atom_site_type_symbol
_atom_type_description
_atom_site_fract_x
_atom_site_fract_y
_atom_site_fract_z
_atom_type_partial_charge
O1    O     O_R   0.617180 0.809390 0.808140 -0.521540
O2    O     O_R   0.382820 0.190610 0.191860 -0.521540
O3    O     O_R   0.293300 0.672410 0.795490 -0.535147
O4    O     O_R   0.706700 0.327590 0.204510 -0.535147
O5    O     O_R   0.117220 0.690610 0.691850 -0.521826
O6    O     O_R   0.882780 0.309390 0.308150 -0.521826
C1    C     C_R   0.465175 0.647913 0.805455 0.704299
C2    C     C_R   0.534825 0.352087 0.194545 0.704300
O7    O     O_R   0.287840 0.807750 0.814460 -0.525071
O8    O     O_R   0.712160 0.192250 0.185540 -0.525070
O9    O     O_R   0.111720 0.826910 0.710960 -0.532344
O10   O     O_R   0.888280 0.173090 0.289040 -0.532344
C3    C     C_R   0.456503 0.830744 0.833174 0.716778
C4    C     C_R   0.543497 0.169255 0.166826 0.716777
O11   O     O_R   0.622680 0.673080 0.789040 -0.533115
O12   O     O_R   0.377320 0.326920 0.210960 -0.533115
O13   O     O_3   0.448820 0.756130 0.716020 -0.358919
O14   O     O_3   0.551180 0.243870 0.283980 -0.358919
V1    V     V_3+5 0.176220 0.748860 0.756300 1.413387
V2    V     V_3+5 0.823780 0.251140 0.243700 1.413387
O15   O     O_R   0.781670 0.827580 0.704500 -0.534611
O16   O     O_R   0.218330 0.172420 0.295500 -0.534612
C5    C     C_R   0.947678 0.851888 0.694191 0.697250
C6    C     C_R   0.052322 0.148112 0.305809 0.697251
O17   O     O_R   0.787130 0.692240 0.685530 -0.525686
O18   O     O_R   0.212870 0.307760 0.314470 -0.525686
C7    C     C_R   0.956093 0.669210 0.666812 0.714175
C8    C     C_R   0.043907 0.330790 0.333188 0.714175
V3    V     V_3+5 0.675510 0.751130 0.743690 1.414603
V4    V     V_3+5 0.324490 0.248870 0.256310 1.414604
O19   O     O_3   0.952780 0.743870 0.783980 -0.358392
O20   O     O_3   0.047220 0.256130 0.216020 -0.358392
C9    C     C_1   0.966602 0.617129 0.614771 -0.221845
C10   C     C_1   0.033398 0.382871 0.385229 -0.221845
C11   C     C_1   0.978165 0.573615 0.571952 -0.004206
C12   C     C_1   0.021835 0.426384 0.428048 -0.004207
C13   C     C_1   0.993411 0.521843 0.521328 -0.005209
C14   C     C_1   0.006589 0.478156 0.478672 -0.005209
C15   C     C_R   0.945997 0.914050 0.663549 -0.046326
C16   C     C_R   0.054003 0.085949 0.336451 -0.046326
C17   C     C_R   0.864276 0.034721 0.663490 -0.161804
C18   C     C_R   0.135724 0.965279 0.336510 -0.161804
C19   C     C_R   0.881135 0.976150 0.692241 -0.166542
C20   C     C_R   0.118865 0.023850 0.307758 -0.166542
C21   C     C_R   0.993354 0.910805 0.605069 -0.214888
C22   C     C_R   0.006646 0.089195 0.394931 -0.214888
C23   C     C_R   0.973519 0.969789 0.574179 0.086891
C24   C     C_R   0.026481 0.030211 0.425821 0.086891
C25   C     C_R   0.908274 0.032080 0.604992 0.139441
C26   C     C_R   0.091726 0.967920 0.395008 0.139442
C27   C     C_R   0.013139 0.969168 0.513977 0.057677
C28   C     C_R   0.986861 0.030832 0.486023 0.057677
C29   C     C_R   0.922584 0.091045 0.519248 -0.186756
C30   C     C_R   0.077416 0.908955 0.480752 -0.186756
C31   C     C_R   0.884704 0.091465 0.577324 -0.201546
C32   C     C_R   0.115296 0.908535 0.422676 -0.201546
H1    H     H_    0.834932 0.139053 0.600875 0.123990
H2    H     H_    0.165068 0.860947 0.399125 0.123990
H3    H     H_    0.960081 0.138649 0.415065 0.095181
H4    H     H_    0.039919 0.861351 0.584935 0.095181
H5    H     H_    0.157857 0.020854 0.262923 0.107188
H6    H     H_    0.842143 0.979146 0.737077 0.107188
H7    H     H_    0.813658 0.082217 0.686954 0.112909
H8    H     H_    0.186342 0.917783 0.313046 0.112909
H9    H     H_    0.899216 0.139216 0.501627 0.123790
H10   H     H_    0.100784 0.860784 0.498373 0.123790
C33   C     C_R   0.486787 0.585272 0.835243 -0.080547
C34   C     C_R   0.513213 0.414728 0.164757 -0.080546
C35   C     C_R   0.604306 0.466568 0.832225 0.091533
C36   C     C_R   0.395699 0.533433 0.167775 0.091533
C37   C     C_R   0.561548 0.525904 0.804964 -0.166847
C38   C     C_R   0.438456 0.474096 0.195036 -0.166848
C39   C     C_R   0.453524 0.586690 0.894146 -0.222192
C40   C     C_R   0.546473 0.413310 0.105853 -0.222192
C41   C     C_R   0.498686 0.528898 0.924550 0.069144
C42   C     C_R   0.501312 0.471101 0.075449 0.069144
C43   C     C_R   0.573972 0.468412 0.892608 0.095092
C44   C     C_R   0.426029 0.531588 0.107392 0.095092
C45   C     C_R   0.474708 0.529689 0.985738 0.069690
C46   C     C_R   0.525290 0.470310 0.014261 0.069690
C47   C     C_R   0.597298 0.411827 0.980567 -0.183222
C48   C     C_R   0.402701 0.588172 0.019433 -0.183221
C49   C     C_R   0.620230 0.410924 0.921767 -0.211677
C50   C     C_R   0.379771 0.589076 0.078233 -0.211677
H11   H     H_    0.676983 0.363739 0.899627 0.121251
H12   H     H_    0.323018 0.636261 0.100373 0.121251
H13   H     H_    0.601296 0.365378 0.085050 0.102022
H14   H     H_    0.398698 0.634621 0.914950 0.102022
H15   H     H_    0.412712 0.472606 0.240304 0.099313
H16   H     H_    0.587294 0.527394 0.759696 0.099313
H17   H     H_    0.638861 0.364997 0.998187 0.122080
H18   H     H_    0.361138 0.635003 0.001812 0.122079
C51   C     C_1   0.467216 0.882810 0.885233 -0.218769
C52   C     C_1   0.532784 0.117190 0.114767 -0.218769
C53   C     C_1   0.478650 0.926329 0.928059 -0.002812
C54   C     C_1   0.521350 0.073670 0.071941 -0.002812
C55   C     C_1   0.493568 0.978137 0.978677 -0.004418
C56   C     C_1   0.506432 0.021863 0.021323 -0.004418
C57   C     C_3   0.685725 0.401638 0.798160 -0.373066
C58   C     C_3   0.713294 0.404884 0.733385 -0.308396
C59   C     C_3   0.792970 0.336757 0.704597 -0.767836
H19   H     H_    0.934908 0.324191 0.724006 0.228520
H20   H     H_    0.692214 0.294741 0.709460 0.225820
H21   H     H_    0.811577 0.340621 0.657999 0.219450
H22   H     H_    0.573038 0.416280 0.712333 0.195910
H23   H     H_    0.816272 0.445704 0.726784 0.195695
H24   H     H_    0.828173 0.389166 0.817417 0.178119
H25   H     H_    0.587133 0.358892 0.802989 0.174353
C60   C     C_3   0.314284 0.598363 0.201841 -0.373065
C61   C     C_3   0.286724 0.595117 0.266616 -0.308396
C62   C     C_3   0.207055 0.663246 0.295404 -0.767836
H26   H     H_    0.307812 0.705261 0.290539 0.225819
H27   H     H_    0.065114 0.675812 0.275997 0.228520
H28   H     H_    0.188455 0.659382 0.342002 0.219451
H29   H     H_    0.183745 0.554299 0.273219 0.195695
H30   H     H_    0.426982 0.583720 0.287666 0.195910
H31   H     H_    0.412877 0.641108 0.197010 0.174353
H32   H     H_    0.171835 0.610835 0.182585 0.178118

loop_
_geom_bond_atom_site_label_1
_geom_bond_atom_site_label_2
_ccdc_geom_bond_type
C21   H4    S    
C59   H19   S    
C61   H30   S    
C22   H3    S    
C36   C44   A    
O13   V3    S    
C35   C43   A    
C62   H26   S    
O4    C2    A    
V1    O19   S    
C55   C56   T    
C60   H31   S    
C23   C25   A    
C7    C9    S    
C16   C22   A    
C57   H25   S    
O9    V1    S    
C58   H22   S    
C40   C42   A    
C11   C13   S    
C42   C44   A    
O3    C1    A    
C9    C11   T    
C43   C49   A    
C34   C40   A    
C48   H18   S    
C21   C23   A    
C35   C37   A    
O7    C3    A    
C61   C62   S    
C6    C16   S    
O5    C7    A    
O7    V1    S    
O6    C8    A    
O8    V2    S    
C54   C56   S    
O3    V1    S    
C33   C39   A    
C40   H13   S    
C29   H9    S    
O14   V2    S    
C15   C21   A    
C24   C26   A    
C8    C10   S    
C2    O12   A    
C17   C19   A    
C18   C20   A    
C17   C25   A    
C47   C49   A    
C60   H32   S    
O11   V3    S    
C22   C24   A    
C29   C31   A    
O17   V3    S    
C30   C32   A    
C27   C28   A    
O8    C4    A    
C15   C19   A    
C1    O11   A    
C25   C31   A    
O15   V3    S    
C26   C32   A    
C3    C51   S    
C47   H17   S    
C39   H14   S    
C13   C14   T    
C36   C60   S    
C57   C58   S    
C16   C20   A    
C34   C38   A    
O10   V2    S    
O1    V3    S    
C62   H27   S    
C52   C54   T    
C41   C43   A    
C18   C26   A    
O14   V4    S    
C35   C57   S    
C49   H11   S    
C2    C34   S    
C59   H21   S    
C48   C50   A    
C31   H1    S    
O16   C6    A    
O1    C3    A    
C39   C41   A    
O12   V4    S    
C12   C14   S    
C18   H8    S    
O6    V2    S    
C28   C29   A    
V2    O20   S    
O16   V4    S    
C58   H23   S    
C42   C46   A    
C50   H12   S    
C46   C47   A    
C45   C48   A    
C23   C27   A    
C53   C55   S    
O18   V4    S    
O5    V1    S    
C20   H5    S    
O17   C7    A    
C57   H24   S    
O10   C6    A    
O18   C8    A    
C59   H20   S    
O2    V4    S    
C27   C30   A    
O15   C5    A    
V3    O19   S    
C60   C61   S    
V4    O20   S    
C38   H15   S    
C37   H16   S    
C5    C15   S    
O9    C5    A    
C58   C59   S    
O13   V1    S    
C10   C12   T    
C32   H2    S    
C62   H28   S    
C33   C37   A    
O2    C4    A    
C1    C33   S    
C45   C46   A    
O4    V2    S    
C44   C50   A    
C24   C28   A    
C51   C53   T    
C17   H7    S    
C36   C38   A    
C30   H10   S    
C41   C45   A    
C61   H29   S    
C4    C52   S    
C19   H6    S    
