data_mof_unit_18115.cif
_audit_creation_date              2012-12-10T16:57:46-0500
_audit_creation_method            fapswitch 2.2
_symmetry_space_group_name_H-M    P1
_symmetry_Int_Tables_number       1
_space_group_crystal_system       triclinic
_cell_length_a                    7.808306
_cell_length_b                    8.611121
_cell_length_c                    19.228029
_cell_angle_alpha                 92.07647
_cell_angle_beta                  84.864052
_cell_angle_gamma                 93.275742
_cell_volume                      1284.93506746

loop_
_atom_site_label
_atom_site_type_symbol
_atom_type_description
_atom_site_fract_x
_atom_site_fract_y
_atom_site_fract_z
_atom_type_partial_charge
C1    C     C_R   0.544933 0.794114 0.498348 0.874197
C2    C     C_R   0.455064 0.205889 0.501696 0.869775
C3    C     C_2   0.568834 0.956522 0.500147 0.280467
C4    C     C_2   0.431136 0.043478 0.499968 0.282211
C5    C     C_R   0.500868 0.500618 0.634542 0.952792
C6    C     C_R   0.500264 0.503648 0.365381 0.938298
C7    C     C_R   0.364509 0.569775 0.752312 0.566069
C8    C     C_R   0.665887 0.532038 0.249640 0.558621
C9    C     C_R   0.367386 0.583777 0.824841 -0.040477
C10   C     C_R   0.675334 0.553237 0.178061 -0.089535
C11   C     C_R   0.514361 0.540899 0.855518 -0.168584
C12   C     C_R   0.524080 0.566764 0.145743 -0.135485
C13   C     C_R   0.653453 0.480231 0.814065 0.586495
C14   C     C_R   0.364425 0.562514 0.184626 0.573993
C15   C     C_R   0.648204 0.461358 0.742187 -0.083351
C16   C     C_R   0.353417 0.539723 0.256340 -0.103385
C17   C     C_R   0.504298 0.508949 0.710638 -0.272849
C18   C     C_R   0.505172 0.523030 0.289550 -0.258951
C19   C     C_R   0.530293 0.568378 0.070524 0.404666
C20   C     C_R   0.522549 0.553609 0.930960 0.379286
N1    N     N_R   0.606889 0.447846 0.963321 -0.087159
N2    N     N_R   0.446362 0.674927 0.038541 -0.106010
N3    N     N_R   0.610891 0.455166 0.032057 -0.142481
N4    N     N_R   0.443616 0.668167 0.969590 -0.135082
N5    N     N_2   0.950330 0.457950 0.481240 0.002554
N6    N     N_2   0.049670 0.542050 0.518760 -0.003139
O1    O     O_R   0.389250 0.738570 0.504600 -0.590793
O2    O     O_R   0.610750 0.261430 0.495400 -0.595641
O3    O     O_R   0.678400 0.711620 0.492580 -0.576935
O4    O     O_R   0.321600 0.288380 0.507420 -0.582632
O5    O     O_R   0.355380 0.513500 0.607880 -0.572634
O6    O     O_R   0.644620 0.486500 0.392120 -0.567292
O7    O     O_R   0.644530 0.486550 0.595850 -0.601194
O8    O     O_R   0.355470 0.513450 0.404150 -0.596453
Zn1   Zn    Zn3+2 0.306930 0.517990 0.508030 1.049578
Zn2   Zn    Zn3+2 0.693070 0.482010 0.491970 1.049068
F1    F     F_    0.225254 0.616634 0.722661 -0.674407
F2    F     F_    0.815189 0.520803 0.279497 -0.687523
N7    N     N_3   0.220414 0.637162 0.867820 -0.380322
H1    H     H_    0.160933 0.540896 0.893610 0.238045
H2    H     H_    0.129259 0.679743 0.837880 0.273564
N8    N     N_3   0.839068 0.563075 0.137978 -0.373118
H3    H     H_    0.911767 0.657036 0.158216 0.273618
H4    H     H_    0.901281 0.460968 0.144590 0.271330
F3    F     F_    0.796722 0.440481 0.843108 -0.660398
F4    F     F_    0.218350 0.572626 0.152225 -0.685574
N9    N     N_3   0.788768 0.391697 0.701705 -0.377077
H5    H     H_    0.901871 0.458467 0.709574 0.262182
H6    H     H_    0.801020 0.280648 0.720341 0.233855
N10   N     N_3   0.187648 0.529900 0.294561 -0.366697
H7    H     H_    0.115944 0.437243 0.272768 0.259177
H8    H     H_    0.127198 0.633000 0.288051 0.270908
F5    F     F_    0.733332 0.016350 0.504404 -0.652675
F6    F     F_    0.266614 0.983647 0.495753 -0.651142
N11   N     N_3   0.029431 0.341519 0.440934 -0.287680
H9    H     H_    0.990228 0.348527 0.390713 0.206063
H10   H     H_    0.976758 0.235757 0.460196 0.260097
N12   N     N_3   0.969537 0.655916 0.560381 -0.288641
H11   H     H_    0.001392 0.641336 0.611242 0.215050
H12   H     H_    0.026858 0.762819 0.544479 0.263358

loop_
_geom_bond_atom_site_label_1
_geom_bond_atom_site_label_2
_ccdc_geom_bond_type
C5    O5    A    
C7    C17   A    
C2    C4    S    
N11   H9    S    
C8    C10   A    
C15   C17   A    
C10   N8    S    
C11   C13   A    
C6    O6    A    
N9    H5    S    
C13   C15   A    
C15   N9    S    
C2    O4    A    
C1    O1    A    
O7    Zn2   S    
C1    O3    A    
N10   H7    S    
C7    F1    S    
N9    H6    S    
N5    N11   S    
C13   F3    S    
C3    F5    S    
O3    Zn2   S    
C9    C11   A    
N8    H4    S    
O4    Zn1   S    
C6    C18   S    
O6    Zn2   S    
C12   C19   S    
C16   C18   A    
C16   N10   S    
N2    N4    A    
C5    O7    A    
N11   H10   S    
N1    N3    A    
C10   C12   A    
C14   C16   A    
C11   C20   S    
N12   H11   S    
C5    C17   S    
N8    H3    S    
N5    Zn2   S    
N12   H12   S    
C3    C4    D    
C20   N4    A    
N6    Zn1   S    
N7    H1    S    
C19   N2    A    
C20   N1    A    
O2    Zn2   S    
N7    H2    S    
O8    Zn1   S    
N10   H8    S    
C7    C9    A    
C2    O2    A    
C19   N3    A    
O5    Zn1   S    
C14   F4    S    
O1    Zn1   S    
N5    N6    D    
C4    F6    S    
N6    N12   S    
C9    N7    S    
C8    C18   A    
C6    O8    A    
C12   C14   A    
C1    C3    S    
C8    F2    S    
