data_mof_unit_50179.cif
_audit_creation_date              2013-03-05T15:39:57-0500
_audit_creation_method            fapswitch 2.2
_symmetry_space_group_name_H-M    P1
_symmetry_Int_Tables_number       1
_space_group_crystal_system       triclinic
_cell_length_a                    10.911385
_cell_length_b                    8.68804
_cell_length_c                    7.450897
_cell_angle_alpha                 102.921151
_cell_angle_beta                  94.296314
_cell_angle_gamma                 92.422529
_cell_volume                      685.247463013

loop_
_atom_site_label
_atom_site_type_symbol
_atom_site_description
_atom_site_fract_x
_atom_site_fract_y
_atom_site_fract_z
_atom_type_partial_charge
O1    O     O_R   0.508930 0.286130 0.619780 -0.596855
O2    O     O_R   0.485720 0.256780 0.308360 -0.584735
C1    C     C_R   0.496314 0.199745 0.453290 0.865134
O3    O     O_R   0.333540 0.514670 0.655670 -0.562781
O4    O     O_R   0.310330 0.485320 0.344250 -0.556513
C2    C     C_R   0.265292 0.505651 0.502620 0.804237
Cu1   Cu    Cu3+1 0.513740 0.517380 0.684380 1.034061
Cu2   Cu    Cu3+1 0.486260 0.482620 0.315620 1.025305
O5    O     O_R   0.514280 0.743220 0.691640 -0.578448
O6    O     O_R   0.491070 0.713870 0.380220 -0.580133
O7    O     O_R   0.689670 0.514680 0.655750 -0.552640
O8    O     O_R   0.666460 0.485330 0.344330 -0.569419
C3    C     C_R   0.503783 0.800253 0.546699 0.906906
C4    C     C_R   0.734292 0.500585 0.497764 0.905488
C5    C     C_2   0.927490 0.535167 0.362112 0.347747
C6    C     C_2   0.864873 0.487805 0.490409 -0.351278
H1    H     H_    0.910903 0.429157 0.588929 0.154177
C7    C     C_2   0.056584 0.496098 0.355771 -0.015661
C8    C     C_2   0.136357 0.543167 0.509515 0.135277
C9    C     C_2   0.494646 0.031867 0.426988 -0.314657
H2    H     H_    0.484383 0.960364 0.286249 0.189076
C10   C     C_2   0.505585 0.968117 0.572977 -0.322714
H3    H     H_    0.515868 0.039613 0.713715 0.180099
N1    N     N_2   0.465540 0.456420 0.038510 -0.208631
H4    H     H_    0.403711 0.377899 0.948479 0.237432
N2    N     N_2   0.534460 0.543580 0.961490 -0.202173
H5    H     H_    0.596117 0.622285 0.051531 0.265646
N3    N     N_R   0.874800 0.628255 0.241242 0.147226
O9    O     O_R   0.910838 0.615493 0.076366 -0.317445
O10   O     O_R   0.806997 0.744185 0.306211 -0.352629
N4    N     N_3   0.091264 0.388290 0.193768 -0.551482
H6    H     H_    0.029130 0.289144 0.163425 0.237150
H7    H     H_    0.084467 0.443074 0.082598 0.303475
N5    N     N_R   0.101163 0.647972 0.674506 0.109679
O11   O     O_R   0.140452 0.628941 0.836875 -0.322313
O12   O     O_R   0.042977 0.773655 0.663146 -0.307609

loop_
_geom_bond_atom_site_label_1
_geom_bond_atom_site_label_2
_geom_bond_distance
_ccdc_geom_bond_type
C5    C7    1.464509 S    
N4    H7    1.043195 S    
O4    Cu2   1.947818 S    
N4    H6    1.045607 S    
Cu2   O8    1.960407 S    
N3    O10   1.301815 A    
O2    C1    1.284697 A    
C5    N3    1.443313 S    
C1    C9    1.426691 S    
C9    H2    1.087783 S    
Cu1   O7    1.947818 S    
C2    C8    1.459534 S    
N2    H5    1.028878 S    
Cu1   N2    2.020276 S    
O3    Cu1   1.960406 S    
Cu2   O6    1.955957 S    
N3    O9    1.300468 A    
Cu2   N1    2.020276 S    
C9    C10   1.326568 D    
C3    C10   1.426527 S    
C7    C8    1.359463 D    
N5    O12   1.301718 A    
O4    C2    1.290775 A    
O7    C4    1.290022 A    
C4    C6    1.437985 S    
C5    C6    1.341620 D    
Cu1   Cu2   2.688530 S    
N1    H4    1.029145 S    
O3    C2    1.299611 A    
N5    O11   1.300947 A    
Cu1   O5    1.950470 S    
O5    C3    1.284716 A    
C10   H3    1.087757 S    
C7    N4    1.438843 S    
O1    Cu1   1.955957 S    
O6    C3    1.292365 A    
O2    Cu2   1.950471 S    
N1    N2    1.295815 D    
O8    C4    1.292089 A    
C6    H1    1.088300 S    
O1    C1    1.292429 A    
C8    N5    1.444819 S    
