data_mof_unit_54210.cif
_audit_creation_date              2012-12-10T20:08:46-0500
_audit_creation_method            fapswitch 2.2
_symmetry_space_group_name_H-M    P1
_symmetry_Int_Tables_number       1
_space_group_crystal_system       triclinic
_cell_length_a                    19.218853
_cell_length_b                    18.466483
_cell_length_c                    14.88011
_cell_angle_alpha                 90.2572
_cell_angle_beta                  89.434562
_cell_angle_gamma                 89.35347
_cell_volume                      5280.37056964

loop_
_atom_site_label
_atom_site_type_symbol
_atom_type_description
_atom_site_fract_x
_atom_site_fract_y
_atom_site_fract_z
_atom_type_partial_charge
C1    C     C_R   0.365235 0.500363 0.496275 0.939243
C2    C     C_R   0.634884 0.499444 0.497500 0.943874
C3    C     C_R   0.443227 0.622660 0.049870 0.434827
C4    C     C_R   0.619202 0.431268 0.949149 0.437822
C5    C     C_R   0.749814 0.432457 0.493063 0.331087
C6    C     C_R   0.250058 0.565486 0.491832 0.339082
C7    C     C_R   0.258223 0.438875 0.441484 0.345727
C8    C     C_R   0.744288 0.561578 0.453544 0.358250
C9    C     C_R   0.821031 0.431281 0.469107 0.379682
C10   C     C_R   0.180452 0.567720 0.463891 0.343870
C11   C     C_R   0.185954 0.437991 0.430646 0.337963
C12   C     C_R   0.816253 0.562160 0.443715 0.339984
C13   C     C_R   0.853700 0.496959 0.449890 -0.273612
C14   C     C_R   0.148097 0.502885 0.440273 -0.244224
C15   C     C_R   0.710877 0.498083 0.484001 -0.413961
C16   C     C_R   0.289975 0.501178 0.478454 -0.407907
C17   C     C_R   0.964034 0.480273 0.364995 -0.180679
C18   C     C_R   0.036812 0.518690 0.519592 -0.202202
C19   C     C_R   0.036254 0.483176 0.362030 -0.187374
C20   C     C_R   0.965003 0.518898 0.521446 -0.221164
C21   C     C_R   0.072538 0.501665 0.439776 0.291775
C22   C     C_R   0.928820 0.498543 0.444767 0.265014
C23   C     C_R   0.546566 0.725312 0.552075 0.512950
C24   C     C_R   0.546685 0.273997 0.446465 0.484703
C25   C     C_R   0.454160 0.726053 0.446931 0.489532
C26   C     C_R   0.453789 0.274619 0.553312 0.514679
C27   C     C_R   0.548135 0.801779 0.551271 -0.378015
C28   C     C_R   0.547766 0.197518 0.445563 -0.382570
C29   C     C_R   0.453578 0.802587 0.446464 -0.377578
C30   C     C_R   0.453491 0.198087 0.553268 -0.374427
C31   C     C_R   0.501009 0.841342 0.498730 0.138321
C32   C     C_R   0.500824 0.158810 0.499141 0.142679
C33   C     C_R   0.501108 0.500015 0.326329 0.890365
C34   C     C_R   0.500189 0.500389 0.673628 0.914382
C35   C     C_R   0.500477 0.961810 0.417629 0.305657
C36   C     C_R   0.506197 0.038641 0.580712 0.338858
C37   C     C_R   0.501671 0.962418 0.580993 0.333002
C38   C     C_R   0.497844 0.038280 0.417884 0.306614
C39   C     C_R   0.501745 0.077558 0.499250 -0.204378
C40   C     C_R   0.500849 0.922828 0.499155 -0.204465
C41   C     C_R   0.557693 0.464332 0.811601 -0.326333
C42   C     C_R   0.471572 0.557437 0.186577 -0.321891
C43   C     C_R   0.505191 0.503456 0.769673 -0.051340
C44   C     C_R   0.507306 0.502245 0.230183 -0.109250
C45   C     C_R   0.462478 0.552191 0.817014 0.402351
C46   C     C_R   0.553057 0.455393 0.184122 0.365830
C47   C     C_R   0.475410 0.565457 0.908168 -0.175728
C48   C     C_R   0.565764 0.467062 0.091801 -0.189886
C49   C     C_R   0.523129 0.519423 0.952828 -0.053350
C50   C     C_R   0.523788 0.518677 0.046590 -0.045667
C51   C     C_R   0.567198 0.471302 0.903940 -0.046850
C52   C     C_R   0.479464 0.566845 0.094875 -0.062956
C53   C     C_R   0.441621 0.622340 0.956482 0.388437
C54   C     C_R   0.618771 0.429443 0.042863 0.386207
H1    H     H_    0.589557 0.427849 0.771367 0.151243
H2    H     H_    0.435575 0.591171 0.225065 0.205467
H3    H     H_    0.935624 0.465061 0.305449 0.149636
H4    H     H_    0.064625 0.531724 0.580368 0.130323
H5    H     H_    0.063614 0.471148 0.299773 0.134842
H6    H     H_    0.937543 0.533105 0.583099 0.148253
H7    H     H_    0.586064 0.830133 0.591188 0.184853
H8    H     H_    0.585528 0.168438 0.404210 0.185907
H9    H     H_    0.415832 0.831598 0.406331 0.190683
H10   H     H_    0.416396 0.169401 0.594789 0.178274
N1    N     N_R   0.500000 0.689440 0.500000 -0.126662
N2    N     N_R   0.500000 0.310560 0.500000 -0.133871
O1    O     O_R   0.398180 0.560840 0.499980 -0.544386
O2    O     O_R   0.601820 0.439160 0.500020 -0.547860
O3    O     O_R   0.601820 0.560840 0.500020 -0.548572
O4    O     O_R   0.398180 0.439160 0.499980 -0.544840
O5    O     O_R   0.499980 0.560820 0.367840 -0.618899
O6    O     O_R   0.500020 0.439180 0.632160 -0.610375
O7    O     O_R   0.500020 0.560820 0.632160 -0.567335
O8    O     O_R   0.499980 0.439180 0.367840 -0.557085
Zn1   Zn    Zn3+2 0.500000 0.581210 0.500000 1.048821
Zn2   Zn    Zn3+2 0.500000 0.418790 0.500000 1.057326
O9    O     O_3   0.499196 0.925603 0.336197 -0.621958
C55   C     C_3   0.568180 0.915952 0.304624 0.129456
H11   H     H_    0.595349 0.874326 0.345841 0.134125
H12   H     H_    0.597887 0.967523 0.306957 0.153402
C56   C     C_3   0.566248 0.890143 0.207085 -0.309299
H13   H     H_    0.536094 0.839290 0.203014 0.226648
H14   H     H_    0.539505 0.931754 0.165646 0.231945
C57   C     C_3   0.639417 0.876947 0.169264 -0.977585
H15   H     H_    0.669143 0.928204 0.169057 0.269889
H16   H     H_    0.636074 0.856475 0.099174 0.276048
H17   H     H_    0.667575 0.836120 0.210173 0.268513
O10   O     O_3   0.509923 0.074680 0.662298 -0.625939
C58   C     C_3   0.579163 0.096228 0.678339 0.103423
H18   H     H_    0.576442 0.140948 0.728351 0.172081
H19   H     H_    0.605436 0.118418 0.617414 0.123444
C59   C     C_3   0.622491 0.033885 0.717701 -0.317546
H20   H     H_    0.593880 0.009600 0.775219 0.256293
H21   H     H_    0.631249 0.991441 0.665543 0.224964
C60   C     C_3   0.693118 0.059811 0.749923 -0.983646
H22   H     H_    0.721713 0.086868 0.694427 0.265474
H23   H     H_    0.724510 0.012726 0.772997 0.275625
H24   H     H_    0.686271 0.098108 0.807147 0.273389
O11   O     O_3   0.503788 0.927146 0.662814 -0.629719
C61   C     C_3   0.436546 0.903605 0.687493 0.100085
H25   H     H_    0.443606 0.855415 0.730965 0.169745
H26   H     H_    0.404716 0.886125 0.629125 0.122807
C62   C     C_3   0.397440 0.962192 0.741622 -0.314891
H27   H     H_    0.430208 0.980416 0.798380 0.248771
H28   H     H_    0.386352 0.009413 0.697832 0.231860
C63   C     C_3   0.328703 0.933800 0.778728 -0.972551
H29   H     H_    0.294857 0.915953 0.722916 0.262762
H30   H     H_    0.301301 0.977498 0.816973 0.274339
H31   H     H_    0.338260 0.887502 0.824577 0.281817
O12   O     O_3   0.495483 0.074246 0.336705 -0.621153
C64   C     C_3   0.425300 0.083262 0.311492 0.135358
H32   H     H_    0.400709 0.127485 0.352307 0.134501
H33   H     H_    0.394890 0.032585 0.320522 0.149538
C65   C     C_3   0.423160 0.103676 0.212226 -0.312157
H34   H     H_    0.454411 0.153086 0.201115 0.225449
H35   H     H_    0.446705 0.059008 0.171376 0.231185
C66   C     C_3   0.348771 0.117385 0.181082 -0.974094
H36   H     H_    0.317363 0.067649 0.189044 0.270244
H37   H     H_    0.349317 0.132817 0.109048 0.273769
H38   H     H_    0.324156 0.162084 0.220580 0.262217
O13   O     O_3   0.405666 0.581266 0.773729 -0.823184
H39   H     H_    0.366587 0.584403 0.817578 0.345604
O14   O     O_3   0.581943 0.397965 0.230211 -0.726860
H40   H     H_    0.584112 0.355676 0.189004 0.361920
O15   O     O_3   0.409814 0.680568 0.915099 -0.724030
H41   H     H_    0.434297 0.689477 0.857339 0.352045
O16   O     O_3   0.673670 0.394351 0.083796 -0.710078
H42   H     H_    0.684505 0.420982 0.139818 0.350453
O17   O     O_3   0.409235 0.678708 0.094448 -0.714525
H43   H     H_    0.435562 0.690521 0.149378 0.324622
O18   O     O_3   0.672210 0.394465 0.904665 -0.728064
H44   H     H_    0.684018 0.421247 0.849179 0.313732
O19   O     O_3   0.717367 0.368317 0.515240 -0.572431
C67   C     C_3   0.708798 0.364579 0.609869 0.100927
H45   H     H_    0.669814 0.405033 0.634626 0.132795
H46   H     H_    0.758628 0.375077 0.645033 0.107929
C68   C     C_3   0.683680 0.288752 0.634468 -0.352450
H47   H     H_    0.631304 0.279933 0.605779 0.227919
H48   H     H_    0.719705 0.247271 0.605315 0.212331
C69   C     C_3   0.679979 0.278272 0.735920 -0.920202
H49   H     H_    0.729750 0.293655 0.767743 0.284645
H50   H     H_    0.670249 0.220655 0.751063 0.257008
H51   H     H_    0.636557 0.310949 0.764949 0.285745
O20   O     O_3   0.277888 0.625875 0.532833 -0.575698
C70   C     C_3   0.279966 0.613552 0.626856 0.117786
H52   H     H_    0.325267 0.578671 0.643431 0.196015
H53   H     H_    0.232464 0.585937 0.652586 0.045083
C71   C     C_3   0.285592 0.685219 0.678025 -0.337459
H54   H     H_    0.238387 0.719068 0.667184 0.183958
H55   H     H_    0.288265 0.673844 0.751151 0.204298
C72   C     C_3   0.349668 0.727664 0.650016 -0.721376
H56   H     H_    0.397614 0.694051 0.656354 0.283042
H57   H     H_    0.353814 0.775505 0.694606 0.206202
H58   H     H_    0.344607 0.746587 0.579681 0.265051
O21   O     O_3   0.296831 0.377548 0.419373 -0.585904
C73   C     C_3   0.325583 0.387069 0.332209 0.092607
H59   H     H_    0.359881 0.435182 0.329525 0.129237
H60   H     H_    0.283929 0.394896 0.281629 0.097037
C74   C     C_3   0.368828 0.320167 0.306364 -0.293138
H61   H     H_    0.413927 0.315367 0.352027 0.241495
H62   H     H_    0.336692 0.270921 0.314022 0.201725
C75   C     C_3   0.395207 0.324865 0.209517 -0.931430
H63   H     H_    0.350877 0.322823 0.162280 0.257321
H64   H     H_    0.430988 0.278779 0.194690 0.267307
H65   H     H_    0.423940 0.375897 0.198858 0.274274
O22   O     O_3   0.706948 0.623195 0.430502 -0.570744
C76   C     C_3   0.685360 0.615354 0.340224 0.125024
H66   H     H_    0.653358 0.565924 0.331254 0.129803
H67   H     H_    0.731035 0.610992 0.293990 0.100319
C77   C     C_3   0.641249 0.680884 0.313402 -0.300715
H68   H     H_    0.592255 0.681612 0.353519 0.237073
H69   H     H_    0.669872 0.731521 0.327740 0.213650
C78   C     C_3   0.623720 0.677960 0.213616 -0.973709
H70   H     H_    0.671192 0.687266 0.172348 0.263696
H71   H     H_    0.584471 0.720287 0.197802 0.272721
H72   H     H_    0.602108 0.624513 0.195611 0.277790
O23   O     O_3   0.857445 0.367501 0.448705 -0.612174
C79   C     C_3   0.869837 0.322765 0.524031 0.133855
H73   H     H_    0.900915 0.275532 0.499293 0.159917
H74   H     H_    0.821561 0.299015 0.550286 0.167380
C80   C     C_3   0.912146 0.359319 0.598322 -0.427513
H75   H     H_    0.963724 0.374774 0.570640 0.255505
H76   H     H_    0.884684 0.408639 0.623684 0.204175
C81   C     C_3   0.923256 0.308199 0.677264 -0.928119
H77   H     H_    0.872384 0.292591 0.707073 0.263936
H78   H     H_    0.954195 0.335757 0.729661 0.273467
H79   H     H_    0.951940 0.258678 0.654826 0.266511
O24   O     O_3   0.144280 0.632378 0.449932 -0.616863
C82   C     C_3   0.134687 0.672811 0.529898 0.147526
H80   H     H_    0.176901 0.713096 0.534602 0.193003
H81   H     H_    0.133625 0.638424 0.591185 0.102149
C83   C     C_3   0.065494 0.714128 0.525312 -0.370271
H82   H     H_    0.064826 0.748448 0.464129 0.235015
H83   H     H_    0.022143 0.675063 0.521059 0.239105
C84   C     C_3   0.054110 0.762098 0.608013 -0.960227
H84   H     H_    0.053240 0.728647 0.669868 0.265059
H85   H     H_    0.003496 0.791264 0.602629 0.276512
H86   H     H_    0.096221 0.802583 0.613062 0.262441
O25   O     O_3   0.150705 0.372937 0.425295 -0.604126
C85   C     C_3   0.155181 0.343656 0.337554 0.116682
H87   H     H_    0.202187 0.308372 0.331954 0.177206
H88   H     H_    0.157160 0.386177 0.284542 0.098087
C86   C     C_3   0.091634 0.296490 0.321340 -0.333472
H89   H     H_    0.090098 0.252571 0.372151 0.232607
H90   H     H_    0.043384 0.329735 0.328946 0.239724
C87   C     C_3   0.093721 0.262802 0.227517 -0.964276
H91   H     H_    0.093665 0.305813 0.175562 0.266065
H92   H     H_    0.047157 0.228647 0.218074 0.275769
H93   H     H_    0.141061 0.228295 0.218854 0.264263
O26   O     O_3   0.850166 0.627662 0.434543 -0.600498
C88   C     C_3   0.868439 0.640073 0.343572 0.108187
H94   H     H_    0.830255 0.678977 0.314890 0.156769
H95   H     H_    0.869029 0.590214 0.300771 0.107398
C89   C     C_3   0.940398 0.674442 0.339537 -0.333763
H96   H     H_    0.939278 0.726344 0.377682 0.226043
H97   H     H_    0.979115 0.637762 0.371114 0.246054
C90   C     C_3   0.963220 0.688907 0.242884 -0.943479
H98   H     H_    0.966551 0.637336 0.204267 0.265136
H99   H     H_    0.015344 0.714244 0.242582 0.277257
H100  H     H_    0.925768 0.726263 0.209895 0.261099
O27   O     O_3   0.591443 0.685519 0.604622 -0.709518
H101  H     H_    0.621701 0.719101 0.638183 0.319463
O28   O     O_3   0.592511 0.313144 0.394715 -0.647798
H102  H     H_    0.623081 0.279137 0.360393 0.335811
O29   O     O_3   0.408797 0.686938 0.395078 -0.713220
H103  H     H_    0.379214 0.720991 0.360557 0.324301
O30   O     O_3   0.408202 0.314382 0.606480 -0.706686
H104  H     H_    0.378277 0.280722 0.640816 0.319006

loop_
_geom_bond_atom_site_label_1
_geom_bond_atom_site_label_2
_ccdc_geom_bond_type
C30   C32   A    
C86   H89   S    
C29   H9    S    
C30   H10   S    
C18   C21   A    
C41   C43   A    
C60   H22   S    
C73   C74   S    
C69   H51   S    
O6    Zn2   S    
C70   C71   S    
C67   C68   S    
C70   H52   S    
C60   H24   S    
O14   H40   S    
C76   H67   S    
O9    C55   S    
C36   O10   S    
C90   H100  S    
C5    O19   S    
C12   C13   A    
C86   H90   S    
O8    Zn2   S    
C8    O22   S    
C14   C21   S    
C73   H59   S    
C19   C21   A    
C69   H50   S    
O17   H43   S    
C37   C40   A    
C2    O2    A    
C66   H37   S    
C74   H61   S    
C38   C39   A    
C11   C14   A    
C55   H12   S    
C79   H74   S    
C32   C39   S    
C77   H68   S    
C55   C56   S    
C80   H75   S    
C81   H77   S    
C1    O4    A    
C72   H58   S    
C82   H81   S    
C9    C13   A    
O12   C64   S    
C41   H1    S    
C27   H7    S    
C42   H2    S    
C31   C40   S    
C18   H4    S    
C64   H32   S    
C85   H87   S    
C49   C51   A    
C10   O24   S    
C72   H56   S    
C74   H62   S    
C23   C27   A    
C58   H19   S    
C2    O3    A    
C18   C20   A    
C49   C50   A    
C24   N2    A    
C47   C53   A    
C84   H86   S    
C63   H30   S    
C48   C50   A    
O15   H41   S    
O25   C85   S    
C3    C53   A    
C72   H57   S    
O7    Zn1   S    
C82   H80   S    
C42   C44   A    
C59   H21   S    
C56   H14   S    
C44   C46   A    
C56   H13   S    
C4    O18   S    
C75   H64   S    
C45   C47   A    
C25   C29   A    
C65   C66   S    
C68   C69   S    
C46   C48   A    
O21   C73   S    
C70   H53   S    
C4    C51   A    
C27   C31   A    
C26   N2    A    
C83   C84   S    
C23   O27   S    
C86   C87   S    
C28   C32   A    
C35   C38   A    
C25   N1    A    
C57   H15   S    
O28   H102  S    
C47   C49   A    
C10   C14   A    
C66   H38   S    
C76   H66   S    
C87   H91   S    
C17   C19   A    
C67   H46   S    
C19   H5    S    
C38   O12   S    
C78   H70   S    
C35   O9    S    
C61   C62   S    
O24   C82   S    
C83   H83   S    
C62   C63   S    
C48   C54   A    
C82   C83   S    
C7    C11   A    
C88   H94   S    
C5    C9    A    
O27   H101  S    
C75   H65   S    
C68   H48   S    
C50   C52   A    
O30   H104  S    
C26   O30   S    
C8    C12   A    
N2    Zn2   S    
C61   H26   S    
O29   H103  S    
C74   C75   S    
C7    O21   S    
C64   H33   S    
C1    C16   S    
C71   H54   S    
C58   C59   S    
C2    C15   S    
C43   C45   A    
O13   H39   S    
C78   H71   S    
C53   O15   S    
C76   C77   S    
C7    C16   A    
C88   H95   S    
C20   C22   A    
C26   C30   A    
C8    C15   A    
O4    Zn2   S    
O19   C67   S    
C62   H28   S    
C46   O14   S    
C20   H6    S    
C59   C60   S    
C6    O20   S    
O16   H42   S    
C34   O6    A    
C37   O11   S    
C56   C57   S    
C9    O23   S    
C75   H63   S    
C54   O16   S    
C24   O28   S    
C36   C37   A    
C80   C81   S    
C4    C54   A    
C3    O17   S    
C33   C44   S    
C36   C39   A    
C34   C43   S    
C24   C28   A    
C71   H55   S    
O20   C70   S    
C89   C90   S    
C6    C10   A    
C65   H35   S    
C3    C52   A    
C60   H23   S    
C65   H34   S    
C67   H45   S    
C1    O1    A    
C57   H17   S    
O2    Zn2   S    
C68   H47   S    
C17   C22   A    
N1    Zn1   S    
C81   H79   S    
C63   H31   S    
C45   O13   S    
C83   H82   S    
C23   N1    A    
C73   H60   S    
C35   C40   A    
C90   H98   S    
C12   O26   S    
C29   C31   A    
O11   C61   S    
O5    Zn1   S    
C55   H11   S    
C87   H93   S    
O22   C76   S    
C77   H69   S    
C85   C86   S    
C69   H49   S    
C89   H96   S    
C25   O29   S    
C59   H20   S    
C78   H72   S    
C81   H78   S    
C13   C22   S    
O3    Zn1   S    
C64   C65   S    
C89   H97   S    
O26   C88   S    
C90   H99   S    
C11   O25   S    
C5    C15   A    
C79   C80   S    
C33   O5    A    
C34   O7    A    
C6    C16   A    
C84   H84   S    
C33   O8    A    
C80   H76   S    
C88   C89   S    
O1    Zn1   S    
O10   C58   S    
C85   H88   S    
O23   C79   S    
C63   H29   S    
C42   C52   A    
C62   H27   S    
C57   H16   S    
C61   H25   S    
C58   H18   S    
C66   H36   S    
C87   H92   S    
C41   C51   A    
C71   C72   S    
O18   H44   S    
C17   H3    S    
C79   H73   S    
C84   H85   S    
C77   C78   S    
C28   H8    S    
