data_mof_unit_48632.cif
_audit_creation_date              2012-12-10T18:33:38-0500
_audit_creation_method            fapswitch 2.2
_symmetry_space_group_name_H-M    P1
_symmetry_Int_Tables_number       1
_space_group_crystal_system       triclinic
_cell_length_a                    10.506338
_cell_length_b                    15.015236
_cell_length_c                    15.397472
_cell_angle_alpha                 82.276049
_cell_angle_beta                  89.449675
_cell_angle_gamma                 104.292304
_cell_volume                      2330.17671868

loop_
_atom_site_label
_atom_site_type_symbol
_atom_type_description
_atom_site_fract_x
_atom_site_fract_y
_atom_site_fract_z
_atom_type_partial_charge
C1    C     C_R   0.478101 0.441639 0.662363 0.905892
C2    C     C_R   0.514457 0.558041 0.337972 0.895203
C3    C     C_R   0.455057 0.468463 0.814076 -0.179946
C4    C     C_R   0.432801 0.531921 0.193995 -0.122961
C5    C     C_R   0.405783 0.441330 0.900440 -0.023275
C6    C     C_R   0.442530 0.552198 0.103085 -0.047899
C7    C     C_R   0.364863 0.345180 0.932253 -0.151728
C8    C     C_R   0.491441 0.646766 0.065927 -0.156679
C9    C     C_R   0.408457 0.508783 0.957029 -0.161716
C10   C     C_R   0.407846 0.481169 0.048493 -0.157699
C11   C     C_R   0.384173 0.383938 0.080092 0.411262
C12   C     C_R   0.418904 0.604181 0.924628 0.414340
C13   C     C_R   0.344225 0.317639 0.023155 0.390167
C14   C     C_R   0.469015 0.672653 0.977237 0.438682
C15   C     C_R   0.703104 0.843796 0.634522 0.322979
C16   C     C_R   0.299803 0.155701 0.364734 0.368012
C17   C     C_R   0.670780 0.754041 0.610274 0.587271
C18   C     C_R   0.334174 0.246382 0.386485 0.573390
C19   C     C_R   0.509376 0.793016 0.515196 -0.201394
C20   C     C_R   0.483519 0.205500 0.490400 -0.217046
C21   C     C_R   0.544772 0.886146 0.530779 -0.065085
C22   C     C_R   0.457684 0.114298 0.469344 -0.067042
C23   C     C_R   0.742525 0.501533 0.497790 0.977506
C24   C     C_R   0.257513 0.498581 0.502288 0.977183
C25   C     C_R   0.641786 0.910639 0.592775 -0.007336
C26   C     C_R   0.366704 0.090832 0.403485 -0.023145
C27   C     C_R   0.488112 0.955387 0.486303 0.149027
C28   C     C_R   0.520390 0.046599 0.510221 0.153197
C29   C     C_R   0.616853 0.067751 0.572402 -0.277215
C30   C     C_R   0.404798 0.937401 0.416138 -0.279035
C31   C     C_R   0.678897 0.002083 0.610403 -0.160502
C32   C     C_R   0.347010 0.004115 0.375085 -0.162068
C33   C     C_3   0.945982 0.476268 0.580978 0.488243
C34   C     C_3   0.054258 0.524704 0.419352 0.445493
C35   C     C_3   0.062199 0.561774 0.554305 -0.455394
C36   C     C_3   0.938239 0.439052 0.446133 -0.511204
C37   C     C_3   0.122497 0.498658 0.503016 -0.265124
C38   C     C_3   0.877775 0.502139 0.497272 -0.238526
C39   C     C_3   0.006887 0.414538 0.530963 0.485104
C40   C     C_3   0.993547 0.586473 0.469535 0.508802
C41   C     C_R   0.444648 0.405414 0.754990 -0.152381
C42   C     C_R   0.506081 0.592595 0.245740 -0.142945
C43   C     C_R   0.355627 0.279585 0.872613 0.577763
C44   C     C_R   0.555157 0.713111 0.119605 0.591382
C45   C     C_R   0.391079 0.311015 0.783609 -0.304100
C46   C     C_R   0.568945 0.682994 0.208881 -0.335981
N1    N     N_R   0.574200 0.731700 0.552740 -0.159628
N2    N     N_R   0.425800 0.268300 0.447260 -0.168942
O1    O     O_R   0.462600 0.383110 0.605620 -0.620244
O2    O     O_R   0.537400 0.616890 0.394380 -0.619617
O3    O     O_R   0.510210 0.531900 0.639510 -0.599500
O4    O     O_R   0.489790 0.468100 0.360490 -0.576411
O5    O     O_R   0.662240 0.425610 0.483080 -0.644423
O6    O     O_R   0.337760 0.574390 0.516920 -0.639396
O7    O     O_R   0.709860 0.574400 0.516970 -0.523157
O8    O     O_R   0.290140 0.425600 0.483030 -0.568537
Zn1   Zn    Zn3+2 0.468210 0.400660 0.477370 0.985931
Zn2   Zn    Zn3+2 0.531790 0.599340 0.522630 1.005156
H1    H     H_    0.116891 0.609914 0.597752 0.180682
H2    H     H_    0.883780 0.390648 0.402835 0.174482
H3    H     H_    0.549847 0.229795 0.539731 0.172974
H4    H     H_    0.431975 0.766994 0.472986 0.166588
O9    O     O_3   0.289217 0.317189 0.340001 -0.549842
C47   C     C_3   0.152834 0.303669 0.355497 -0.224678
H5    H     H_    0.130673 0.372539 0.347245 0.210377
H6    H     H_    0.117587 0.269176 0.423065 0.163375
H7    H     H_    0.097508 0.265375 0.305354 0.168888
O10   O     O_3   0.745570 0.691145 0.634177 -0.550274
C48   C     C_3   0.744887 0.667272 0.726010 -0.212715
H8    H     H_    0.743586 0.592646 0.740612 0.182959
H9    H     H_    0.658147 0.677717 0.761562 0.135981
H10   H     H_    0.837204 0.706702 0.751417 0.189217
O11   O     O_3   0.801714 0.867281 0.692694 -0.611618
C49   C     C_3   0.745366 0.869261 0.776266 -0.287529
H11   H     H_    0.800720 0.837386 0.827326 0.196225
H12   H     H_    0.639795 0.830750 0.786816 0.196450
H13   H     H_    0.755771 0.941977 0.787750 0.175918
O12   O     O_3   0.210304 0.134121 0.300550 -0.589711
C50   C     C_3   0.088594 0.080836 0.340778 -0.391315
H14   H     H_    0.011283 0.081685 0.292335 0.185404
H15   H     H_    0.058844 0.109029 0.398907 0.153660
H16   H     H_    0.089981 0.007303 0.360496 0.181438
H17   H     H_    0.649673 0.135363 0.592105 0.128519
H18   H     H_    0.385094 0.873003 0.389232 0.132479
O13   O     O_3   0.874720 0.448200 0.662297 -0.610604
C51   C     C_3   0.963213 0.449090 0.730344 -0.328542
H19   H     H_    0.012424 0.521614 0.738887 0.155601
H20   H     H_    0.037237 0.409546 0.719126 0.192469
H21   H     H_    0.906942 0.415537 0.792439 0.181889
O14   O     O_3   0.125095 0.552117 0.337821 -0.619666
C52   C     C_3   0.036561 0.556939 0.270372 -0.329148
H22   H     H_    0.972776 0.603907 0.281336 0.195506
H23   H     H_    0.975722 0.486645 0.263048 0.151956
H24   H     H_    0.093979 0.585611 0.207654 0.185721
O15   O     O_3   0.027708 0.327819 0.565973 -0.604758
C53   C     C_3   0.907376 0.260038 0.572345 -0.314924
H25   H     H_    0.871588 0.247776 0.506200 0.155948
H26   H     H_    0.831510 0.278877 0.612064 0.194908
H27   H     H_    0.923208 0.193744 0.605842 0.188911
O16   O     O_3   0.973894 0.673852 0.435397 -0.588149
C54   C     C_3   0.095336 0.740804 0.428007 -0.262812
H28   H     H_    0.169663 0.721333 0.387446 0.177526
H29   H     H_    0.133045 0.752706 0.493775 0.172271
H30   H     H_    0.080357 0.807551 0.394951 0.175784
O17   O     O_3   0.309950 0.224622 0.057780 -0.553508
C55   C     C_3   0.177089 0.201043 0.087824 -0.128090
H31   H     H_    0.111708 0.212911 0.033276 0.120490
H32   H     H_    0.161743 0.240018 0.141968 0.177420
H33   H     H_    0.148289 0.126027 0.114043 0.194810
O18   O     O_3   0.498638 0.764948 0.940059 -0.562849
C56   C     C_3   0.388270 0.800646 0.951527 -0.237690
H34   H     H_    0.349245 0.786176 0.020878 0.133368
H35   H     H_    0.309462 0.773157 0.907557 0.170173
H36   H     H_    0.418518 0.877149 0.933306 0.174297
H37   H     H_    0.367808 0.468904 0.226206 0.256544
H38   H     H_    0.504668 0.539573 0.792156 0.208538
H39   H     H_    0.627209 0.729728 0.249482 0.172749
H40   H     H_    0.377743 0.261401 0.737427 0.180724
O19   O     O_3   0.304810 0.185625 0.899900 -0.576432
C57   C     C_3   0.406951 0.139887 0.898268 -0.248937
H41   H     H_    0.491306 0.171842 0.936670 0.157767
H42   H     H_    0.440659 0.138663 0.829874 0.138484
H43   H     H_    0.368604 0.066794 0.929156 0.184670
O20   O     O_3   0.616771 0.803038 0.081721 -0.566125
C58   C     C_3   0.584145 0.868981 0.129466 -0.310308
H44   H     H_    0.649140 0.880459 0.185478 0.161794
H45   H     H_    0.478766 0.849397 0.152632 0.142585
H46   H     H_    0.601217 0.936115 0.085559 0.191497
O21   O     O_3   0.404988 0.350676 0.165460 -0.564506
C59   C     C_3   0.536437 0.344089 0.170487 -0.219812
H47   H     H_    0.607024 0.412769 0.150741 0.133006
H48   H     H_    0.555684 0.292420 0.129914 0.159697
H49   H     H_    0.554010 0.320012 0.239603 0.182345
O22   O     O_3   0.384918 0.633476 0.840749 -0.604769
C60   C     C_3   0.247894 0.601017 0.833685 -0.341481
H50   H     H_    0.191201 0.616394 0.888868 0.138368
H51   H     H_    0.219697 0.525441 0.829680 0.176357
H52   H     H_    0.219540 0.637152 0.772061 0.190665
H53   H     H_    0.756977 0.024275 0.653884 0.175333
H54   H     H_    0.287240 0.987080 0.319887 0.180304

loop_
_geom_bond_atom_site_label_1
_geom_bond_atom_site_label_2
_ccdc_geom_bond_type
C45   H40   S    
C25   C31   A    
C60   H52   S    
C38   C40   S    
C26   C32   A    
C54   H28   S    
C34   C37   S    
O11   C49   S    
C4    H37   S    
O15   C53   S    
C4    C42   A    
N2    Zn1   S    
O13   C51   S    
C40   O16   S    
C33   C39   S    
C49   H12   S    
C34   C40   S    
C28   C29   A    
C35   C37   S    
C29   H17   S    
C3    H38   S    
C51   H20   S    
C18   O9    S    
C15   C25   A    
C55   H31   S    
C19   H4    S    
C24   O6    A    
C53   H27   S    
O1    Zn1   S    
O8    Zn1   S    
C35   H1    S    
C42   C46   A    
C20   H3    S    
C48   H9    S    
C33   O13   S    
O18   C56   S    
C2    O2    A    
C56   H34   S    
C44   C46   A    
O10   C48   S    
C49   H13   S    
C53   H26   S    
C58   H46   S    
C7    C43   A    
C9    C10   A    
C16   O12   S    
C57   H43   S    
C16   C18   A    
C21   C27   A    
C54   H29   S    
C22   C28   A    
C27   C30   A    
C11   O21   S    
C57   H42   S    
C23   O5    A    
C16   C26   A    
C49   H11   S    
O2    Zn2   S    
C47   H7    S    
C8    C44   A    
C60   H50   S    
C4    C6    A    
C10   C11   A    
C52   H22   S    
C5    C7    A    
O5    Zn1   S    
O12   C50   S    
C6    C8    A    
C36   H2    S    
C44   O20   S    
C50   H14   S    
C46   H39   S    
C47   H6    S    
C48   H10   S    
C59   H48   S    
C34   O14   S    
C5    C9    A    
C52   H23   S    
C43   C45   A    
C53   H25   S    
C24   C37   S    
C56   H35   S    
O3    Zn2   S    
C23   O7    A    
C1    O3    A    
C39   O15   S    
C20   N2    A    
C2    O4    A    
C13   O17   S    
C15   O11   S    
C12   C14   A    
C54   H30   S    
C58   H44   S    
O7    Zn2   S    
C59   H49   S    
C31   H53   S    
C57   H41   S    
C50   H15   S    
O21   C59   S    
O6    Zn2   S    
C1    C41   S    
C60   H51   S    
C21   C25   A    
C3    C41   A    
C17   O10   S    
C8    C14   A    
C19   C21   A    
C51   H19   S    
C36   C39   S    
C17   N1    A    
C20   C22   A    
C3    C5    A    
C51   H21   S    
C18   N2    A    
C6    C10   A    
C50   H16   S    
O19   C57   S    
C32   H54   S    
O22   C60   S    
C24   O8    A    
C23   C38   S    
O17   C55   S    
C33   C38   S    
C47   H5    S    
C36   C38   S    
C59   H47   S    
C37   C39   S    
C52   H24   S    
C30   C32   A    
C11   C13   A    
O14   C52   S    
C55   H32   S    
C2    C42   S    
C14   O18   S    
O16   C54   S    
C33   C35   S    
C35   C40   S    
C56   H36   S    
C34   C36   S    
C30   H18   S    
C48   H8    S    
C9    C12   A    
O4    Zn1   S    
O9    C47   S    
C7    C13   A    
C29   C31   A    
C22   C26   A    
C19   N1    A    
C27   C28   A    
C58   H45   S    
C41   C45   A    
C12   O22   S    
C15   C17   A    
C1    O1    A    
C43   O19   S    
O20   C58   S    
N1    Zn2   S    
C55   H33   S    
