data_mof_unit_41306.cif
_audit_creation_date              2012-12-11T14:41:15-0500
_audit_creation_method            fapswitch 2.2
_symmetry_space_group_name_H-M    P1
_symmetry_Int_Tables_number       1
_space_group_crystal_system       triclinic
_cell_length_a                    6.907679
_cell_length_b                    17.756065
_cell_length_c                    19.153527
_cell_angle_alpha                 90.12495
_cell_angle_beta                  90.015484
_cell_angle_gamma                 89.963144
_cell_volume                      2349.23516933

loop_
_atom_site_label
_atom_site_type_symbol
_atom_type_description
_atom_site_fract_x
_atom_site_fract_y
_atom_site_fract_z
_atom_type_partial_charge
O1    O     O_R   0.377350 0.828520 0.186660 -0.543943
O2    O     O_R   0.622650 0.171480 0.813340 -0.541012
O3    O     O_R   0.122650 0.171480 0.686660 -0.543109
O4    O     O_R   0.877350 0.828520 0.313340 -0.538946
O5    O     O_R   0.877350 0.671480 0.313340 -0.540646
O6    O     O_R   0.122650 0.328520 0.686660 -0.545484
O7    O     O_R   0.622650 0.328520 0.813340 -0.539866
O8    O     O_R   0.377350 0.671480 0.186660 -0.542969
O9    O     O_R   0.707090 0.671930 0.178410 -0.523573
O10   O     O_R   0.292910 0.328070 0.821590 -0.545266
O11   O     O_R   0.792910 0.328070 0.678410 -0.518893
O12   O     O_R   0.207090 0.671930 0.321590 -0.545949
O13   O     O_R   0.207090 0.828070 0.321590 -0.544814
O14   O     O_R   0.792910 0.171930 0.678410 -0.522621
O15   O     O_R   0.292910 0.171930 0.821590 -0.546406
O16   O     O_R   0.707090 0.828070 0.178410 -0.522980
C1    C     C_R   0.536982 0.645455 0.161616 0.723547
C2    C     C_R   0.462708 0.353448 0.839366 0.705439
C3    C     C_R   0.963189 0.354346 0.661438 0.734250
C4    C     C_R   0.037364 0.645901 0.338854 0.702045
C5    C     C_R   0.037257 0.853548 0.339281 0.707084
C6    C     C_R   0.963068 0.145458 0.661615 0.725198
C7    C     C_R   0.462788 0.146120 0.839060 0.701629
C8    C     C_R   0.536630 0.854404 0.161451 0.724156
O17   O     O_3   0.543850 0.750000 0.294270 -0.374254
O18   O     O_3   0.456150 0.250000 0.705730 -0.353757
O19   O     O_3   0.956150 0.250000 0.794270 -0.375584
O20   O     O_3   0.043850 0.750000 0.205730 -0.355411
V1    V     V_3+5 0.818700 0.750000 0.241790 1.436106
V2    V     V_3+5 0.181300 0.250000 0.758210 1.395159
V3    V     V_3+5 0.681300 0.250000 0.741790 1.442117
V4    V     V_3+5 0.318700 0.750000 0.258210 1.395422
C9    C     C_R   0.988216 0.415897 0.608930 -0.098842
C10   C     C_R   0.018221 0.583384 0.390731 -0.141378
C11   C     C_R   0.512688 0.583304 0.109608 -0.101818
C12   C     C_R   0.479850 0.415487 0.891627 -0.135650
C13   C     C_R   0.482140 0.084023 0.891305 -0.135344
C14   C     C_R   0.510508 0.915988 0.108964 -0.105540
C15   C     C_R   0.020052 0.915639 0.391518 -0.136221
C16   C     C_R   0.987436 0.083325 0.609592 -0.102841
C17   C     C_R   0.834656 0.472081 0.426775 0.138436
C18   C     C_R   0.202499 0.516762 0.567286 0.129657
C19   C     C_R   0.636329 0.534077 0.923506 0.137900
C20   C     C_R   0.303447 0.479523 0.070195 0.140827
C21   C     C_R   0.294274 0.016523 0.067143 0.130757
C22   C     C_R   0.662404 0.972367 0.927528 0.137179
C23   C     C_R   0.196612 0.979473 0.570137 0.139971
C24   C     C_R   0.863232 0.034229 0.423515 0.138422
C25   C     C_R   0.869056 0.531725 0.380575 -0.196033
C26   C     C_R   0.149187 0.462492 0.616729 -0.224305
C27   C     C_R   0.606490 0.474347 0.876813 -0.201838
C28   C     C_R   0.356573 0.534526 0.119353 -0.219008
C29   C     C_R   0.346600 0.961480 0.116095 -0.213095
C30   C     C_R   0.632632 0.032612 0.881874 -0.198202
C31   C     C_R   0.143807 0.034567 0.619261 -0.218613
C32   C     C_R   0.893463 0.974610 0.376696 -0.201852
C33   C     C_R   0.139668 0.575537 0.449501 0.133201
C34   C     C_R   0.870846 0.423546 0.549703 0.134826
C35   C     C_R   0.379467 0.415247 0.955847 0.136466
C36   C     C_R   0.623026 0.577720 0.048338 0.134684
C37   C     C_R   0.630959 0.925707 0.050759 0.134297
C38   C     C_R   0.358402 0.075717 0.949532 0.128220
C39   C     C_R   0.876662 0.077674 0.548414 0.134051
C40   C     C_R   0.120363 0.915303 0.455771 0.136302
C41   C     C_R   0.093165 0.522017 0.503431 0.041182
C42   C     C_R   0.930101 0.472072 0.493281 -0.021544
C43   C     C_R   0.412137 0.473859 0.006430 0.038518
C44   C     C_R   0.559578 0.529158 0.992664 -0.008663
C45   C     C_R   0.568380 0.972870 0.993981 -0.006360
C46   C     C_R   0.404450 0.022292 0.003645 0.036507
C47   C     C_R   0.940128 0.029200 0.492671 -0.008558
C48   C     C_R   0.087751 0.973885 0.506379 0.038657
H1    H     H_    0.232890 0.455853 0.663874 0.158200
H2    H     H_    0.783382 0.536776 0.333581 0.145426
H3    H     H_    0.277039 0.539943 0.167616 0.151623
H4    H     H_    0.678078 0.474811 0.826512 0.136847
H5    H     H_    0.720789 0.036688 0.835263 0.137216
H6    H     H_    0.260538 0.953857 0.162528 0.159611
H7    H     H_    0.822021 0.975192 0.326355 0.137257
H8    H     H_    0.223672 0.040010 0.667463 0.152313
N1    N     N_3   0.685014 0.387530 0.552247 -0.669863
H9    H     H_    0.575846 0.424561 0.536820 0.236993
H10   H     H_    0.684834 0.337033 0.524390 0.215169
N2    N     N_3   0.307657 0.622547 0.454334 -0.711921
H11   H     H_    0.401405 0.609971 0.413082 0.251051
H12   H     H_    0.266364 0.679063 0.452467 0.231579
N3    N     N_3   0.809762 0.613528 0.048426 -0.672808
H13   H     H_    0.907379 0.586177 0.015355 0.235424
H14   H     H_    0.795589 0.670593 0.036253 0.214847
N4    N     N_3   0.260747 0.351500 0.972172 -0.714041
H15   H     H_    0.144618 0.349201 0.937274 0.245438
H16   H     H_    0.343883 0.302545 0.967641 0.217653
N5    N     N_3   0.188581 0.121892 0.953585 -0.712641
H17   H     H_    0.096824 0.108896 0.911861 0.249256
H18   H     H_    0.227993 0.178611 0.951926 0.232573
N6    N     N_3   0.823614 0.895297 0.055314 -0.668332
H19   H     H_    0.822031 0.838006 0.042748 0.217778
H20   H     H_    0.921706 0.924949 0.024424 0.234705
N7    N     N_3   0.238868 0.851451 0.472126 -0.714036
H21   H     H_    0.354962 0.848997 0.437244 0.245770
H22   H     H_    0.155443 0.802618 0.467623 0.217607
N8    N     N_3   0.689518 0.113255 0.548697 -0.671975
H23   H     H_    0.702954 0.170374 0.536663 0.218180
H24   H     H_    0.592004 0.085883 0.515619 0.235229
C49   C     C_3   0.712029 0.405742 0.401236 -0.352654
C50   C     C_3   0.696037 0.396309 0.321789 -0.782324
H25   H     H_    0.598948 0.439699 0.299075 0.220063
H26   H     H_    0.841306 0.399196 0.297094 0.234168
H27   H     H_    0.632123 0.340399 0.309634 0.219580
H28   H     H_    0.782073 0.352996 0.419188 0.182969
H29   H     H_    0.562881 0.410019 0.422262 0.184023
C51   C     C_3   0.376631 0.567667 0.583420 -0.287244
C52   C     C_3   0.478108 0.557882 0.653973 -0.837782
H30   H     H_    0.375840 0.568539 0.697650 0.230580
H31   H     H_    0.542647 0.500770 0.658475 0.244149
H32   H     H_    0.597709 0.599430 0.658002 0.229739
H33   H     H_    0.490009 0.557901 0.543302 0.212651
H34   H     H_    0.327477 0.627235 0.581863 0.212217
C53   C     C_3   0.733243 0.604800 0.894956 -0.365460
C54   C     C_3   0.653072 0.629442 0.824005 -0.769077
H35   H     H_    0.705773 0.591825 0.781829 0.223813
H36   H     H_    0.492227 0.629727 0.824696 0.234280
H37   H     H_    0.704275 0.687212 0.811906 0.217264
H38   H     H_    0.706510 0.653500 0.929502 0.188494
H39   H     H_    0.891720 0.595315 0.890247 0.176978
C55   C     C_3   0.123903 0.431071 0.084422 -0.289336
C56   C     C_3   0.996891 0.453002 0.146946 -0.816818
H40   H     H_    0.075214 0.443159 0.196757 0.217138
H41   H     H_    0.950700 0.512737 0.143444 0.261466
H42   H     H_    0.864667 0.417429 0.147284 0.229244
H43   H     H_    0.027908 0.433772 0.037899 0.203337
H44   H     H_    0.170379 0.372011 0.093426 0.215117
C57   C     C_3   0.120747 0.067712 0.083358 -0.280146
C58   C     C_3   0.021622 0.058753 0.154406 -0.829600
H45   H     H_    0.954829 0.002126 0.159338 0.250541
H46   H     H_    0.126046 0.068730 0.197564 0.227899
H47   H     H_    0.903955 0.101125 0.158933 0.227874
H48   H     H_    0.170256 0.127188 0.081232 0.209018
H49   H     H_    0.006426 0.057867 0.043600 0.215157
C59   C     C_3   0.780469 0.906118 0.899807 -0.369654
C60   C     C_3   0.713643 0.879483 0.827520 -0.764691
H50   H     H_    0.554808 0.869630 0.827300 0.233256
H51   H     H_    0.751326 0.920982 0.786515 0.222125
H52   H     H_    0.787660 0.825843 0.814119 0.214776
H53   H     H_    0.935923 0.921975 0.897272 0.178873
H54   H     H_    0.764022 0.856095 0.933267 0.187572
C61   C     C_3   0.375921 0.930799 0.584409 -0.288249
C62   C     C_3   0.502993 0.952476 0.646999 -0.819014
H55   H     H_    0.549542 0.012150 0.643580 0.260691
H56   H     H_    0.424747 0.942637 0.696813 0.221361
H57   H     H_    0.635015 0.916728 0.647281 0.227857
H58   H     H_    0.329139 0.871791 0.593358 0.215269
H59   H     H_    0.471980 0.933421 0.537919 0.203406
C63   C     C_3   0.765290 0.104925 0.395200 -0.366049
C64   C     C_3   0.844589 0.129999 0.324284 -0.770073
H60   H     H_    0.005437 0.130316 0.324794 0.234472
H61   H     H_    0.791682 0.092558 0.282012 0.224012
H62   H     H_    0.792942 0.187877 0.312541 0.218992
H63   H     H_    0.606895 0.095248 0.390578 0.177428
H64   H     H_    0.791654 0.153538 0.429872 0.187165

loop_
_geom_bond_atom_site_label_1
_geom_bond_atom_site_label_2
_ccdc_geom_bond_type
C49   H28   S    
C9    C34   A    
O4    C5    A    
C64   H61   S    
O13   V4    S    
C61   C62   S    
C62   H57   S    
O14   V3    S    
N3    H13   S    
C28   H3    S    
C58   H47   S    
C13   C38   A    
C37   N6    S    
O5    C4    A    
C53   H38   S    
C15   C40   A    
C20   C55   S    
C55   C56   S    
C16   C39   A    
C17   C49   S    
C22   C59   S    
O20   V1    S    
N2    H12   S    
C60   H51   S    
C51   H33   S    
C50   H25   S    
C38   C46   A    
C18   C51   S    
C22   C45   A    
C35   C43   A    
C12   C35   A    
C34   C42   A    
C40   N7    S    
N7    H21   S    
C19   C44   A    
N6    H20   S    
C18   C41   A    
C8    C14   S    
O4    V1    S    
C54   H37   S    
O9    V1    S    
C14   C37   A    
C4    C10   S    
C20   C28   A    
O17   V4    S    
O15   C7    A    
C49   H29   S    
O11   V3    S    
C57   H48   S    
O16   C8    A    
O12   V4    S    
O19   V2    S    
O12   C4    A    
N8    H23   S    
C39   N8    S    
C17   C25   A    
C51   C52   S    
N1    H10   S    
C36   N3    S    
C54   H36   S    
N1    H9    S    
O5    V1    S    
O2    C7    A    
O17   V1    S    
C23   C61   S    
O7    V3    S    
O19   V3    S    
C43   C44   A    
O8    V4    S    
O20   V4    S    
N2    H11   S    
C3    C9    S    
C34   N1    S    
C59   H54   S    
C30   H5    S    
C6    C16   S    
C58   H46   S    
C9    C26   A    
C7    C13   S    
O1    V4    S    
O2    V3    S    
C35   N4    S    
O3    V2    S    
C56   H41   S    
C63   H64   S    
O6    C3    A    
C10   C33   A    
O10   V2    S    
N4    H16   S    
C15   C32   A    
C5    C15   S    
C55   H44   S    
O7    C2    A    
O11   C3    A    
N6    H19   S    
C22   C30   A    
C33   N2    S    
O13   C5    A    
N5    H17   S    
C59   C60   S    
N8    H24   S    
C32   H7    S    
C63   C64   S    
C58   H45   S    
C12   C27   A    
C18   C26   A    
C13   C30   A    
C53   H39   S    
O9    C1    A    
N7    H22   S    
C39   C47   A    
C57   H49   S    
N3    H14   S    
C57   C58   S    
C26   H1    S    
C24   C47   A    
C56   H40   S    
C64   H60   S    
C54   H35   S    
O15   V2    S    
C23   C31   A    
C52   H30   S    
C37   C45   A    
C24   C32   A    
C24   C63   S    
C10   C25   A    
O6    V2    S    
C21   C46   A    
C62   H56   S    
C20   C43   A    
C16   C31   A    
C59   H53   S    
C53   C54   S    
C52   H32   S    
O18   V2    S    
C17   C42   A    
C60   H52   S    
C49   C50   S    
C21   C57   S    
O8    C1    A    
O14   C6    A    
C61   H58   S    
O16   V1    S    
C56   H42   S    
C63   H63   S    
C60   H50   S    
C51   H34   S    
C31   H8    S    
C11   C28   A    
C19   C27   A    
N4    H15   S    
C14   C29   A    
C50   H26   S    
C55   H43   S    
O10   C2    A    
C29   H6    S    
C62   H55   S    
C33   C41   A    
C45   C46   A    
C61   H59   S    
C23   C48   A    
C21   C29   A    
O18   V3    S    
C47   C48   A    
C36   C44   A    
O1    C8    A    
N5    H18   S    
C41   C42   A    
C38   N5    S    
C27   H4    S    
C25   H2    S    
C11   C36   A    
O3    C6    A    
C1    C11   S    
C52   H31   S    
C2    C12   S    
C40   C48   A    
C19   C53   S    
C64   H62   S    
C50   H27   S    
