data_mof_unit_57215.cif
_audit_creation_date              2012-12-10T17:53:20-0500
_audit_creation_method            fapswitch 2.2
_symmetry_space_group_name_H-M    P1
_symmetry_Int_Tables_number       1
_space_group_crystal_system       triclinic
_cell_length_a                    23.424411
_cell_length_b                    10.720016
_cell_length_c                    9.871788
_cell_angle_alpha                 89.184315
_cell_angle_beta                  89.949773
_cell_angle_gamma                 91.830797
_cell_volume                      2477.38661135

loop_
_atom_site_label
_atom_site_type_symbol
_atom_type_description
_atom_site_fract_x
_atom_site_fract_y
_atom_site_fract_z
_atom_type_partial_charge
C1    C     C_R   0.503350 0.259752 0.502057 0.875372
C2    C     C_R   0.964677 0.268342 0.501354 -0.271827
C3    C     C_R   0.024213 0.263807 0.504582 0.528105
C4    C     C_R   0.057432 0.376401 0.501748 -0.113753
C5    C     C_R   0.029993 0.492275 0.500440 -0.088004
C6    C     C_R   0.062508 0.605101 0.500112 -0.055078
C7    C     C_R   0.035297 0.719520 0.499158 -0.272354
C8    C     C_R   0.975778 0.724064 0.495697 0.528200
C9    C     C_R   0.117447 0.377748 0.501500 0.524973
C10   C     C_R   0.121934 0.600888 0.500811 0.532397
C11   C     C_R   0.237827 0.493245 0.623763 -0.107679
C12   C     C_R   0.389316 0.498812 0.500121 0.851613
C13   C     C_R   0.297101 0.496675 0.623682 -0.220556
C14   C     C_R   0.327046 0.494898 0.500429 -0.036930
C15   C     C_R   0.296984 0.488300 0.377568 -0.217564
C16   C     C_R   0.237707 0.484744 0.378123 -0.102610
C17   C     C_R   0.208332 0.487696 0.501075 0.318001
C18   C     C_R   0.762158 0.495346 0.622477 -0.100254
C19   C     C_R   0.702906 0.495533 0.622842 -0.211132
C20   C     C_R   0.672977 0.500838 0.499773 -0.045192
C21   C     C_R   0.703061 0.506422 0.376579 -0.208123
C22   C     C_R   0.762319 0.506384 0.376674 -0.107307
C23   C     C_R   0.493988 0.738789 0.499611 0.893511
C24   C     C_R   0.791657 0.500657 0.499506 0.317261
C25   C     C_R   0.508083 0.106623 0.762697 -0.160631
C26   C     C_R   0.488602 0.042906 0.878835 -0.144850
C27   C     C_R   0.458738 0.929618 0.867017 -0.152936
C28   C     C_R   0.453565 0.874462 0.740552 -0.145413
C29   C     C_R   0.478166 0.933264 0.623886 0.099196
C30   C     C_R   0.497483 0.057549 0.631800 0.097265
C31   C     C_R   0.505165 0.125673 0.507829 -0.119453
C32   C     C_R   0.505465 0.064424 0.383754 -0.212677
C33   C     C_R   0.498206 0.937482 0.380589 -0.209181
C34   C     C_R   0.610694 0.500452 0.499910 0.884399
C35   C     C_R   0.486414 0.871096 0.500353 -0.128055
C36   C     C_R   0.424329 0.337144 0.142863 -0.176781
C37   C     C_R   0.386880 0.257667 0.073506 -0.210660
C38   C     C_R   0.386814 0.258082 0.933339 -0.180675
C39   C     C_R   0.424348 0.337651 0.861810 -0.169198
C40   C     C_R   0.462702 0.419851 0.928770 0.150008
C41   C     C_R   0.462710 0.419767 0.073622 0.170166
C42   C     C_R   0.535523 0.577038 0.070361 -0.127672
C43   C     C_R   0.535507 0.577004 0.926964 -0.119246
C44   C     C_R   0.882570 0.610167 0.498675 0.526030
C45   C     C_R   0.878013 0.387025 0.499891 0.532569
C46   C     C_R   0.937457 0.382761 0.500445 -0.055283
C47   C     C_R   0.969985 0.495576 0.499953 -0.087898
C48   C     C_R   0.942565 0.611467 0.498502 -0.114363
H1    H     H_    0.939886 0.181381 0.499583 0.203982
H2    H     H_    0.680658 0.491149 0.719101 0.161008
H3    H     H_    0.680935 0.510809 0.280421 0.160718
H4    H     H_    0.785523 0.510455 0.281700 0.132037
H5    H     H_    0.512189 0.114258 0.288473 0.171883
H6    H     H_    0.495762 0.082774 0.977793 0.146067
H7    H     H_    0.441334 0.882409 0.956262 0.142001
H8    H     H_    0.430217 0.785953 0.734998 0.160659
H9    H     H_    0.503040 0.891389 0.284434 0.169435
H10   H     H_    0.564486 0.639878 0.123453 0.147991
H11   H     H_    0.421779 0.330814 0.250277 0.209849
H12   H     H_    0.357845 0.195133 0.129052 0.164263
H13   H     H_    0.357900 0.195542 0.879507 0.165057
H14   H     H_    0.422463 0.330850 0.754525 0.211564
H15   H     H_    0.564440 0.639867 0.871751 0.156363
H16   H     H_    0.060088 0.806477 0.501046 0.203606
H17   H     H_    0.319345 0.501257 0.719723 0.164735
H18   H     H_    0.319134 0.486169 0.281307 0.165733
H19   H     H_    0.214516 0.480676 0.283355 0.134488
H20   H     H_    0.785236 0.490851 0.717340 0.133807
N1    N     N_R   0.852266 0.499279 0.499354 -0.367933
N2    N     N_R   0.147717 0.488673 0.501135 -0.367606
N3    N     N_R   0.499460 0.498800 0.142780 -0.121348
N4    N     N_R   0.499440 0.498720 0.857170 -0.127056
O1    O     O_R   0.500000 0.316780 0.614690 -0.653301
O2    O     O_2   0.845942 0.280093 0.500090 -0.548910
O3    O     O_2   0.145702 0.270021 0.501890 -0.495363
O4    O     O_2   0.153970 0.707877 0.500703 -0.551153
O5    O     O_R   0.500000 0.316750 0.385360 -0.637693
O6    O     O_R   0.416160 0.499970 0.614690 -0.647065
O7    O     O_R   0.416150 0.499950 0.385360 -0.638645
O8    O     O_R   0.500000 0.683250 0.614640 -0.622099
O9    O     O_R   0.500000 0.683220 0.385310 -0.617652
O10   O     O_R   0.583850 0.500050 0.614640 -0.619551
O11   O     O_R   0.583840 0.500030 0.385310 -0.617042
O12   O     O_2   0.854346 0.717947 0.498168 -0.491517
Zn1   Zn    Zn3+2 0.500000 0.500020 0.653130 0.927127
Zn2   Zn    Zn3+2 0.500000 0.499980 0.346870 0.937980
H21   H     H_    0.533104 0.191336 0.778708 0.173138
O13   O     O_3   0.049627 0.149095 0.501344 -0.572537
C49   C     C_3   0.043987 0.090993 0.630000 -0.209577
H22   H     H_    0.060572 0.152630 0.711968 0.153125
H23   H     H_    0.069765 0.006018 0.631371 0.202453
H24   H     H_    0.998897 0.061120 0.650719 0.171422
O14   O     O_3   0.950361 0.838780 0.498857 -0.571916
C50   C     C_3   0.956226 0.897087 0.370351 -0.208187
H25   H     H_    0.930338 0.981896 0.368768 0.203155
H26   H     H_    0.939914 0.835488 0.288063 0.152893
H27   H     H_    0.001330 0.927263 0.350285 0.171182
H28   H     H_    0.214729 0.495733 0.718711 0.132696

loop_
_geom_bond_atom_site_label_1
_geom_bond_atom_site_label_2
_ccdc_geom_bond_type
O14   C50   S    
C1    O5    A    
C19   C20   A    
C25   H21   S    
C36   H11   S    
C42   H10   S    
N4    Zn1   S    
C28   H8    S    
C43   H15   S    
C7    C8    A    
C13   H17   S    
C45   C46   A    
C2    C46   A    
C5    C47   A    
C26   C27   A    
C29   C30   A    
C11   H28   S    
C18   C24   A    
C5    C6    A    
C36   C37   A    
C37   C38   A    
C30   C31   A    
C27   H7    S    
C18   H20   S    
C15   C16   A    
C12   O7    A    
C1    C31   S    
C18   C19   A    
C10   O4    S    
C11   C17   A    
C47   C48   A    
C16   C17   A    
C12   O6    A    
C23   O8    A    
C49   H23   S    
C23   O9    A    
O9    Zn2   S    
C41   N3    A    
C38   H13   S    
C20   C34   S    
C43   N4    A    
C17   N2    S    
C21   C22   A    
C36   C41   A    
C26   H6    S    
C24   N1    S    
C45   N1    A    
C9    N2    A    
C39   C40   A    
C50   H27   S    
C25   C26   A    
C15   H18   S    
C45   O2    S    
C8    C48   A    
O8    Zn1   S    
C2    H1    S    
N3    Zn2   S    
C31   C32   A    
C44   N1    A    
C16   H19   S    
O13   C49   S    
C49   H24   S    
C50   H26   S    
O1    Zn1   S    
C10   N2    A    
O6    Zn1   S    
C40   C41   A    
C12   C14   S    
O5    Zn2   S    
C23   C35   S    
C22   C24   A    
C34   O11   A    
C3    C4    A    
C32   H5    S    
C21   H3    S    
C22   H4    S    
C25   C30   A    
C39   H14   S    
C46   C47   A    
C28   C29   A    
C33   H9    S    
C40   N4    A    
C3    O13   S    
C8    O14   S    
C4    C5    A    
C44   O12   S    
C6    C10   A    
C6    C7    A    
O10   Zn1   S    
C9    O3    S    
C29   C35   A    
C1    O1    A    
C32   C33   A    
C2    C3    A    
C4    C9    A    
C11   C13   A    
C19   H2    S    
C38   C39   A    
C42   N3    A    
C33   C35   A    
C50   H25   S    
C7    H16   S    
C37   H12   S    
O11   Zn2   S    
C20   C21   A    
C42   C43   A    
C27   C28   A    
C14   C15   A    
C34   O10   A    
C49   H22   S    
C13   C14   A    
O7    Zn2   S    
C44   C48   A    
