data_mof_unit_53304.cif
_audit_creation_date              2012-12-11T16:08:35-0500
_audit_creation_method            fapswitch 2.2
_symmetry_space_group_name_H-M    P1
_symmetry_Int_Tables_number       1
_space_group_crystal_system       triclinic
_cell_length_a                    12.921337
_cell_length_b                    13.284064
_cell_length_c                    27.784234
_cell_angle_alpha                 94.387623
_cell_angle_beta                  90.069311
_cell_angle_gamma                 119.006496
_cell_volume                      4154.65229117

loop_
_atom_site_label
_atom_site_type_symbol
_atom_type_description
_atom_site_fract_x
_atom_site_fract_y
_atom_site_fract_z
_atom_type_partial_charge
C1    C     C_R   0.628796 0.896534 0.427162 0.560707
C2    C     C_R   0.627366 0.236090 0.218929 0.277690
C3    C     C_R   0.615438 0.218750 0.268328 0.172269
C4    C     C_R   0.665349 0.314465 0.303261 0.010270
C5    C     C_R   0.688521 0.348912 0.204518 0.025329
C6    C     C_1   0.695695 0.368367 0.153943 0.127776
C7    C     C_1   0.651030 0.295074 0.353808 0.107042
C8    C     C_1   0.703462 0.394207 0.112963 0.112408
C9    C     C_R   0.156761 0.746807 0.353121 0.237119
C10   C     C_R   0.150480 0.738342 0.302007 0.006027
C11   C     C_R   0.145014 0.731381 0.199968 -0.006143
C12   C     C_R   0.601296 0.222505 0.440633 0.556320
C13   C     C_R   0.126445 0.633235 0.223135 0.226701
C14   C     C_R   0.136433 0.638965 0.273507 0.279801
C15   C     C_R   0.151288 0.732745 0.149719 0.232255
C16   C     C_R   0.132034 0.812258 0.126533 0.014109
C17   C     C_R   0.198248 0.946139 0.356890 0.205982
C18   C     C_R   0.177958 0.935202 0.306470 0.005233
C19   C     C_R   0.160942 0.834326 0.278636 -0.033156
C20   C     C_R   0.179250 0.025568 0.283237 -0.016540
C21   C     C_R   0.168975 0.021241 0.233304 0.260275
C22   C     C_R   0.160543 0.924844 0.203957 0.037953
C23   C     C_R   0.267528 0.876647 0.425801 0.586970
C24   C     C_R   0.154590 0.829921 0.227511 -0.040794
C25   C     C_R   0.152029 0.915568 0.152472 0.158235
C26   C     C_R   0.200628 0.855255 0.379213 0.023419
C27   C     C_R   0.750946 0.945764 0.354726 0.259474
C28   C     C_R   0.742501 0.943528 0.304191 0.006508
C29   C     C_R   0.731407 0.928219 0.201899 0.012398
C30   C     C_R   0.804704 0.035889 0.229120 0.293949
C31   C     C_R   0.807972 0.043442 0.279780 0.214904
C32   C     C_R   0.727747 0.914629 0.150736 0.256301
C33   C     C_R   0.671775 0.803679 0.126705 0.011138
C34   C     C_R   0.626640 0.899071 0.565222 0.548774
C35   C     C_R   0.573128 0.760859 0.352768 -0.102906
C36   C     C_R   0.582774 0.743493 0.302833 0.007091
C37   C     C_R   0.662331 0.838438 0.277841 -0.030081
C38   C     C_R   0.514164 0.634512 0.277616 0.276927
C39   C     C_R   0.522617 0.620262 0.227471 0.245853
C40   C     C_R   0.587751 0.718600 0.201182 -0.003368
C41   C     C_R   0.661057 0.828367 0.226924 -0.066267
C42   C     C_R   0.587022 0.710532 0.150218 0.148668
C43   C     C_R   0.655000 0.863544 0.378698 0.006327
C44   C     C_R   0.748691 0.326120 0.648379 0.219744
C45   C     C_R   0.601166 0.224264 0.578767 0.583197
C46   C     C_R   0.763964 0.343160 0.699450 0.024671
C47   C     C_R   0.773879 0.363095 0.801834 -0.018032
C48   C     C_R   0.864810 0.358304 0.776048 -0.024253
C49   C     C_R   0.863374 0.352722 0.725658 0.279493
C50   C     C_R   0.775300 0.370067 0.852644 0.117604
C51   C     C_R   0.696998 0.401267 0.876448 0.003655
C52   C     C_R   0.539852 0.270007 0.656561 0.151586
C53   C     C_R   0.566140 0.326814 0.701934 -0.030024
C54   C     C_R   0.670736 0.345333 0.725863 -0.084615
C55   C     C_R   0.480201 0.343735 0.726433 0.289529
C56   C     C_R   0.270534 0.878575 0.563134 0.562246
C57   C     C_R   0.486438 0.356442 0.776222 0.308476
C58   C     C_R   0.589287 0.372618 0.801032 -0.016266
C59   C     C_R   0.678702 0.361284 0.776226 -0.059776
C60   C     C_R   0.611603 0.413187 0.849114 0.221918
C61   C     C_R   0.632812 0.278645 0.627830 -0.002031
C62   C     C_1   0.214948 0.857521 0.608823 0.082712
C63   C     C_R   0.162422 0.743108 0.721974 -0.112116
C64   C     C_R   0.150550 0.735672 0.771807 0.174276
C65   C     C_R   0.119949 0.902443 0.777877 -0.090720
C66   C     C_R   0.129908 0.908788 0.727858 0.265591
C67   C     C_1   0.632939 0.269212 0.394790 0.104701
C68   C     C_R   0.153357 0.829914 0.699766 -0.001464
C69   C     C_R   0.132065 0.817365 0.800137 -0.013830
C70   C     C_1   0.117070 0.809342 0.851389 0.024864
C71   C     C_1   0.180963 0.843405 0.649497 0.054519
C72   C     C_1   0.096442 0.795157 0.893397 0.060175
C73   C     C_1   0.639904 0.868265 0.612243 0.061691
C74   C     C_R   0.747894 0.927482 0.734683 0.267348
C75   C     C_R   0.750433 0.918334 0.784780 0.145790
C76   C     C_R   0.560507 0.741223 0.775299 0.233024
C77   C     C_R   0.559773 0.749693 0.725495 -0.123366
C78   C     C_R   0.726339 0.427382 0.288874 0.209502
C79   C     C_R   0.653437 0.841454 0.704966 -0.042267
C80   C     C_R   0.656621 0.824506 0.805191 -0.006880
C81   C     C_1   0.665308 0.808952 0.855715 0.094679
C82   C     C_1   0.646969 0.852034 0.653919 0.034419
C83   C     C_1   0.682140 0.795188 0.896861 0.110353
C84   C     C_R   0.067025 0.773287 0.078858 0.576497
C85   C     C_R   0.716731 0.440591 0.067121 0.557429
C86   C     C_R   0.718176 0.782346 0.080599 0.576416
C87   C     C_R   0.055885 0.765933 0.940981 0.552345
C88   C     C_R   0.712917 0.440512 0.927762 0.581433
C89   C     C_R   0.738058 0.444682 0.239427 0.166700
C90   C     C_R   0.716120 0.777123 0.943297 0.563753
Cr1   Cr    Cr6+3 0.416430 0.829200 0.492370 1.123270
Cr2   Cr    Cr6+3 0.674630 0.087020 0.504170 1.188908
Cr3   Cr    Cr6+3 0.408920 0.083740 0.503490 1.181773
Cr4   Cr    Cr6+3 0.914010 0.832750 0.013970 1.158421
Cr5   Cr    Cr6+3 0.922310 0.578600 0.003000 1.174894
Cr6   Cr    Cr6+3 0.656280 0.574630 0.003870 1.180009
H1    H     H_    0.187769 0.101941 0.303733 0.237212
H2    H     H_    0.502206 0.695653 0.371789 0.204984
H3    H     H_    0.939757 0.361293 0.794779 0.239439
H4    H     H_    0.180278 0.681858 0.700648 0.186136
H5    H     H_    0.102306 0.963653 0.799347 0.199833
H6    H     H_    0.485256 0.685090 0.702808 0.191161
O1    O     O_R   0.296680 0.802170 0.437540 -0.455981
O2    O     O_R   0.662610 0.183990 0.557860 -0.454638
O3    O     O_R   0.500730 0.201280 0.562180 -0.463906
O4    O     O_R   0.312500 0.978850 0.548170 -0.456392
O5    O     O_3   0.499990 0.999990 0.500010 -0.316929
O6    O     O_R   0.820790 0.857990 0.068830 -0.445271
O7    O     O_R   0.016700 0.827330 0.062850 -0.473915
O8    O     O_R   0.041970 0.673520 0.060040 -0.445638
O9    O     O_R   0.817980 0.483660 0.048840 -0.479268
O10   O     O_R   0.637200 0.461990 0.052510 -0.469686
O11   O     O_R   0.664790 0.681920 0.057970 -0.474288
O12   O     O_R   0.525380 0.838530 0.443500 -0.507238
O13   O     O_R   0.815840 0.852920 0.961840 -0.486356
O14   O     O_R   0.012100 0.822630 0.963670 -0.494084
O15   O     O_R   0.037010 0.668460 0.953040 -0.461185
O16   O     O_R   0.813390 0.478970 0.949660 -0.469113
O17   O     O_R   0.632250 0.456930 0.945520 -0.444388
O18   O     O_R   0.660200 0.677230 0.958780 -0.449248
O19   O     O_3   0.830870 0.661990 0.006950 -0.321931
O20   O     O_R   0.702130 0.995190 0.446810 -0.438374
O21   O     O_R   0.661770 0.181390 0.458760 -0.477845
O22   O     O_R   0.499820 0.198480 0.455280 -0.463301
O23   O     O_R   0.311660 0.976250 0.449080 -0.450332
O24   O     O_R   0.297580 0.804960 0.544440 -0.492933
O25   O     O_R   0.526220 0.841130 0.542590 -0.503429
O26   O     O_R   0.703030 0.997990 0.553710 -0.453062
Br1   Br    Br    0.790470 0.558001 0.336784 -0.328328
Cl1   Cl    Cl    0.158243 0.138228 0.212697 -0.336288
Cl2   Cl    Cl    0.217650 0.072521 0.391784 -0.446626
Cl3   Cl    Cl    0.769669 0.029839 0.113430 -0.366315
Cl4   Cl    Cl    0.889389 0.029693 0.386803 -0.397910
Cl5   Cl    Cl    0.904219 0.163304 0.202692 -0.291034
Br2   Br    Br    0.883688 0.196369 0.314282 -0.202037
Br3   Br    Br    0.451252 0.594485 0.111120 -0.220046
Br4   Br    Br    0.465921 0.463307 0.199518 -0.228998
Cl6   Cl    Cl    0.424978 0.512237 0.309311 -0.399682
Br5   Br    Br    0.818923 0.599785 0.219445 -0.494250
Br6   Br    Br    0.883384 0.338220 0.888451 -0.321358
Cl7   Cl    Cl    0.868615 0.367047 0.609586 -0.431532
Cl8   Cl    Cl    0.984275 0.345841 0.699442 -0.309672
Cl9   Cl    Cl    0.562518 0.513574 0.868044 -0.455690
Cl10  Cl    Cl    0.354780 0.327946 0.806059 -0.287628
Cl11  Cl    Cl    0.370860 0.361215 0.695206 -0.325408
Br7   Br    Br    0.379167 0.142483 0.645662 -0.333257
Cl12  Cl    Cl    0.563306 0.116386 0.175035 -0.431812
Br8   Br    Br    0.158748 0.612141 0.799816 -0.318833
Cl13  Cl    Cl    0.112494 0.016323 0.701720 -0.352641
Cl14  Cl    Cl    0.861663 0.047807 0.709190 -0.362666
Br9   Br    Br    0.882698 0.033802 0.825155 -0.318378
Cl15  Cl    Cl    0.438874 0.625334 0.798971 -0.366662
Br10  Br    Br    0.527725 0.063697 0.287982 -0.472926
Cl16  Cl    Cl    0.215135 0.659380 0.116198 -0.396591
Cl17  Cl    Cl    0.089015 0.623889 0.386683 -0.381486
Br11  Br    Br    0.061776 0.481548 0.188272 -0.151316
Cl18  Cl    Cl    0.149271 0.525902 0.297963 -0.304075
Br12  Br    Br    0.194141 0.044818 0.114161 -0.231509

loop_
_geom_bond_atom_site_label_1
_geom_bond_atom_site_label_2
_ccdc_geom_bond_type
C66   C68   A    
C39   Br4   S    
Cr1   O24   S    
C17   Cl2   S    
C34   O25   A    
Cr6   O17   S    
C35   C36   A    
Cr3   O22   S    
C65   H5    S    
C85   O10   A    
C53   C54   A    
Cr5   O15   S    
Cr6   O10   S    
C46   C49   A    
Cr4   O6    S    
C29   C30   A    
Cr1   O25   S    
Cr6   O19   S    
C86   O11   A    
C5    C6    S    
C33   C42   A    
C36   C37   A    
C78   Br1   S    
C87   O15   A    
C29   C32   A    
C52   C61   A    
C60   Cl9   S    
C38   C39   A    
C50   Br6   S    
C55   Cl11  S    
C76   Cl15  S    
C58   C60   A    
C15   C16   A    
C11   C24   A    
C16   C84   S    
C42   Br3   S    
C8    C85   S    
C23   C26   S    
C48   H3    S    
C3    Br10  S    
C1    O20   A    
C15   Cl16  S    
Cr3   O3    S    
C11   C15   A    
C1    C43   S    
C23   O1    A    
C20   H1    S    
C44   C46   A    
C44   Cl7   S    
C30   Cl5   S    
C22   C25   A    
C56   O24   A    
C35   H2    S    
C35   C43   A    
C75   C80   A    
C18   C20   A    
C23   O23   A    
Cr5   O19   S    
C40   C42   A    
Cr5   O16   S    
C21   C22   A    
C64   Br8   S    
C77   H6    S    
C4    C7    S    
Cr2   O26   S    
C81   C83   T    
C45   O3    A    
C9    C26   A    
C50   C51   A    
C47   C50   A    
C54   C59   A    
C53   C55   A    
C78   C89   A    
C12   C67   S    
C74   C75   A    
C14   Cl18  S    
C27   Cl4   S    
Cr1   O5    S    
C76   C77   A    
C66   Cl13  S    
C31   Br2   S    
C10   C14   A    
Cr2   O21   S    
C75   Br9   S    
C39   C40   A    
Cr4   O14   S    
C18   C19   A    
C6    C8    T    
C89   Br5   S    
C2    Cl12  S    
C90   O13   A    
C47   C59   A    
C84   O8    A    
C90   O18   A    
C33   C86   S    
C13   Br11  S    
C4    C78   A    
C63   H4    S    
C45   O2    A    
Cr2   O20   S    
Cr3   O4    S    
Cr2   O5    S    
C47   C48   A    
C12   O22   A    
C10   C19   A    
C49   Cl8   S    
C46   C54   A    
C17   C18   A    
C38   Cl6   S    
C77   C79   A    
C64   C69   A    
C88   O17   A    
C56   O4    A    
C87   O14   A    
C48   C49   A    
C74   C79   A    
C55   C57   A    
C22   C24   A    
Cr6   O11   S    
C2    C5    A    
C1    O12   A    
C17   C26   A    
C88   O16   A    
C3    C4    A    
C73   C82   T    
C32   Cl3   S    
C72   C87   S    
C52   C53   A    
C9    C10   A    
C16   C25   A    
C83   C90   S    
C63   C68   A    
C40   C41   A    
C52   Br7   S    
C57   Cl10  S    
C29   C41   A    
Cr6   O18   S    
C28   C31   A    
C86   O6    A    
C76   C80   A    
Cr1   O1    S    
C80   C81   S    
C85   O9    A    
Cr5   O8    S    
C51   C88   S    
C79   C82   S    
Cr4   O13   S    
C44   C61   A    
Cr4   O7    S    
C84   O7    A    
Cr1   O12   S    
C32   C33   A    
C36   C38   A    
C19   C24   A    
C58   C59   A    
Cr5   O9    S    
Cr3   O5    S    
C11   C13   A    
C57   C58   A    
C30   C31   A    
C12   O21   A    
C28   C37   A    
C68   C71   S    
C65   C69   A    
C45   C61   S    
C62   C71   T    
C2    C3    A    
C56   C62   S    
C37   C41   A    
C69   C70   S    
Cr3   O23   S    
C21   Cl1   S    
Cr2   O2    S    
C34   C73   S    
C7    C67   T    
C63   C64   A    
Cr4   O19   S    
C27   C43   A    
C20   C21   A    
C9    Cl17  S    
C34   O26   A    
C65   C66   A    
C25   Br12  S    
C74   Cl14  S    
C70   C72   T    
C51   C60   A    
C13   C14   A    
C5    C89   A    
C27   C28   A    
