data_mof_unit_7950.cif
_audit_creation_date              2012-12-10T18:06:39-0500
_audit_creation_method            fapswitch 2.2
_symmetry_space_group_name_H-M    P1
_symmetry_Int_Tables_number       1
_space_group_crystal_system       triclinic
_cell_length_a                    12.5964
_cell_length_b                    13.048594
_cell_length_c                    15.442226
_cell_angle_alpha                 83.606298
_cell_angle_beta                  99.552687
_cell_angle_gamma                 95.442233
_cell_volume                      2479.83985025

loop_
_atom_site_label
_atom_site_type_symbol
_atom_type_description
_atom_site_fract_x
_atom_site_fract_y
_atom_site_fract_z
_atom_type_partial_charge
C1    C     C_R   0.448605 0.307872 0.517675 0.906107
C2    C     C_R   0.451528 0.545015 0.099448 -0.018661
C3    C     C_R   0.386994 0.628709 0.068522 0.119422
C4    C     C_R   0.526249 0.520038 0.048115 0.107618
C5    C     C_R   0.514857 0.557307 0.957962 0.071716
C6    C     C_R   0.442866 0.634845 0.925820 -0.216622
C7    C     C_R   0.382876 0.672610 0.981584 -0.188596
C8    C     C_R   0.616927 0.465906 0.086260 -0.125644
C9    C     C_R   0.686434 0.436377 0.034331 -0.224695
C10   C     C_R   0.664735 0.457153 0.942912 0.147894
C11   C     C_R   0.577654 0.516702 0.903913 0.094787
C12   C     C_R   0.434777 0.514292 0.336048 0.956993
C13   C     C_R   0.727685 0.417193 0.889989 -0.227656
C14   C     C_R   0.700197 0.428424 0.798258 -0.005664
C15   C     C_R   0.550825 0.527295 0.812177 -0.259323
C16   C     C_R   0.742859 0.929212 0.545780 -0.193742
C17   C     C_R   0.597174 0.797098 0.513756 -0.057312
C18   C     C_R   0.321582 0.160344 0.556879 -0.190360
C19   C     C_R   0.299492 0.057947 0.588259 -0.176048
C20   C     C_R   0.380410 0.989447 0.601665 0.010500
C21   C     C_R   0.483926 0.023910 0.580219 0.036617
C22   C     C_R   0.512271 0.130823 0.570352 0.070967
C23   C     C_R   0.557228 0.691707 0.494954 0.851851
C24   C     C_R   0.559368 0.957300 0.564633 0.079838
C25   C     C_R   0.668959 0.993864 0.565279 0.176585
C26   C     C_R   0.701359 0.095925 0.581674 -0.239994
C27   C     C_R   0.623558 0.164504 0.582842 -0.180319
C28   C     C_R   0.524712 0.860568 0.535930 -0.236734
C29   C     C_R   0.707071 0.830963 0.520133 -0.200775
C30   C     C_R   0.428005 0.198549 0.548671 -0.112323
C31   C     C_R   0.138446 0.634240 0.629202 -0.285917
C32   C     C_R   0.758772 0.375763 0.399384 0.024991
C33   C     C_R   0.854211 0.350385 0.376680 -0.246047
C34   C     C_R   0.565801 0.486969 0.664319 0.842001
C35   C     C_R   0.951321 0.399332 0.413480 -0.195676
C36   C     C_R   0.952841 0.473059 0.474428 0.019609
C37   C     C_R   0.853194 0.495929 0.495267 0.238752
C38   C     C_R   0.048842 0.522510 0.517183 -0.010021
C39   C     C_R   0.043872 0.589837 0.582607 0.185467
C40   C     C_R   0.944768 0.610913 0.601708 -0.283712
C41   C     C_R   0.850696 0.565118 0.557958 -0.202697
C42   C     C_R   0.150614 0.507033 0.498579 -0.053694
C43   C     C_R   0.236671 0.612323 0.609798 0.024697
C44   C     C_R   0.399195 0.540717 0.242404 -0.163175
C45   C     C_R   0.608089 0.480945 0.759120 -0.105883
C46   C     C_R   0.329427 0.668137 0.125915 -0.187827
C47   C     C_R   0.340867 0.628015 0.214144 -0.250968
C48   C     C_R   0.440274 0.490636 0.181591 0.356348
H1    H     H_    0.332760 0.735796 0.956484 0.151221
H2    H     H_    0.795969 0.373877 0.920314 0.147799
H3    H     H_    0.765057 0.781898 0.505346 0.163687
H4    H     H_    0.785627 0.124504 0.587322 0.157643
H5    H     H_    0.827357 0.955674 0.547931 0.138942
H6    H     H_    0.439520 0.836042 0.526569 0.170433
H7    H     H_    0.256018 0.210745 0.543112 0.169278
H8    H     H_    0.219488 0.032475 0.603118 0.147951
H9    H     H_    0.652384 0.242882 0.594901 0.191107
H10   H     H_    0.311459 0.642190 0.646390 0.154632
H11   H     H_    0.480621 0.566335 0.780944 0.162965
H12   H     H_    0.939873 0.662551 0.651039 0.157556
H13   H     H_    0.136355 0.683908 0.680573 0.157180
H14   H     H_    0.162802 0.459877 0.448713 0.136181
H15   H     H_    0.683303 0.336370 0.373307 0.204645
H16   H     H_    0.023306 0.375920 0.394641 0.148564
H17   H     H_    0.853032 0.292418 0.331460 0.167192
H18   H     H_    0.777225 0.583536 0.576119 0.212176
H19   H     H_    0.754765 0.393796 0.065504 0.155396
H20   H     H_    0.282043 0.734008 0.104189 0.152823
H21   H     H_    0.306672 0.666455 0.260527 0.177752
H22   H     H_    0.436977 0.672472 0.859507 0.158135
H23   H     H_    0.636858 0.449362 0.156866 0.184103
N1    N     N_R   0.239390 0.551900 0.544730 -0.109637
N2    N     N_R   0.759950 0.448600 0.455730 -0.141767
O1    O     O_R   0.374950 0.371210 0.521360 -0.612585
O2    O     O_R   0.542050 0.338030 0.492790 -0.612461
O3    O     O_R   0.368720 0.526070 0.390200 -0.612679
O4    O     O_R   0.535820 0.492890 0.361630 -0.590245
O5    O     O_R   0.457950 0.661970 0.507210 -0.617840
O6    O     O_R   0.625050 0.628790 0.478640 -0.638388
O7    O     O_R   0.464180 0.507110 0.638370 -0.613695
O8    O     O_R   0.631280 0.473930 0.609800 -0.640517
Zn1   Zn    Zn3+2 0.388420 0.522150 0.519080 0.949439
Zn2   Zn    Zn3+2 0.611580 0.477850 0.480920 0.950117
C49   C     C_1   0.363015 0.893315 0.655015 0.132728
N3    N     N_1   0.349768 0.817628 0.699763 -0.256567
C50   C     C_1   0.765498 0.381368 0.747426 0.186707
N4    N     N_1   0.818275 0.343748 0.707033 -0.211431
S1    S     S_3+6 0.436751 0.353079 0.195989 0.006202
O9    O     O_2   0.539984 0.318200 0.249203 -0.358639
O10   O     O_2   0.344686 0.311246 0.243737 -0.302157
O11   O     O_3   0.418209 0.305848 0.097101 -0.542165
H24   H     H_    0.420827 0.230052 0.110713 0.385545

loop_
_geom_bond_atom_site_label_1
_geom_bond_atom_site_label_2
_ccdc_geom_bond_type
C19   H8    S    
C43   N1    A    
C40   H12   S    
C17   C29   A    
C31   H13   S    
C35   C36   A    
C4    C8    A    
C33   H17   S    
C26   C27   A    
C17   C23   S    
C31   C43   A    
C1    O1    A    
C36   C37   A    
C5    C11   A    
C3    C7    A    
C5    C6    A    
O4    Zn2   S    
C18   C19   A    
C16   H5    S    
C47   H21   S    
C43   H10   S    
C34   O7    A    
C11   C15   A    
C19   C20   A    
C8    C9    A    
C48   S1    S    
C35   H16   S    
C18   C30   A    
C34   O8    A    
C9    C10   A    
C42   H14   S    
C44   C47   A    
S1    O9    D    
C21   C22   A    
O1    Zn1   S    
O8    Zn2   S    
C14   C45   A    
C1    O2    A    
C49   N3    T    
C14   C50   S    
O7    Zn1   S    
C27   H9    S    
O3    Zn1   S    
C32   N2    A    
C28   H6    S    
C50   N4    T    
C2    C48   A    
C16   C29   A    
C2    C4    A    
C9    H19   S    
C46   H20   S    
C26   H4    S    
O5    Zn1   S    
S1    O11   S    
C12   O4    A    
C42   N1    A    
C34   C45   S    
C24   C25   A    
C7    H1    S    
C6    C7    A    
C18   H7    S    
C40   C41   A    
S1    O10   D    
C22   C27   A    
C20   C49   S    
C15   C45   A    
O11   H24   S    
C29   H3    S    
C16   C25   A    
C6    H22   S    
C37   N2    A    
C46   C47   A    
C8    H23   S    
C22   C30   A    
C17   C28   A    
C15   H11   S    
C24   C28   A    
C32   H15   S    
C4    C5    A    
C10   C13   A    
C38   C42   A    
C41   H18   S    
C3    C46   A    
C32   C33   A    
C12   O3    A    
C2    C3    A    
C25   C26   A    
C12   C44   S    
O6    Zn2   S    
O2    Zn2   S    
C38   C39   A    
C36   C38   A    
C1    C30   S    
C33   C35   A    
C31   C39   A    
C23   O5    A    
C37   C41   A    
C10   C11   A    
C13   H2    S    
C39   C40   A    
C20   C21   A    
C21   C24   A    
C23   O6    A    
C13   C14   A    
N2    Zn2   S    
N1    Zn1   S    
C44   C48   A    
