data_mof_unit_46138.cif
_audit_creation_date              2012-12-10T18:00:47-0500
_audit_creation_method            fapswitch 2.2
_symmetry_space_group_name_H-M    P1
_symmetry_Int_Tables_number       1
_space_group_crystal_system       triclinic
_cell_length_a                    15.81443
_cell_length_b                    10.804983
_cell_length_c                    9.659509
_cell_angle_alpha                 91.59974
_cell_angle_beta                  87.082836
_cell_angle_gamma                 91.520588
_cell_volume                      1647.2622959

loop_
_atom_site_label
_atom_site_type_symbol
_atom_type_description
_atom_site_fract_x
_atom_site_fract_y
_atom_site_fract_z
_atom_type_partial_charge
C1    C     C_R   0.507102 0.262433 0.497036 0.852936
C2    C     C_R   0.491986 0.737075 0.502876 0.866092
C3    C     C_R   0.465478 0.932087 0.385741 0.022362
C4    C     C_R   0.529012 0.065935 0.614857 0.012664
C5    C     C_R   0.482322 0.872179 0.508103 -0.273261
C6    C     C_R   0.513934 0.126539 0.491488 -0.277950
C7    C     C_R   0.433869 0.451289 0.081020 0.006241
C8    C     C_R   0.567266 0.546643 0.919666 -0.002363
C9    C     C_R   0.430188 0.456710 0.934972 0.219222
C10   C     C_R   0.567324 0.551815 0.067570 0.229546
C11   C     C_R   0.340110 0.500106 0.502969 0.814553
C12   C     C_R   0.659913 0.500008 0.497073 0.810796
C13   C     C_3   0.969320 0.383624 0.503680 -0.291517
C14   C     C_3   0.030643 0.619676 0.503154 -0.220902
C15   C     C_3   0.032751 0.438580 0.392894 0.177736
C16   C     C_3   0.966816 0.564491 0.613766 0.179403
C17   C     C_1   0.250355 0.500845 0.509322 -0.179992
C18   C     C_1   0.749725 0.499903 0.491295 -0.177305
C19   C     C_3   0.020333 0.447415 0.619810 0.157259
C20   C     C_3   0.979774 0.556007 0.386974 0.175246
C21   C     C_3   0.083033 0.501082 0.508970 0.057209
C22   C     C_3   0.916944 0.501679 0.497319 0.025612
C23   C     C_1   0.174723 0.501307 0.511049 -0.057833
C24   C     C_1   0.825344 0.500247 0.491598 -0.066789
C25   C     C_R   0.491976 0.056160 0.371818 0.334557
C26   C     C_R   0.501418 0.942627 0.627745 0.390234
Cu1   Cu    Cu3+1 0.500000 0.500020 0.640660 0.960572
Cu2   Cu    Cu3+1 0.500000 0.499980 0.359340 0.972798
H1    H     H_    0.942827 0.287430 0.504124 0.152012
H2    H     H_    0.058023 0.715314 0.502272 0.148319
H3    H     H_    0.381226 0.412569 0.142758 0.161768
H4    H     H_    0.620206 0.582901 0.857702 0.171950
N1    N     N_R   0.500020 0.500030 0.852070 -0.199200
N2    N     N_R   0.499980 0.499970 0.147930 -0.194866
O1    O     O_R   0.500000 0.319660 0.618740 -0.591645
O2    O     O_R   0.500000 0.680340 0.381260 -0.606055
O3    O     O_R   0.499990 0.319630 0.381170 -0.485899
O4    O     O_R   0.500010 0.680370 0.618830 -0.509374
O5    O     O_R   0.379080 0.500000 0.618760 -0.575415
O6    O     O_R   0.620920 0.500000 0.381240 -0.594242
O7    O     O_R   0.379080 0.499970 0.381190 -0.600595
O8    O     O_R   0.620920 0.500030 0.618810 -0.599006
C27   C     C_3   0.074600 0.361785 0.273875 -0.395091
C28   C     C_3   0.009993 0.304422 0.177453 -0.835056
H5    H     H_    0.960727 0.250008 0.237024 0.255436
H6    H     H_    0.979546 0.377156 0.120175 0.256274
H7    H     H_    0.042538 0.241380 0.100513 0.241545
H8    H     H_    0.121025 0.420492 0.213784 0.196573
H9    H     H_    0.109808 0.286241 0.318912 0.200304
C29   C     C_3   0.923735 0.636006 0.736253 -0.388681
C30   C     C_3   0.977150 0.747419 0.783714 -0.850376
H10   H     H_    0.041411 0.719240 0.808913 0.261358
H11   H     H_    0.982945 0.817098 0.701212 0.248222
H12   H     H_    0.945634 0.791515 0.877069 0.242284
H13   H     H_    0.862149 0.670371 0.704923 0.204639
H14   H     H_    0.910513 0.572664 0.823723 0.202497
C31   C     C_3   0.952346 0.623669 0.260319 -0.386250
C32   C     C_3   0.027985 0.680339 0.178311 -0.855684
H15   H     H_    0.062867 0.748058 0.244148 0.250083
H16   H     H_    0.071730 0.607581 0.138988 0.254089
H17   H     H_    0.005401 0.729558 0.088673 0.246789
H18   H     H_    0.916449 0.558985 0.192612 0.204757
H19   H     H_    0.909347 0.698976 0.296194 0.201919
C33   C     C_3   0.044175 0.376463 0.746717 -0.396279
C34   C     C_3   0.093039 0.456694 0.849397 -0.852035
H20   H     H_    0.146469 0.507912 0.796466 0.263679
H21   H     H_    0.050192 0.523031 0.904489 0.260318
H22   H     H_    0.119146 0.397047 0.927687 0.243072
H23   H     H_    0.985603 0.338702 0.800130 0.198591
H24   H     H_    0.083792 0.297374 0.710585 0.201877
S1    S     S_3+6 0.519698 0.108359 0.202089 0.007283
O9    O     O_2   0.594957 0.196275 0.204704 -0.282035
O10   O     O_2   0.543911 0.001228 0.107633 -0.259539
O11   O     O_3   0.437680 0.180613 0.139190 -0.545085
H25   H     H_    0.394668 0.114737 0.121470 0.350294
S2    S     S_3+6 0.466899 0.891788 0.794408 -0.007143
O12   O     O_2   0.539314 0.833354 0.860445 -0.325747
O13   O     O_2   0.436851 0.999901 0.882468 -0.295020
O14   O     O_3   0.385205 0.789312 0.783006 -0.543846
H26   H     H_    0.391158 0.731249 0.859238 0.351003
C35   C     C_3   0.393227 0.880620 0.300546 -0.357728
C36   C     C_3   0.420161 0.804745 0.170345 -0.584872
H27   H     H_    0.489458 0.791368 0.160390 0.289625
H28   H     H_    0.387973 0.712143 0.171852 0.193005
H29   H     H_    0.400139 0.851805 0.077817 0.274161
H30   H     H_    0.350114 0.821742 0.367215 0.183492
H31   H     H_    0.353011 0.957536 0.271428 0.171980
C37   C     C_3   0.600985 0.112863 0.703572 -0.371033
C38   C     C_3   0.574897 0.195214 0.829289 -0.502362
H32   H     H_    0.602804 0.289842 0.816728 0.202079
H33   H     H_    0.505388 0.202531 0.844385 0.285655
H34   H     H_    0.600383 0.158246 0.923980 0.280942
H35   H     H_    0.635442 0.032507 0.740290 0.212927
H36   H     H_    0.648781 0.164394 0.637368 0.171129
C39   C     C_3   0.341460 0.428250 0.885855 -0.372331
C40   C     C_3   0.329663 0.299183 0.819890 -0.727112
H37   H     H_    0.361682 0.290470 0.716507 0.271857
H38   H     H_    0.353142 0.228049 0.888118 0.263604
H39   H     H_    0.261125 0.279952 0.806851 0.216594
H40   H     H_    0.294690 0.429659 0.975981 0.141867
H41   H     H_    0.316876 0.504639 0.827866 0.220967
C41   C     C_3   0.644143 0.611327 0.134251 -0.367476
C42   C     C_3   0.698721 0.702335 0.046960 -0.911118
H42   H     H_    0.734932 0.653291 0.961539 0.240113
H43   H     H_    0.659227 0.774380 0.005372 0.317222
H44   H     H_    0.745761 0.749323 0.113479 0.253493
H45   H     H_    0.622639 0.665986 0.226997 0.254791
H46   H     H_    0.686505 0.536691 0.162202 0.228630

loop_
_geom_bond_atom_site_label_1
_geom_bond_atom_site_label_2
_ccdc_geom_bond_type
C5    C26   A    
C39   C40   S    
S2    O14   S    
C35   C36   S    
C31   H18   S    
Cu1   N1    S    
C17   C23   T    
C18   C24   T    
C14   C21   S    
C13   H1    S    
C19   C21   S    
S2    O13   D    
C6    C25   A    
Cu2   O6    S    
Cu1   O4    S    
C32   H16   S    
C40   H39   S    
Cu2   O7    S    
C12   O8    A    
Cu1   O5    S    
C34   H21   S    
C40   H38   S    
C3    C35   S    
C26   S2    S    
C41   H46   S    
C25   S1    S    
C33   H24   S    
C38   H33   S    
C27   H8    S    
C9    C39   S    
C35   H30   S    
C28   H7    S    
C1    O3    A    
C32   H17   S    
Cu2   N2    S    
C9    N1    A    
C14   H2    S    
C28   H6    S    
C31   H19   S    
C15   C20   S    
C37   H36   S    
C7    H3    S    
O11   H25   S    
C13   C19   S    
C30   H10   S    
C8    H4    S    
C14   C20   S    
C10   C41   S    
S2    O12   D    
C42   H43   S    
S1    O10   D    
C39   H40   S    
C27   H9    S    
Cu1   O1    S    
C32   H15   S    
C29   H14   S    
C1    C6    S    
C30   H11   S    
C12   O6    A    
C27   C28   S    
C2    O4    A    
C3    C25   A    
C19   C33   S    
C34   H22   S    
C40   H37   S    
C29   C30   S    
C41   H45   S    
C10   N2    A    
C33   H23   S    
C38   H34   S    
C11   O5    A    
C35   H31   S    
C4    C6    A    
C20   C22   S    
C34   H20   S    
C36   H28   S    
C13   C15   S    
C7    N2    A    
C14   C16   S    
C2    C5    S    
C42   H42   S    
C28   H5    S    
C1    O1    A    
C2    O2    A    
C7    C9    A    
C37   H35   S    
C11   C17   S    
C16   C22   S    
C16   C29   S    
C3    C5    A    
S1    O11   S    
C4    C26   A    
C4    C37   S    
C36   H29   S    
C29   H13   S    
C30   H12   S    
C33   C34   S    
C21   C23   S    
C20   C31   S    
C15   C27   S    
S1    O9    D    
Cu1   O8    S    
C31   C32   S    
Cu2   O3    S    
C16   C19   S    
C13   C22   S    
C11   O7    A    
C42   H44   S    
C22   C24   S    
C8    N1    A    
C41   C42   S    
O14   H26   S    
C15   C21   S    
C37   C38   S    
Cu2   O2    S    
C8    C10   A    
C36   H27   S    
C12   C18   S    
Cu1   Cu2   S    
C38   H32   S    
C39   H41   S    
