data_mof_unit_10212.cif
_audit_creation_date              2013-03-05T16:15:18-0500
_audit_creation_method            fapswitch 2.2
_symmetry_space_group_name_H-M    P1
_symmetry_Int_Tables_number       1
_space_group_crystal_system       triclinic
_cell_length_a                    27.837343
_cell_length_b                    10.648412
_cell_length_c                    9.41432
_cell_angle_alpha                 89.460604
_cell_angle_beta                  90.083916
_cell_angle_gamma                 89.620962
_cell_volume                      2790.43768074

loop_
_atom_site_label
_atom_site_type_symbol
_atom_site_description
_atom_site_fract_x
_atom_site_fract_y
_atom_site_fract_z
_atom_type_partial_charge
O1    O     O_R   0.500020 0.316850 0.620870 -0.525239
O2    O     O_R   0.499980 0.683150 0.379130 -0.569096
O3    O     O_R   0.500000 0.316860 0.379090 -0.612049
O4    O     O_R   0.500000 0.683140 0.620910 -0.582918
C1    C     C_R   0.499595 0.259711 0.500846 0.821414
C2    C     C_R   0.499921 0.740327 0.499093 0.789315
O5    O     O_R   0.430270 0.500020 0.620880 -0.577704
O6    O     O_R   0.569730 0.499980 0.379120 -0.538078
O7    O     O_R   0.430250 0.500030 0.379090 -0.505905
O8    O     O_R   0.569750 0.499970 0.620910 -0.522530
C3    C     C_R   0.407596 0.496145 0.499944 0.925715
C4    C     C_R   0.592687 0.501999 0.500374 0.877809
Cu1   Cu    Cu3+1 0.500010 0.499990 0.643150 1.058009
Cu2   Cu    Cu3+1 0.499990 0.500010 0.356850 1.049791
C5    C     C_R   0.177616 0.381658 0.501014 0.661845
C6    C     C_R   0.822638 0.601737 0.507180 0.651129
O9    O     O_2   0.202323 0.272207 0.497469 -0.462760
O10   O     O_2   0.797419 0.709514 0.522442 -0.488781
N1    N     N_R   0.201611 0.493393 0.497251 -0.438959
N2    N     N_R   0.799007 0.491296 0.487145 -0.437539
C7    C     C_R   0.177157 0.605433 0.490885 0.602362
C8    C     C_R   0.823362 0.381032 0.466145 0.613560
C9    C     C_R   0.278888 0.552348 0.390735 -0.235184
C10   C     C_R   0.720817 0.467916 0.370732 -0.235753
C11   C     C_R   0.328849 0.552840 0.391672 0.604790
C12   C     C_R   0.670853 0.472475 0.373984 0.583449
C13   C     C_R   0.328972 0.423709 0.607279 -0.216389
C14   C     C_R   0.673670 0.527645 0.625435 -0.248006
C15   C     C_R   0.278622 0.431816 0.610134 0.618574
C16   C     C_R   0.723926 0.518137 0.620413 0.607747
C17   C     C_R   0.253399 0.493208 0.500091 0.127565
C18   C     C_R   0.747453 0.490963 0.493099 0.145410
C19   C     C_R   0.101557 0.493678 0.498234 -0.065570
C20   C     C_R   0.898892 0.491639 0.491743 -0.062660
C21   C     C_R   0.127395 0.380052 0.509271 -0.092015
C22   C     C_R   0.872861 0.603420 0.513965 -0.084324
C23   C     C_R   0.102989 0.267683 0.534873 -0.092356
C24   C     C_R   0.897058 0.713396 0.549772 -0.098377
C25   C     C_R   0.126506 0.607836 0.478675 -0.047307
C26   C     C_R   0.874181 0.379534 0.459150 -0.049442
C27   C     C_R   0.354621 0.489375 0.499617 -0.283242
C28   C     C_R   0.646168 0.502608 0.500659 -0.279992
H1    H     H_    0.123299 0.182009 0.554248 0.222787
H2    H     H_    0.876589 0.796878 0.576238 0.224821
C29   C     C_R   0.975591 0.378219 0.491598 0.033854
C30   C     C_R   0.024923 0.607498 0.502731 0.031425
C31   C     C_R   0.974330 0.606875 0.523632 -0.041580
C32   C     C_R   0.025984 0.377056 0.516008 -0.041712
C33   C     C_R   0.949656 0.492297 0.502405 0.105049
C34   C     C_R   0.050765 0.492722 0.505886 0.105524
C35   C     C_R   0.951185 0.271191 0.444107 -0.283017
C36   C     C_R   0.049754 0.717736 0.465591 -0.282384
C37   C     C_R   0.901408 0.270678 0.425070 0.003666
C38   C     C_R   0.099707 0.719256 0.450894 0.003132
O11   O     O_2   0.798372 0.273276 0.459085 -0.463666
O12   O     O_2   0.201736 0.713474 0.503231 -0.459201
C39   C     C_R   0.052866 0.265640 0.546325 -0.046978
C40   C     C_R   0.947173 0.715521 0.561252 -0.048827
H3    H     H_    0.739040 0.446614 0.272193 0.215501
H4    H     H_    0.259785 0.599575 0.305108 0.224791
H5    H     H_    0.971243 0.188795 0.412024 0.148978
H6    H     H_    0.030006 0.802344 0.437722 0.155722
C41   C     C_3   0.497665 0.037297 0.634872 0.015622
C42   C     C_3   0.501084 0.962792 0.364709 -0.027515
C43   C     C_3   0.537931 0.956939 0.569706 -0.046056
C44   C     C_3   0.460854 0.043272 0.429880 0.003131
C45   C     C_3   0.499809 0.876847 0.496743 -0.138252
C46   C     C_3   0.499059 0.123274 0.502850 -0.099719
C47   C     C_3   0.459009 0.956146 0.562344 -0.205869
C48   C     C_3   0.539756 0.043768 0.437094 -0.306777
H7    H     H_    0.426146 0.917919 0.613082 0.188985
H8    H     H_    0.572657 0.081797 0.386380 0.184446
C49   C     C_3   0.539882 0.545365 0.050557 -0.190903
C50   C     C_3   0.460161 0.454829 0.949588 -0.220907
C51   C     C_3   0.504854 0.613194 0.948130 -0.210907
C52   C     C_3   0.495257 0.386841 0.051827 -0.190582
H9    H     H_    0.508533 0.708480 0.900699 0.199212
H10   H     H_    0.491618 0.291539 0.099217 0.179180
H11   H     H_    0.573404 0.582822 0.097479 0.205800
H12   H     H_    0.426527 0.418015 0.903298 0.178227
N3    N     N_3   0.500040 0.499970 0.858290 -0.235001
N4    N     N_3   0.499960 0.500030 0.141710 -0.246258
C53   C     C_3   0.534631 0.433266 0.951457 0.834586
C54   C     C_3   0.465496 0.567020 0.048496 0.779475
C55   C     C_2   0.352657 0.339429 0.712890 0.493273
H13   H     H_    0.336753 0.325947 0.817065 0.129618
O13   O     O_2   0.388435 0.278556 0.682271 -0.572152
C56   C     C_2   0.652612 0.567382 0.762528 0.596926
H14   H     H_    0.666454 0.527951 0.861270 0.140678
O14   O     O_2   0.622244 0.650315 0.767561 -0.542193
C57   C     C_2   0.493690 0.077660 0.786441 0.502019
H15   H     H_    0.460241 0.064648 0.843457 0.088106
O15   O     O_2   0.527467 0.127780 0.845261 -0.446435
C58   C     C_2   0.504687 0.919653 0.213884 0.474621
H16   H     H_    0.535931 0.866357 0.180241 0.075508
O16   O     O_2   0.472770 0.943658 0.128712 -0.528826
F1    F     F_    0.571826 0.363150 0.895142 -0.598414
F2    F     F_    0.429013 0.639699 0.104460 -0.559435
F3    F     F_    0.253849 0.376425 0.717873 -0.627583
F4    F     F_    0.750499 0.539734 0.738920 -0.633370
F5    F     F_    0.646935 0.445757 0.252265 -0.628414
F6    F     F_    0.351911 0.617763 0.287845 -0.560082
C59   C     C_2   0.880968 0.156534 0.360113 0.499601
H17   H     H_    0.895312 0.064731 0.389133 0.081416
O17   O     O_2   0.850715 0.164226 0.266351 -0.467111
C60   C     C_2   0.120885 0.836777 0.393825 0.499051
H18   H     H_    0.105385 0.926838 0.422209 0.098629
O18   O     O_2   0.153316 0.834099 0.306708 -0.468121
C61   C     C_2   0.030550 0.152415 0.611404 0.371337
H19   H     H_    0.995133 0.158385 0.658791 0.134769
O19   O     O_2   0.051886 0.051897 0.616168 -0.565828
C62   C     C_2   0.969057 0.825025 0.633099 0.378514
H20   H     H_    0.004036 0.816325 0.683265 0.127366
O20   O     O_2   0.947856 0.925597 0.639630 -0.552002
C63   C     C_2   0.581999 0.904933 0.640840 0.492503
H21   H     H_    0.607744 0.851438 0.579253 0.068032
O21   O     O_2   0.589193 0.921936 0.767002 -0.450206
C64   C     C_2   0.418012 0.095931 0.352830 0.510204
H22   H     H_    0.423042 0.158035 0.262165 0.063434
O22   O     O_2   0.377485 0.069708 0.391718 -0.469550

loop_
_geom_bond_atom_site_label_1
_geom_bond_atom_site_label_2
_geom_bond_distance
_ccdc_geom_bond_type
C44   C46   1.532827 S    
C41   C43   1.537592 S    
Cu1   N3    2.025395 S    
C13   C15   1.403989 A    
C43   C63   1.497227 S    
C56   O14   1.219747 D    
C35   H5    1.082501 S    
N1    C17   1.441812 S    
C62   O20   1.221473 D    
C32   C39   1.424874 A    
C31   C33   1.419708 A    
C55   H13   1.085326 S    
O5    C3    1.302102 A    
C19   C25   1.414651 A    
C50   C52   1.542658 S    
C40   C62   1.487054 S    
C21   C23   1.398998 A    
C52   H10   1.110011 S    
C61   O19   1.221091 D    
C12   F5    1.357836 S    
C16   F4    1.359941 S    
C51   C54   1.528515 S    
C44   C47   1.548406 S    
C60   H18   1.084881 S    
C29   C35   1.406873 A    
C43   C48   1.547629 S    
C30   C36   1.407725 A    
C47   H7    1.110539 S    
C14   C28   1.429352 A    
O4    Cu1   1.959501 S    
C13   C55   1.483953 S    
C64   H22   1.084640 S    
C4    C28   1.488822 S    
C24   C40   1.399447 A    
C39   C61   1.487294 S    
C41   C47   1.546650 S    
C43   C45   1.531730 S    
C14   C56   1.482439 S    
C42   C48   1.545304 S    
C6    N2    1.365780 A    
C32   C34   1.418140 A    
C50   H12   1.107751 S    
Cu1   Cu2   2.695316 S    
C49   C51   1.541783 S    
O2    C2    1.288063 A    
C1    C46   1.452961 S    
O2    Cu2   1.963358 S    
C52   C53   1.529722 S    
C5    C21   1.400509 A    
C62   H20   1.084623 S    
N3    C53   1.475733 S    
C36   C38   1.397815 A    
C55   O13   1.221062 D    
C9    H4    1.083088 S    
C38   C60   1.483341 S    
C42   C45   1.537214 S    
O4    C2    1.293392 A    
C11   C27   1.408059 A    
C57   H15   1.084463 S    
C15   F3    1.359575 S    
C51   N3    1.485911 S    
C63   O21   1.219593 D    
C19   C34   1.415961 A    
C45   C47   1.543885 S    
C9    C17   1.398493 A    
C23   H1    1.083937 S    
C5    N1    1.368521 A    
O7    Cu2   1.952938 S    
C10   C18   1.393674 A    
C24   H2    1.083909 S    
C57   O15   1.219132 D    
C51   H9    1.110113 S    
C13   C27   1.421768 A    
C7    C25   1.414545 A    
C29   C33   1.413554 A    
O6    C4    1.307836 A    
C8    C26   1.416280 A    
C49   H11   1.109985 S    
C59   O17   1.220929 D    
C58   O16   1.220122 D    
O7    C3    1.302100 A    
O3    Cu2   1.959500 S    
O8    C4    1.302950 A    
C6    O10   1.350313 S    
C2    C45   1.453661 S    
N2    C8    1.368053 A    
N4    C54   1.475155 S    
C53   F1    1.381816 S    
C20   C26   1.417565 A    
O1    Cu1   1.963359 S    
Cu2   N4    2.025395 S    
C50   N3    1.484667 S    
C52   N4    1.485546 S    
C49   N4    1.485461 S    
O1    C1    1.288450 A    
C12   C28   1.415644 A    
N2    C18   1.436348 S    
C29   C32   1.421143 A    
C5    O9    1.350072 S    
C30   C34   1.414121 A    
C30   C31   1.422392 A    
C20   C33   1.416603 A    
O6    Cu2   1.952357 S    
N1    C7    1.370467 A    
C10   C12   1.391785 A    
C50   C54   1.529435 S    
O3    C1    1.292802 A    
O8    Cu1   1.952938 S    
C7    O12   1.348307 S    
C8    O11   1.347893 S    
C41   C46   1.537423 S    
C54   F2    1.380858 S    
C22   C24   1.398558 A    
C42   C58   1.499765 S    
C15   C17   1.404522 A    
C36   H6    1.082263 S    
C61   H19   1.084475 S    
C6    C22   1.399675 A    
C31   C40   1.425584 A    
C16   C18   1.398417 A    
C60   O18   1.220954 D    
C37   C59   1.482293 S    
C10   H3    1.083141 S    
C14   C16   1.402885 A    
C19   C21   1.406403 A    
C3    C27   1.476924 S    
C20   C22   1.406909 A    
C9    C11   1.390864 A    
C58   H16   1.084694 S    
C11   F6    1.356643 S    
C64   O22   1.219920 D    
C25   C38   1.419317 A    
O5    Cu1   1.952357 S    
C56   H14   1.085523 S    
C46   C48   1.543589 S    
C26   C37   1.420248 A    
C44   C64   1.497956 S    
C41   C57   1.498143 S    
C59   H17   1.085892 S    
C48   H8    1.110547 S    
C35   C37   1.396985 A    
C49   C53   1.529550 S    
C23   C39   1.399905 A    
C63   H21   1.084586 S    
C42   C44   1.537614 S    
