data_mof_unit_48726.cif
_audit_creation_date              2013-03-05T15:50:23-0500
_audit_creation_method            fapswitch 2.2
_symmetry_space_group_name_H-M    P1
_symmetry_Int_Tables_number       1
_space_group_crystal_system       triclinic
_cell_length_a                    18.312016
_cell_length_b                    25.751399
_cell_length_c                    18.272196
_cell_angle_alpha                 89.705766
_cell_angle_beta                  90.025365
_cell_angle_gamma                 89.474367
_cell_volume                      8615.96006991

loop_
_atom_site_label
_atom_site_type_symbol
_atom_site_description
_atom_site_fract_x
_atom_site_fract_y
_atom_site_fract_z
_atom_type_partial_charge
Zn1   Zn    Zn3+2 0.249990 0.293780 0.913250 1.092407
Zn2   Zn    Zn3+2 0.249990 0.706220 0.086750 1.047096
Zn3   Zn    Zn3+2 0.249990 0.706220 0.913250 1.066546
Zn4   Zn    Zn3+2 0.249990 0.293780 0.086750 1.073816
Zn5   Zn    Zn3+2 0.749990 0.793780 0.413250 1.055740
Zn6   Zn    Zn3+2 0.749990 0.206220 0.586750 1.066157
Zn7   Zn    Zn3+2 0.749990 0.206220 0.413250 1.065343
Zn8   Zn    Zn3+2 0.749990 0.793780 0.586750 1.055263
Zn9   Zn    Zn3+2 0.336760 0.206240 0.000000 1.057662
Zn10  Zn    Zn3+2 0.336760 0.793760 0.000000 1.028949
Zn11  Zn    Zn3+2 0.836760 0.706240 0.500000 1.052529
Zn12  Zn    Zn3+2 0.836760 0.293760 0.500000 1.059252
Zn13  Zn    Zn3+2 0.163250 0.206230 0.000000 1.061929
Zn14  Zn    Zn3+2 0.163250 0.793770 0.000000 1.064506
Zn15  Zn    Zn3+2 0.663250 0.706230 0.500000 1.066972
Zn16  Zn    Zn3+2 0.663250 0.293770 0.500000 1.104531
O1    O     O_3   0.249990 0.250010 0.000000 -0.532447
O2    O     O_3   0.249990 0.749990 0.000000 -0.533281
O3    O     O_3   0.749990 0.750010 0.500000 -0.525750
O4    O     O_3   0.749990 0.249990 0.500000 -0.530174
O5    O     O_R   0.335430 0.280650 0.146160 -0.619037
O6    O     O_R   0.335430 0.719350 0.853840 -0.614531
O7    O     O_R   0.335430 0.719350 0.146160 -0.597089
O8    O     O_R   0.335430 0.280650 0.853840 -0.623710
O9    O     O_R   0.835430 0.780650 0.646160 -0.628694
O10   O     O_R   0.835430 0.219350 0.353840 -0.615142
O11   O     O_R   0.835430 0.219350 0.646160 -0.593260
O12   O     O_R   0.835430 0.780650 0.353840 -0.609470
O13   O     O_R   0.164550 0.280640 0.853840 -0.620915
O14   O     O_R   0.164550 0.719360 0.146160 -0.642740
O15   O     O_R   0.164550 0.719360 0.853840 -0.653831
O16   O     O_R   0.164550 0.280640 0.146160 -0.679358
O17   O     O_R   0.664550 0.780640 0.353840 -0.652856
O18   O     O_R   0.664550 0.219360 0.646160 -0.641228
O19   O     O_R   0.664550 0.219360 0.353840 -0.630803
O20   O     O_R   0.664550 0.780640 0.646160 -0.677092
O21   O     O_R   0.396160 0.219380 0.914560 -0.646290
O22   O     O_R   0.396160 0.780620 0.085440 -0.646568
O23   O     O_R   0.396160 0.780620 0.914560 -0.632437
O24   O     O_R   0.396160 0.219380 0.085440 -0.597874
O25   O     O_R   0.896160 0.719380 0.414560 -0.668350
O26   O     O_R   0.896160 0.280620 0.585440 -0.618393
O27   O     O_R   0.896160 0.280620 0.414560 -0.660819
O28   O     O_R   0.896160 0.719380 0.585440 -0.639475
O29   O     O_R   0.103840 0.219370 0.085450 -0.549035
O30   O     O_R   0.103840 0.780630 0.914550 -0.552942
O31   O     O_R   0.103840 0.780630 0.085450 -0.602183
O32   O     O_R   0.103840 0.219370 0.914550 -0.618986
O33   O     O_R   0.603840 0.719370 0.585450 -0.553375
O34   O     O_R   0.603840 0.280630 0.414550 -0.607725
O35   O     O_R   0.603840 0.280630 0.585450 -0.546490
O36   O     O_R   0.603840 0.719370 0.414550 -0.610905
O37   O     O_R   0.310730 0.133160 0.000000 -0.618652
O38   O     O_R   0.310730 0.866840 0.000000 -0.598318
O39   O     O_R   0.810730 0.633160 0.500000 -0.584014
O40   O     O_R   0.810730 0.366840 0.500000 -0.590305
O41   O     O_R   0.249970 0.366860 0.060720 -0.565900
O42   O     O_R   0.249970 0.633140 0.939280 -0.580265
O43   O     O_R   0.249970 0.633140 0.060720 -0.622266
O44   O     O_R   0.249970 0.366860 0.939280 -0.577069
O45   O     O_R   0.749970 0.866860 0.560720 -0.577773
O46   O     O_R   0.749970 0.133140 0.439280 -0.567371
O47   O     O_R   0.749970 0.133140 0.560720 -0.646304
O48   O     O_R   0.749970 0.866860 0.439280 -0.597205
O49   O     O_R   0.189290 0.133150 0.000000 -0.644656
O50   O     O_R   0.189290 0.866850 0.000000 -0.648622
O51   O     O_R   0.689290 0.633150 0.500000 -0.641813
O52   O     O_R   0.689290 0.366850 0.500000 -0.628611
C1    C     C_R   0.390585 0.250506 0.139137 0.856066
C2    C     C_R   0.393369 0.746210 0.863080 0.827530
C3    C     C_R   0.388172 0.750499 0.142116 0.786018
C4    C     C_R   0.393578 0.253575 0.862935 0.865464
C5    C     C_R   0.893846 0.752716 0.636258 0.872877
C6    C     C_R   0.893666 0.245964 0.363582 0.811549
C7    C     C_R   0.888204 0.251127 0.641496 0.854010
C8    C     C_R   0.893858 0.752787 0.362917 0.852769
C9    C     C_R   0.110660 0.250027 0.859711 0.890761
C10   C     C_R   0.106057 0.745703 0.136016 0.854852
C11   C     C_R   0.106120 0.747602 0.862907 0.864328
C12   C     C_R   0.106824 0.253630 0.137321 0.882674
C13   C     C_R   0.609690 0.751217 0.360404 0.883192
C14   C     C_R   0.606498 0.245958 0.636801 0.948006
C15   C     C_R   0.610281 0.250327 0.359967 0.898615
C16   C     C_R   0.606882 0.753802 0.637205 0.907883
C17   C     C_R   0.249979 0.108901 0.008569 0.872372
C18   C     C_R   0.250560 0.891236 0.992599 0.887760
C19   C     C_R   0.750273 0.609097 0.511115 0.888588
C20   C     C_R   0.749375 0.390926 0.510693 0.901659
C21   C     C_R   0.249413 0.391275 0.000078 0.971431
C22   C     C_R   0.248961 0.608716 0.000438 0.963430
C23   C     C_R   0.748043 0.891299 0.500041 0.919901
C24   C     C_R   0.746699 0.108827 0.500369 0.923957
C25   C     C_3   0.248101 0.469124 0.083029 0.691725
C26   C     C_3   0.176922 0.531370 0.959453 0.676597
C27   C     C_3   0.249293 0.530109 0.083637 0.599389
C28   C     C_3   0.177617 0.469788 0.957445 0.561350
C29   C     C_3   0.721136 0.969260 0.579667 0.705826
C30   C     C_3   0.687656 0.031341 0.440929 0.683273
C31   C     C_3   0.720666 0.030430 0.580491 0.589070
C32   C     C_3   0.688403 0.969793 0.439951 0.578074
H1    H     H_    0.366484 0.455551 0.989934 0.270200
H2    H     H_    0.317266 0.543727 0.904448 0.303147
H3    H     H_    0.366306 0.544034 0.988360 0.245202
H4    H     H_    0.319337 0.455934 0.905082 0.299483
H5    H     H_    0.861529 0.955299 0.521385 0.280760
H6    H     H_    0.838767 0.044714 0.429322 0.290801
H7    H     H_    0.860426 0.043477 0.524233 0.252043
H8    H     H_    0.838394 0.956776 0.427391 0.293932
C33   C     C_3   0.316102 0.469988 0.962323 -0.401347
C34   C     C_3   0.315620 0.529683 0.961977 -0.467896
C35   C     C_3   0.820207 0.970287 0.482094 -0.404404
C36   C     C_3   0.819948 0.029853 0.483302 -0.456135
C37   C     C_3   0.246556 0.449046 0.001152 -0.198173
C38   C     C_3   0.246573 0.550936 0.001980 -0.149391
C39   C     C_3   0.743155 0.949138 0.500685 -0.199668
C40   C     C_3   0.742393 0.051123 0.501581 -0.164256
H9    H     H_    0.898389 0.352147 0.949937 0.178700
H10   H     H_    0.868975 0.833054 0.062656 0.164660
H11   H     H_    0.906892 0.888474 0.893818 0.147529
H12   H     H_    0.876506 0.167985 0.055821 0.163681
H13   H     H_    0.553609 0.573244 0.278613 0.162084
H14   H     H_    0.371293 0.325773 0.550402 0.159726
H15   H     H_    0.635756 0.408763 0.203976 0.161429
H16   H     H_    0.373563 0.676644 0.549718 0.171896
C41   C     C_R   0.135297 0.204720 0.720402 -0.214232
C42   C     C_R   0.089909 0.656894 0.241531 -0.129531
C43   C     C_R   0.087652 0.660905 0.761065 -0.166299
C44   C     C_R   0.108234 0.326966 0.266300 -0.162754
C45   C     C_R   0.542407 0.849309 0.311564 -0.202448
C46   C     C_R   0.607382 0.169604 0.762931 -0.114395
C47   C     C_R   0.507713 0.168816 0.350887 -0.188878
C48   C     C_R   0.609823 0.826135 0.767419 -0.158053
C49   C     C_R   0.149247 0.181605 0.652889 0.396940
C50   C     C_R   0.099644 0.624157 0.301599 0.387358
C51   C     C_R   0.111607 0.633702 0.699798 0.386478
C52   C     C_R   0.128951 0.345569 0.334856 0.370252
C53   C     C_R   0.511131 0.896259 0.287838 0.393408
C54   C     C_R   0.627841 0.149333 0.830956 0.395114
C55   C     C_R   0.458232 0.127980 0.348202 0.392637
C56   C     C_R   0.631010 0.843490 0.836452 0.376721
C57   C     C_R   0.453731 0.895581 0.236200 0.377874
C58   C     C_R   0.594844 0.169527 0.894827 0.359530
C59   C     C_R   0.401110 0.129741 0.296212 0.377436
C60   C     C_R   0.597394 0.822205 0.899362 0.383538
C61   C     C_R   0.094992 0.183766 0.597880 0.399860
C62   C     C_R   0.067927 0.638124 0.369115 0.378063
C63   C     C_R   0.088348 0.650543 0.629600 0.420035
C64   C     C_R   0.096198 0.324524 0.398413 0.359339
C65   C     C_R   0.431638 0.848249 0.207618 -0.178109
C66   C     C_R   0.541715 0.208413 0.887864 -0.131922
C67   C     C_R   0.398723 0.170311 0.245375 -0.213216
C68   C     C_R   0.542847 0.785291 0.890517 -0.160077
C69   C     C_R   0.026960 0.205603 0.614150 -0.196558
C70   C     C_R   0.028888 0.684844 0.374435 -0.154640
C71   C     C_R   0.037111 0.691043 0.624243 -0.155826
C72   C     C_R   0.042805 0.286670 0.390686 -0.134203
C73   C     C_R   0.464380 0.800720 0.229711 0.007024
C74   C     C_R   0.517622 0.226509 0.818608 -0.022914
C75   C     C_R   0.450877 0.210694 0.245558 -0.012767
C76   C     C_R   0.518470 0.770146 0.820394 -0.008251
C77   C     C_R   0.012102 0.228809 0.682905 0.006679
C78   C     C_R   0.011457 0.715195 0.311696 -0.026104
C79   C     C_R   0.012847 0.718161 0.686831 -0.019304
C80   C     C_R   0.018749 0.270357 0.321031 -0.011437
C81   C     C_R   0.067279 0.228891 0.736258 -0.034681
C82   C     C_R   0.049876 0.703894 0.246764 -0.037201
C83   C     C_R   0.047663 0.707833 0.753797 -0.058426
C84   C     C_R   0.058591 0.285449 0.258771 -0.050370
C85   C     C_R   0.521101 0.800989 0.281986 -0.032982
C86   C     C_R   0.557604 0.211788 0.756312 -0.020590
C87   C     C_R   0.505176 0.210469 0.299753 -0.046846
C88   C     C_R   0.558952 0.785484 0.758721 -0.042917
C89   C     C_R   0.436628 0.752684 0.206139 -0.056657
C90   C     C_R   0.455125 0.258981 0.810249 -0.066379
C91   C     C_R   0.448615 0.251351 0.193272 -0.074065
C92   C     C_R   0.455178 0.739771 0.810812 -0.078604
C93   C     C_R   0.943037 0.251113 0.699121 -0.085087
C94   C     C_R   0.956418 0.755412 0.310808 -0.071966
C95   C     C_R   0.959264 0.757959 0.683426 -0.069221
C96   C     C_R   0.956353 0.239034 0.312486 -0.063675
C97   C     C_R   0.458880 0.706057 0.242382 -0.114117
C98   C     C_R   0.443877 0.286103 0.742817 -0.102762
C99   C     C_R   0.500551 0.292356 0.193648 -0.116079
C100  C     C_R   0.444049 0.713861 0.742979 -0.096761
C101  C     C_R   0.928388 0.274782 0.768365 -0.129940
C102  C     C_R   0.950248 0.788355 0.248252 -0.108679
C103  C     C_R   0.960848 0.797810 0.735203 -0.125436
C104  C     C_R   0.946722 0.211267 0.246207 -0.106280
C105  C     C_R   0.986652 0.278664 0.819723 0.003133
C106  C     C_R   0.983389 0.771692 0.183218 -0.010684
C107  C     C_R   0.991465 0.787100 0.804560 0.024717
C108  C     C_R   0.982645 0.229275 0.182842 0.004856
C109  C     C_R   0.527339 0.705336 0.276536 -0.009573
C110  C     C_R   0.480597 0.267984 0.679985 0.019756
C111  C     C_R   0.553685 0.293407 0.250724 0.003275
C112  C     C_R   0.481159 0.732369 0.680570 0.032074
C113  C     C_R   0.053826 0.252767 0.804417 -0.069847
C114  C     C_R   0.043772 0.738116 0.186799 -0.076770
C115  C     C_R   0.043530 0.745071 0.810639 -0.090336
C116  C     C_R   0.046187 0.259611 0.191096 -0.094721
C117  C     C_R   0.554220 0.752830 0.303321 -0.079021
C118  C     C_R   0.545323 0.238614 0.689164 -0.105440
C119  C     C_R   0.555448 0.251772 0.302592 -0.081148
C120  C     C_R   0.546074 0.760714 0.690425 -0.085537
C121  C     C_R   0.416509 0.660017 0.246788 0.341699
C122  C     C_R   0.396538 0.330045 0.734473 0.361951
C123  C     C_R   0.501305 0.332777 0.139245 0.336956
C124  C     C_R   0.396846 0.670561 0.733983 0.381157
C125  C     C_R   0.858260 0.295564 0.788587 0.312820
C126  C     C_R   0.906915 0.834538 0.244854 0.352187
C127  C     C_R   0.932824 0.848360 0.719695 0.357966
C128  C     C_R   0.901886 0.166564 0.239915 0.364142
C129  C     C_R   0.452367 0.612245 0.257157 -0.240392
C130  C     C_R   0.370573 0.343249 0.664530 -0.221666
C131  C     C_R   0.548450 0.374537 0.146076 -0.194339
C132  C     C_R   0.371812 0.658172 0.663737 -0.238829
C133  C     C_R   0.849360 0.322460 0.853909 -0.200950
C134  C     C_R   0.879137 0.850844 0.176685 -0.225639
C135  C     C_R   0.912896 0.880252 0.778170 -0.164753
C136  C     C_R   0.877095 0.151785 0.170543 -0.209215
C137  C     C_R   0.907404 0.329886 0.900568 -0.292055
C138  C     C_R   0.895732 0.822921 0.113678 -0.333809
C139  C     C_R   0.925945 0.864160 0.849419 -0.289644
C140  C     C_R   0.899161 0.178604 0.108356 -0.257286
C141  C     C_R   0.526762 0.610624 0.272043 -0.304423
C142  C     C_R   0.394370 0.316131 0.603383 -0.257056
C143  C     C_R   0.598813 0.376188 0.202030 -0.310284
C144  C     C_R   0.396068 0.685588 0.602953 -0.278290
C145  C     C_R   0.976211 0.308657 0.884886 0.471751
C146  C     C_R   0.948452 0.783018 0.116491 0.499594
C147  C     C_R   0.967087 0.818757 0.863650 0.541882
C148  C     C_R   0.952769 0.217069 0.113363 0.521556
C149  C     C_R   0.564716 0.656898 0.284877 0.487430
C150  C     C_R   0.450572 0.278973 0.609912 0.538274
C151  C     C_R   0.604207 0.335715 0.253301 0.463153
C152  C     C_R   0.451630 0.722383 0.610208 0.526269
H17   H     H_    0.178606 0.202706 0.760666 0.156391
H18   H     H_    0.111546 0.643779 0.189724 0.203919
H19   H     H_    0.103811 0.646200 0.814292 0.212120
H20   H     H_    0.130445 0.346858 0.219286 0.232200
H21   H     H_    0.583734 0.851773 0.353338 0.178591
H22   H     H_    0.630093 0.150694 0.715436 0.188412
H23   H     H_    0.549135 0.166681 0.393080 0.183172
H24   H     H_    0.632724 0.846316 0.720991 0.231319
H25   H     H_    0.384770 0.849330 0.171663 0.183824
H26   H     H_    0.519825 0.224296 0.937865 0.242289
H27   H     H_    0.354257 0.169993 0.206365 0.190117
H28   H     H_    0.519967 0.768354 0.939621 0.199142
H29   H     H_    0.986350 0.204721 0.571169 0.160865
H30   H     H_    0.012883 0.696336 0.428799 0.213057
H31   H     H_    0.020461 0.703101 0.569956 0.205876
H32   H     H_    0.020439 0.270002 0.440240 0.205039
H33   H     H_    0.796229 0.338059 0.868603 0.204085
H34   H     H_    0.843532 0.884507 0.172388 0.209316
H35   H     H_    0.887644 0.917889 0.768876 0.209027
H36   H     H_    0.841036 0.119023 0.164317 0.205122
H37   H     H_    0.422109 0.576322 0.257751 0.202076
H38   H     H_    0.332603 0.375303 0.656991 0.205474
H39   H     H_    0.548076 0.405303 0.105393 0.201718
H40   H     H_    0.334178 0.626532 0.655696 0.193526
H41   H     H_    0.996719 0.035540 0.012920 0.200591
H42   H     H_    0.009465 0.967018 0.921995 0.194417
H43   H     H_    0.499211 0.552519 0.573956 0.205673
H44   H     H_    0.494785 0.459715 0.565276 0.206368
C153  C     C_R   0.379689 0.044398 0.058347 0.469790
C154  C     C_R   0.389114 0.955233 0.970442 0.451319
C155  C     C_R   0.876926 0.551667 0.590115 0.446976
C156  C     C_R   0.871848 0.443038 0.594618 0.440777
C157  C     C_R   0.448666 0.021358 0.044709 0.245459
C158  C     C_R   0.453446 0.976686 0.999837 0.231593
C159  C     C_R   0.941280 0.522845 0.603916 0.220944
C160  C     C_R   0.937979 0.468301 0.609767 0.216407
C161  C     C_R   0.319962 0.975105 0.991921 -0.135180
C162  C     C_R   0.316476 0.024375 0.024303 -0.145245
C163  C     C_R   0.812563 0.471063 0.562569 -0.126794
C164  C     C_R   0.814281 0.526433 0.561774 -0.121136
C165  C     C_R   0.253644 0.948179 0.979721 0.015986
C166  C     C_R   0.249239 0.051993 0.022374 0.016304
C167  C     C_R   0.747408 0.445621 0.540244 -0.056139
C168  C     C_R   0.749643 0.554271 0.540954 -0.053364
C169  C     C_R   0.187767 0.976334 0.975349 -0.112134
C170  C     C_R   0.183324 0.024522 0.010756 -0.099888
C171  C     C_R   0.680333 0.473474 0.550927 -0.084243
C172  C     C_R   0.682173 0.528705 0.553326 -0.082809
C173  C     C_R   0.126354 0.958150 0.936063 0.360567
C174  C     C_R   0.112958 0.043394 0.031341 0.366066
C175  C     C_R   0.612129 0.448903 0.565623 0.345067
C176  C     C_R   0.617212 0.555976 0.573972 0.363475
C177  C     C_R   0.057812 0.980816 0.949616 -0.261110
C178  C     C_R   0.050838 0.021233 0.999551 -0.260597
C179  C     C_R   0.547490 0.478090 0.560003 -0.258657
C180  C     C_R   0.549966 0.531563 0.565157 -0.257124
O53   O     O_3   0.313079 0.449942 0.115759 -0.694849
H45   H     H_    0.306245 0.449555 0.169691 0.376291
O54   O     O_3   0.180739 0.550583 0.886987 -0.665666
H46   H     H_    0.131286 0.548200 0.864962 0.376017
O55   O     O_3   0.315267 0.547396 0.115846 -0.742079
H47   H     H_    0.313783 0.539000 0.168900 0.368907
O56   O     O_3   0.183522 0.452931 0.884009 -0.685423
H48   H     H_    0.134675 0.456629 0.860803 0.369384
O57   O     O_3   0.774434 0.951292 0.629875 -0.668131
H49   H     H_    0.752959 0.952271 0.679783 0.378037
O58   O     O_3   0.712195 0.049545 0.372219 -0.657635
H50   H     H_    0.670597 0.048296 0.337365 0.374730
O59   O     O_3   0.773097 0.047852 0.631753 -0.712800
H51   H     H_    0.752124 0.043808 0.681570 0.375095
O60   O     O_3   0.713422 0.952418 0.370920 -0.675311
H52   H     H_    0.673241 0.957207 0.335074 0.388545
N1    N     N_R   0.339009 0.662534 0.259978 0.242484
O61   O     O_R   0.310426 0.703104 0.291593 -0.372562
O62   O     O_R   0.298642 0.621803 0.250705 -0.396129
N2    N     N_R   0.382281 0.365285 0.793844 0.228459
O63   O     O_R   0.326123 0.396583 0.791326 -0.358398
O64   O     O_R   0.429112 0.369975 0.846972 -0.355290
N3    N     N_R   0.458998 0.331062 0.073473 0.183366
O65   O     O_R   0.479378 0.299945 0.021392 -0.415660
O66   O     O_R   0.415069 0.369454 0.057773 -0.382846
N4    N     N_R   0.382065 0.634928 0.793041 0.228286
O67   O     O_R   0.428690 0.628828 0.846261 -0.402814
O68   O     O_R   0.325598 0.604681 0.790161 -0.348818
N5    N     N_R   0.793326 0.287101 0.747316 0.196043
O69   O     O_R   0.772458 0.321684 0.699490 -0.346066
O70   O     O_R   0.745956 0.253962 0.771876 -0.372932
N6    N     N_R   0.896716 0.867322 0.307721 0.224211
O71   O     O_R   0.846724 0.903541 0.307142 -0.343432
O72   O     O_R   0.942362 0.865075 0.362302 -0.381907
N7    N     N_R   0.933286 0.869838 0.646444 0.222670
O73   O     O_R   0.967856 0.846267 0.593798 -0.398212
O74   O     O_R   0.914948 0.918207 0.636236 -0.347960
N8    N     N_R   0.888968 0.132460 0.301262 0.230259
O75   O     O_R   0.934857 0.130369 0.355654 -0.385277
O76   O     O_R   0.836237 0.098983 0.299067 -0.338461
O77   O     O_3   0.033813 0.318635 0.931609 -0.779361
H53   H     H_    0.016547 0.339383 0.973892 0.340717
O78   O     O_3   0.959272 0.749858 0.058458 -0.729826
H54   H     H_    0.915140 0.751471 0.026995 0.359658
O79   O     O_3   0.977208 0.802981 0.934758 -0.730274
H55   H     H_    0.965049 0.832199 0.967877 0.331831
O80   O     O_3   0.972311 0.245743 0.052424 -0.761888
H56   H     H_    0.946260 0.232294 0.008960 0.339560
O81   O     O_3   0.638317 0.655577 0.301756 -0.777539
H57   H     H_    0.655103 0.618932 0.305538 0.325006
O82   O     O_3   0.473379 0.250704 0.549834 -0.774917
H58   H     H_    0.446804 0.263182 0.505723 0.334790
O83   O     O_3   0.659165 0.337229 0.305168 -0.789746
H59   H     H_    0.688570 0.369091 0.298783 0.320690
O84   O     O_3   0.474077 0.751399 0.550569 -0.771939
H60   H     H_    0.448055 0.739508 0.506169 0.339877
O85   O     O_3   0.371531 0.084637 0.107728 -0.705440
H61   H     H_    0.419212 0.093269 0.129793 0.388488
O86   O     O_3   0.392085 0.917585 0.916597 -0.693563
H62   H     H_    0.443435 0.909308 0.903995 0.387716
O87   O     O_3   0.871612 0.602826 0.612351 -0.705232
H63   H     H_    0.916176 0.613043 0.639187 0.376441
O88   O     O_3   0.860209 0.393143 0.620306 -0.679631
H64   H     H_    0.903070 0.380053 0.648029 0.385495
O89   O     O_3   0.510120 0.044752 0.072870 -0.752658
H65   H     H_    0.551479 0.039033 0.038881 0.357406
O90   O     O_3   0.519329 0.952157 0.985844 -0.760016
H66   H     H_    0.551783 0.956476 0.028705 0.359562
O91   O     O_3   0.005313 0.549206 0.615858 -0.754590
H67   H     H_    0.046775 0.526778 0.600639 0.362662
O92   O     O_3   0.996446 0.439083 0.635346 -0.748461
H68   H     H_    0.026020 0.460554 0.668777 0.366374
O93   O     O_3   0.188651 0.449005 0.123786 -0.724087
H69   H     H_    0.142595 0.466146 0.108767 0.374777
O94   O     O_3   0.112494 0.552340 0.991019 -0.760356
H70   H     H_    0.099404 0.532749 0.035605 0.384351
O95   O     O_3   0.188762 0.549506 0.123757 -0.789266
H71   H     H_    0.204696 0.576725 0.158225 0.421025
O96   O     O_3   0.112499 0.449750 0.987388 -0.829931
H72   H     H_    0.110412 0.412205 0.975735 0.350969
O97   O     O_3   0.653436 0.947873 0.601700 -0.747833
H73   H     H_    0.612576 0.965791 0.576623 0.381966
O98   O     O_3   0.617120 0.052916 0.452340 -0.722765
H74   H     H_    0.591081 0.033473 0.490846 0.396960
O99   O     O_3   0.650834 0.049294 0.601079 -0.815387
H75   H     H_    0.655285 0.085073 0.620066 0.366853
O100  O     O_3   0.617559 0.950262 0.451636 -0.777918
H76   H     H_    0.619102 0.912194 0.444057 0.349709
N9    N     N_R   0.134710 0.921708 0.876817 0.216578
O101  O     O_R   0.197065 0.916711 0.843280 -0.375557
O102  O     O_R   0.077735 0.900472 0.847619 -0.405689
N10   N     N_R   0.103567 0.080310 0.089712 0.228452
O103  O     O_R   0.152627 0.084224 0.140915 -0.356700
O104  O     O_R   0.042522 0.106087 0.096433 -0.392074
N11   N     N_R   0.608108 0.400258 0.604330 0.234124
O105  O     O_R   0.546215 0.376055 0.608344 -0.405711
O106  O     O_R   0.659941 0.386891 0.649524 -0.322800
N12   N     N_R   0.619372 0.602240 0.618228 0.232110
O107  O     O_R   0.678313 0.613806 0.654289 -0.388026
O108  O     O_R   0.558724 0.625507 0.636386 -0.403884
O109  O     O_3   0.215659 0.156713 0.643844 -0.751368
H77   H     H_    0.210451 0.129435 0.606289 0.354186
O110  O     O_3   0.141718 0.579975 0.292288 -0.718965
H78   H     H_    0.164685 0.570544 0.339631 0.358123
O111  O     O_3   0.159442 0.592793 0.711095 -0.708479
H79   H     H_    0.196751 0.593433 0.671966 0.333639
O112  O     O_3   0.182464 0.382911 0.336838 -0.734747
H80   H     H_    0.209513 0.379639 0.383551 0.337283
O113  O     O_3   0.537979 0.941622 0.316570 -0.746182
H81   H     H_    0.531719 0.969826 0.280014 0.343838
O114  O     O_3   0.681440 0.111327 0.832174 -0.748133
H82   H     H_    0.708195 0.113255 0.879127 0.343914
O115  O     O_3   0.468250 0.087258 0.396618 -0.703846
H83   H     H_    0.448424 0.055310 0.374535 0.351777
O116  O     O_3   0.685810 0.879837 0.839508 -0.749031
H84   H     H_    0.713320 0.874934 0.885695 0.333093
O117  O     O_3   0.415514 0.939542 0.214675 -0.751838
H85   H     H_    0.418851 0.966020 0.253569 0.358281
O118  O     O_3   0.610076 0.151213 0.964330 -0.737204
H86   H     H_    0.626450 0.114573 0.961106 0.340134
O119  O     O_3   0.346027 0.093571 0.293769 -0.710451
H87   H     H_    0.340530 0.077626 0.342830 0.349296
O120  O     O_3   0.613383 0.837627 0.969747 -0.744400
H88   H     H_    0.632555 0.873405 0.968414 0.356859
O121  O     O_3   0.106064 0.165789 0.527711 -0.736269
H89   H     H_    0.158786 0.167631 0.516162 0.349020
O122  O     O_3   0.070128 0.606276 0.429875 -0.701052
H90   H     H_    0.075201 0.569743 0.413944 0.339332
O123  O     O_3   0.112365 0.628435 0.565352 -0.692029
H91   H     H_    0.135469 0.594346 0.575391 0.349783
O124  O     O_3   0.111842 0.341122 0.468324 -0.740170
H92   H     H_    0.128438 0.377549 0.466042 0.347524

loop_
_geom_bond_atom_site_label_1
_geom_bond_atom_site_label_2
_geom_bond_distance
_ccdc_geom_bond_type
O89   H65   0.990098 S    
H7    C36   1.113016 S    
C179  C180  1.381868 A    
O79   H55   0.991786 S    
Zn11  O39   1.945577 S    
O77   H53   0.991819 S    
C56   O116  1.379816 S    
C47   C87   1.419303 A    
O26   C7    1.281147 A    
C91   C99   1.427596 A    
O30   C11   1.274042 A    
C111  C119  1.427490 A    
C105  C113  1.422413 A    
C159  C160  1.409946 A    
C109  C117  1.412321 A    
C18   C165  1.485516 S    
Zn12  O26   1.929052 S    
C160  O92   1.382756 S    
C73   C85   1.410875 A    
C74   C90   1.418904 A    
C164  C168  1.428606 A    
N6    O71   1.300878 A    
C98   C110  1.410078 A    
C167  C171  1.430618 A    
C112  C120  1.412565 A    
C63   C71   1.399453 A    
Zn3   O15   1.930242 S    
C32   O100  1.411613 S    
C122  C130  1.402506 A    
C59   C67   1.394768 A    
C27   O55   1.419873 S    
C32   C39   1.582047 S    
C110  C150  1.419354 A    
O11   C7    1.274630 A    
O34   C15   1.274347 A    
C133  C137  1.377614 A    
C50   C62   1.410668 A    
C21   C37   1.488334 S    
N8    O75   1.301799 A    
C80   C84   1.406739 A    
Zn1   O44   1.943449 S    
C31   C40   1.586736 S    
C14   C118  1.486301 S    
C71   H31   1.080815 S    
Zn2   O43   1.943455 S    
N12   O108  1.301009 A    
C128  C136  1.401885 A    
O57   H49   0.993618 S    
Zn5   O48   1.943449 S    
C69   C77   1.419319 A    
C106  C146  1.404692 A    
C26   O54   1.413133 S    
C102  C106  1.402005 A    
C82   C114  1.406354 A    
Zn7   O46   1.938719 S    
H15   C143  1.083196 S    
O16   C12   1.281321 A    
O58   H50   0.993533 S    
C62   C70   1.397641 A    
Zn16  O4    1.939362 S    
H41   C178  1.082593 S    
C147  O79   1.371330 S    
Zn1   O13   1.937216 S    
C76   C88   1.406059 A    
C43   C83   1.412897 A    
C26   C28   1.586357 S    
C24   C40   1.488821 S    
Zn4   O16   1.936044 S    
C75   C87   1.402961 A    
C103  C107  1.410464 A    
C53   O113  1.377884 S    
C103  C127  1.421944 A    
N9    O101  1.301769 A    
C101  C125  1.435938 A    
C49   C61   1.413500 A    
C157  O89   1.381738 S    
N11   O105  1.300366 A    
C46   C54   1.395405 A    
N7    O74   1.299551 A    
C128  N8    1.441412 S    
C92   C100  1.426098 A    
C151  O83   1.383036 S    
C152  O84   1.382911 S    
C84   C116  1.426330 A    
Zn16  O34   1.935608 S    
N10   O104  1.301012 A    
O98   H74   0.986992 S    
O109  H77   0.989725 S    
C8    C94   1.491719 S    
H8    C35   1.110323 S    
Zn10  O22   1.929052 S    
C125  C133  1.391922 A    
O93   H69   0.986479 S    
O25   C8    1.274075 A    
Zn13  O29   1.932892 S    
C104  C128  1.425183 A    
Zn10  O2    1.956532 S    
C31   O59   1.418406 S    
O29   C12   1.299656 A    
C19   C168  1.510977 S    
Zn15  O33   1.932892 S    
C7    C93   1.454636 S    
C20   C167  1.511143 S    
C86   C118  1.421751 A    
C125  N5    1.426772 S    
O78   H54   0.991994 S    
C94   C102  1.423774 A    
O55   H47   0.992585 S    
C45   C53   1.399782 A    
C42   C50   1.390946 A    
C107  C147  1.425630 A    
N5    O69   1.299344 A    
O90   H66   0.990255 S    
O37   C17   1.290070 A    
C10   C114  1.484327 S    
O48   C23   1.279359 A    
O117  H85   0.989648 S    
O115  H83   0.990066 S    
C2    C92   1.489909 S    
C77   C81   1.403742 A    
C110  C118  1.409643 A    
O85   H61   0.989194 S    
H10   C138  1.082633 S    
O114  H82   0.989492 S    
C99   C123  1.435780 A    
C97   C121  1.424813 A    
O122  H90   0.989784 S    
Zn16  O35   1.933579 S    
C54   O114  1.379796 S    
C90   C98   1.427124 A    
O113  H81   0.990062 S    
H13   C141  1.082940 S    
C60   O120  1.380038 S    
C132  C144  1.388301 A    
Zn7   O10   1.936000 S    
C135  H35   1.082591 S    
H3    C34   1.112728 S    
O33   C16   1.301179 A    
O40   C20   1.293773 A    
C154  C161  1.417763 A    
O112  H80   0.989489 S    
C173  C177  1.402023 A    
N2    O63   1.301385 A    
C131  H39   1.083587 S    
N4    O68   1.301474 A    
C55   C59   1.412959 A    
C48   H24   1.079535 S    
C156  C160  1.407976 A    
N2    O64   1.301832 A    
Zn5   O17   1.937216 S    
C34   C38   1.557142 S    
C108  C116  1.415874 A    
H12   C140  1.082944 S    
C27   O95   1.417688 S    
N1    O62   1.300461 A    
Zn14  O50   1.945620 S    
H6    C36   1.112171 S    
Zn8   O3    1.949710 S    
Zn11  O28   1.935355 S    
O38   C18   1.270156 A    
C74   C86   1.405547 A    
C70   H30   1.077911 S    
C71   C79   1.412776 A    
C135  C139  1.384210 A    
O5    C1    1.275102 A    
C98   C122  1.426633 A    
C28   O56   1.416295 S    
C67   C75   1.418381 A    
O32   C9    1.279338 A    
C41   C81   1.418010 A    
C49   O109  1.379920 S    
O53   H45   0.993426 S    
Zn15  O51   1.937139 S    
C177  C178  1.392659 A    
C134  H34   1.082431 S    
C25   O53   1.415283 S    
C30   O98   1.417333 S    
C52   C64   1.415004 A    
Zn7   O4    1.949712 S    
C51   C63   1.416037 A    
C79   C95   1.413442 A    
C29   C39   1.586879 S    
C153  O85   1.384590 S    
C26   O94   1.417160 S    
C36   C40   1.554526 S    
O8    C4    1.277733 A    
C66   H26   1.078799 S    
C70   C78   1.418760 A    
N11   O106  1.300682 A    
O50   C18   1.297569 A    
C28   O96   1.412976 S    
C101  C105  1.425135 A    
C58   O118  1.379921 S    
C127  C135  1.397557 A    
C146  O78   1.378123 S    
C126  N6    1.440273 S    
C142  C150  1.403461 A    
H42   C177  1.082580 S    
Zn13  O1    1.956230 S    
C104  C108  1.410337 A    
C60   C68   1.395104 A    
O111  H79   0.989313 S    
C46   H22   1.078979 S    
C16   C120  1.488750 S    
C65   C73   1.414836 A    
C136  H36   1.082532 S    
C22   C38   1.489074 S    
C59   O119  1.380073 S    
C131  C143  1.377672 A    
O39   C19   1.289325 A    
O36   C13   1.286951 A    
C78   C94   1.438507 A    
C47   C55   1.395422 A    
C89   C97   1.424416 A    
O13   C9    1.272913 A    
C138  C146  1.404175 A    
Zn1   O8    1.932931 S    
N6    O72   1.301720 A    
Zn2   O7    1.937170 S    
C83   C115  1.418798 A    
Zn3   O6    1.936000 S    
O18   C14   1.270334 A    
O31   C10   1.286484 A    
O6    C2    1.283395 A    
C43   H19   1.082019 S    
O119  H87   0.989653 S    
C173  N9    1.443597 S    
C163  C164  1.426490 A    
C136  C140  1.388836 A    
O87   H63   0.990203 S    
O100  H76   0.990890 S    
Zn14  O30   1.935608 S    
Zn15  O3    1.956230 S    
Zn11  O3    1.939664 S    
O123  H91   0.987272 S    
O41   C21   1.271183 A    
C176  C180  1.397354 A    
C43   C51   1.392564 A    
C53   C57   1.412445 A    
C44   C52   1.397013 A    
C67   H27   1.082059 S    
C95   C103  1.399842 A    
C27   C38   1.583521 S    
H1    C33   1.111438 S    
O96   H72   0.992145 S    
H14   C142  1.082898 S    
C93   C101  1.431614 A    
O120  H88   0.989143 S    
Zn8   O20   1.936044 S    
C88   C120  1.424941 A    
C153  C157  1.413369 A    
C156  O88   1.384042 S    
C175  N11   1.437862 S    
C96   C104  1.421292 A    
C78   C82   1.409907 A    
C32   O60   1.415500 S    
C155  C159  1.408890 A    
C48   C56   1.396398 A    
C35   C36   1.534141 S    
C99   C111  1.426512 A    
O92   H68   0.990358 S    
C4    C90   1.489586 S    
C97   C109  1.400040 A    
C62   O122  1.377261 S    
C80   C96   1.413717 A    
H5    C35   1.108279 S    
C121  C129  1.401116 A    
N3    O65   1.299841 A    
C1    C91   1.451856 S    
C157  C158  1.418152 A    
Zn8   O9    1.930201 S    
C111  C151  1.436704 A    
C124  N4    1.440279 S    
C109  C149  1.424742 A    
C139  C147  1.408101 A    
C169  C173  1.418331 A    
C155  C164  1.422312 A    
C11   C115  1.493676 S    
C174  C178  1.404217 A    
C171  C175  1.430173 A    
O60   H52   0.991322 S    
O7    C3    1.263064 A    
C172  C176  1.427718 A    
C15   C119  1.451431 S    
C54   C58   1.413735 A    
O54   H46   0.993366 S    
C64   O124  1.379884 S    
O19   C15   1.273783 A    
C13   C117  1.455776 S    
C112  C152  1.420151 A    
C100  C112  1.410808 A    
Zn9   O24   1.935355 S    
C161  C165  1.421985 A    
Zn6   O18   1.932973 S    
Zn10  O23   1.932642 S    
H44   C179  1.082902 S    
C105  C145  1.434480 A    
O56   H48   0.993300 S    
C81   C113  1.412495 A    
O80   H56   0.991841 S    
C51   O111  1.378544 S    
C123  C131  1.391281 A    
C133  H33   1.083634 S    
Zn15  O36   1.929305 S    
O15   C11   1.299356 A    
C30   O58   1.412885 S    
O42   C22   1.279736 A    
C63   O123  1.377841 S    
Zn4   O1    1.949710 S    
C30   C32   1.585061 S    
C102  C126  1.424697 A    
C28   C37   1.580875 S    
H2    C34   1.110416 S    
Zn9   O37   1.945577 S    
O12   C8    1.292916 A    
O84   H60   0.991918 S    
C41   H17   1.082240 S    
C106  C114  1.398689 A    
H16   C144  1.082931 S    
C108  C148  1.420021 A    
C165  C169  1.403774 A    
C65   H25   1.080672 S    
C66   C74   1.415224 A    
C129  H37   1.082674 S    
Zn1   O1    1.940277 S    
C56   C60   1.414596 A    
C42   C82   1.412937 A    
C121  N1    1.440530 S    
O110  H78   0.989870 S    
C72   H32   1.082303 S    
N12   O107  1.301963 A    
Zn5   O3    1.940277 S    
C44   H20   1.079535 S    
Zn6   O4    1.940276 S    
C100  C124  1.427195 A    
Zn2   O14   1.932973 S    
C31   O99   1.415501 S    
C141  C149  1.405653 A    
C58   C66   1.395055 A    
N7    O73   1.301558 A    
C33   C34   1.537165 S    
C176  N12   1.444134 S    
C158  O90   1.381250 S    
C45   H21   1.077153 S    
C46   C86   1.416314 A    
C23   C39   1.491409 S    
C87   C119  1.414182 A    
O28   C5    1.268271 A    
C68   H28   1.081881 S    
C85   C117  1.427864 A    
Zn3   O42   1.938719 S    
O59   H51   0.993472 S    
O21   C4    1.287673 A    
C137  C145  1.399227 A    
O118  H86   0.989448 S    
N9    O102  1.298158 A    
C17   C166  1.485919 S    
C64   C72   1.394600 A    
C9    C113  1.451170 S    
C73   C89   1.410921 A    
Zn6   O47   1.943455 S    
O82   H58   0.991885 S    
C68   C76   1.414527 A    
Zn2   O2    1.940276 S    
H43   C180  1.082923 S    
Zn14  O2    1.939362 S    
H9    C137  1.083199 S    
O94   H70   0.986829 S    
N10   O103  1.301725 A    
O121  H89   0.989854 S    
C26   C38   1.580953 S    
C57   C65   1.391925 A    
Zn13  O49   1.937139 S    
N1    O61   1.302145 A    
C150  O82   1.382914 S    
C123  N3    1.430681 S    
Zn12  O4    1.956532 S    
C45   C85   1.417126 A    
C107  C115  1.439605 A    
Zn12  O27   1.932642 S    
C140  C148  1.404254 A    
H4    C33   1.109947 S    
C127  N7    1.445673 S    
C12   C116  1.490467 S    
Zn3   O2    1.949712 S    
O88   H64   0.989592 S    
N5    O70   1.300813 A    
O46   C24   1.278720 A    
O47   C24   1.272524 A    
O116  H84   0.989608 S    
C163  C167  1.426819 A    
Zn16  O52   1.945620 S    
O9    C5    1.296870 A    
C33   C37   1.557412 S    
Zn8   O45   1.938713 S    
C61   C69   1.394924 A    
O27   C6    1.294377 A    
C124  C132  1.402068 A    
C75   C91   1.414036 A    
C76   C92   1.415508 A    
C57   O117  1.380836 S    
C61   O121  1.379823 S    
C130  C142  1.388793 A    
H11   C139  1.083220 S    
C29   C31   1.575302 S    
C134  C138  1.392700 A    
C122  N2    1.440338 S    
C29   O97   1.418811 S    
C174  N10   1.441684 S    
N3    O66   1.299671 A    
C149  O81   1.382562 S    
O24   C1    1.273662 A    
C129  C141  1.389318 A    
C154  C158  1.412766 A    
O124  H92   0.989388 S    
C25   C37   1.585737 S    
C169  C170  1.404108 A    
C69   H29   1.081794 S    
C3    C89   1.469601 S    
C25   O93   1.419613 S    
O43   C22   1.271419 A    
O14   C10   1.275570 A    
Zn4   O41   1.938713 S    
C79   C83   1.402612 A    
N4    O67   1.301747 A    
Zn5   O12   1.932931 S    
C30   C40   1.583224 S    
Zn6   O11   1.937170 S    
Zn9   O21   1.933329 S    
C161  C162  1.403647 A    
N8    O76   1.301072 A    
O35   C14   1.292481 A    
O99   H75   0.990227 S    
Zn12  O40   1.937099 S    
C145  O77   1.383456 S    
Zn9   O1    1.939664 S    
C170  C174  1.424360 A    
C52   O112  1.379806 S    
O52   C20   1.283265 A    
C175  C179  1.399756 A    
C29   O57   1.412410 S    
C132  H40   1.082528 S    
C171  C172  1.423895 A    
O95   H71   0.990582 S    
C41   C49   1.395126 A    
O44   C21   1.279303 A    
O22   C3    1.299793 A    
C162  C166  1.416557 A    
Zn7   O19   1.930242 S    
C168  C172  1.422919 A    
Zn13  O32   1.929305 S    
O49   C17   1.278915 A    
Zn14  O31   1.933579 S    
C143  C151  1.400600 A    
O91   H67   0.990529 S    
O51   C19   1.287561 A    
C126  C134  1.405963 A    
C155  O87   1.383246 S    
C159  O91   1.378118 S    
C47   H23   1.082147 S    
O97   H73   0.986861 S    
Zn4   O5    1.930201 S    
O86   H62   0.989780 S    
O17   C13   1.269186 A    
C154  O86   1.385566 S    
O20   C16   1.278275 A    
C156  C163  1.422340 A    
O10   C6    1.285742 A    
O23   C2    1.296918 A    
Zn11  O25   1.933329 S    
Zn10  O38   1.937099 S    
C144  C152  1.403370 A    
C48   C88   1.417146 A    
C5    C95   1.483004 S    
C153  C162  1.416452 A    
C6    C96   1.490039 S    
C72   C80   1.413788 A    
C25   C27   1.570912 S    
C166  C170  1.421072 A    
C50   O110  1.379521 S    
C44   C84   1.416885 A    
O81   H57   0.991830 S    
C130  H38   1.082569 S    
C35   C39   1.554159 S    
C148  O80   1.381997 S    
O83   H59   0.991938 S    
C77   C93   1.416303 A    
C55   O115  1.379407 S    
O45   C23   1.272403 A    
C42   H18   1.080883 S    
