data_mof_unit_58505.cif
_audit_creation_date              2012-12-10T20:48:47-0500
_audit_creation_method            fapswitch 2.2
_symmetry_space_group_name_H-M    P1
_symmetry_Int_Tables_number       1
_space_group_crystal_system       triclinic
_cell_length_a                    15.78485
_cell_length_b                    8.929741
_cell_length_c                    8.112857
_cell_angle_alpha                 89.999952
_cell_angle_beta                  90.117547
_cell_angle_gamma                 90.00098
_cell_volume                      1143.54228684

loop_
_atom_site_label
_atom_site_type_symbol
_atom_type_description
_atom_site_fract_x
_atom_site_fract_y
_atom_site_fract_z
_atom_type_partial_charge
C1    C     C_R   0.500000 0.218007 0.500000 0.937637
C2    C     C_3   0.049967 0.415504 0.326496 0.226570
C3    C     C_3   0.950010 0.413755 0.672492 0.226110
C4    C     C_3   0.948696 0.396149 0.337440 0.178821
C5    C     C_1   0.750660 0.495208 0.500598 -0.187642
C6    C     C_1   0.249345 0.495062 0.499391 -0.187729
C7    C     C_3   0.082903 0.483219 0.499554 0.173333
C8    C     C_3   0.917102 0.483347 0.500314 0.172927
C9    C     C_3   0.951455 0.648104 0.491865 -0.512868
C10   C     C_3   0.048623 0.647925 0.510165 -0.513057
C11   C     C_1   0.825672 0.489872 0.500709 -0.045204
C12   C     C_1   0.174332 0.489674 0.499234 -0.044987
C13   C     C_R   0.337894 0.499918 0.499826 0.901629
C14   C     C_R   0.662104 0.499951 0.500173 0.901686
C15   C     C_1   0.500000 0.934787 0.500000 -0.193063
C16   C     C_1   0.500000 0.065191 0.500000 -0.191351
C17   C     C_R   0.500000 0.781969 0.500000 0.930501
C18   C     C_3   0.051280 0.394262 0.661250 0.178273
H1    H     H_    0.066168 0.706739 0.624792 0.179303
H2    H     H_    0.088278 0.193204 0.773109 0.192527
H3    H     H_    0.101197 0.196281 0.373675 0.187039
H4    H     H_    0.066365 0.226921 0.178111 0.194358
H5    H     H_    0.136755 0.539589 0.187073 0.196546
H6    H     H_    0.040289 0.621133 0.191575 0.172579
H7    H     H_    0.155484 0.420091 0.819425 0.200982
H8    H     H_    0.094775 0.570999 0.819971 0.170734
H9    H     H_    0.844517 0.423989 0.179636 0.201349
H10   H     H_    0.905419 0.574721 0.181001 0.169877
H11   H     H_    0.863362 0.536752 0.813373 0.196628
H12   H     H_    0.077902 0.721926 0.416257 0.182614
H13   H     H_    0.959957 0.617891 0.810067 0.173211
H14   H     H_    0.922218 0.721120 0.586751 0.182501
H15   H     H_    0.933942 0.708214 0.378035 0.179354
H16   H     H_    0.898074 0.195608 0.622352 0.187239
H17   H     H_    0.933672 0.223270 0.818075 0.193568
H18   H     H_    0.965773 0.164834 0.391257 0.145680
H19   H     H_    0.912295 0.196277 0.222578 0.193047
H20   H     H_    0.033795 0.163383 0.605340 0.145899
N1    N     N_1   0.500000 0.500030 0.073640 -0.033217
N2    N     N_3   0.928496 0.515499 0.810680 -0.417815
N3    N     N_1   0.500000 0.500030 0.926360 -0.033219
N4    N     N_3   0.905355 0.273736 0.715447 -0.460621
N5    N     N_3   0.921601 0.237394 0.342124 -0.485913
N6    N     N_3   0.078274 0.235493 0.654275 -0.486049
N7    N     N_3   0.094504 0.275796 0.281852 -0.460311
N8    N     N_3   0.071590 0.518608 0.189586 -0.418924
N9    N     N_3   0.092283 0.455109 0.812626 -0.426135
N10   N     N_3   0.907748 0.458754 0.186906 -0.425999
O1    O     O_R   0.500000 0.285340 0.636850 -0.614531
O2    O     O_R   0.500000 0.285340 0.363150 -0.614511
O3    O     O_R   0.377140 0.500000 0.636930 -0.618331
O4    O     O_R   0.377140 0.500000 0.363070 -0.614747
O5    O     O_R   0.622860 0.500000 0.636930 -0.614812
O6    O     O_R   0.622860 0.500000 0.363070 -0.618309
O7    O     O_R   0.500000 0.714650 0.636900 -0.616377
O8    O     O_R   0.500000 0.714650 0.363100 -0.616386
Zn1   Zn    Zn3+2 0.500000 0.499990 0.682780 0.989776
Zn2   Zn    Zn3+2 0.500000 0.499990 0.317220 0.989811

loop_
_geom_bond_atom_site_label_1
_geom_bond_atom_site_label_2
_ccdc_geom_bond_type
H9    N10   S    
H19   N5    S    
C7    C10   S    
C2    C4    S    
C3    N4    S    
H20   N6    S    
O3    Zn1   S    
C4    N5    S    
C18   N6    S    
C13   O4    A    
C9    C10   S    
H7    N9    S    
C2    C7    S    
H16   N4    S    
C10   H1    S    
C4    C8    S    
C7    C18   S    
H6    N8    S    
C18   N9    S    
C14   O5    A    
O6    Zn2   S    
N3    Zn1   S    
N1    N3    T    
C1    C16   S    
C13   O3    A    
C2    N8    S    
C6    C13   S    
C9    H15   S    
C17   O8    A    
C5    C14   S    
O4    Zn2   S    
H8    N9    S    
C8    C11   S    
H11   N2    S    
H2    N6    S    
O8    Zn2   S    
C3    N2    S    
C5    C11   T    
H3    N7    S    
O7    Zn1   S    
C2    N7    S    
C6    C12   T    
C7    C12   S    
C10   H12   S    
C15   C16   T    
O2    Zn2   S    
H4    N7    S    
O1    Zn1   S    
H13   N2    S    
C3    C18   S    
C4    N10   S    
C3    C8    S    
C1    O2    A    
H5    N8    S    
H17   N4    S    
C17   O7    A    
H10   N10   S    
H18   N5    S    
O5    Zn1   S    
C9    H14   S    
C14   O6    A    
C15   C17   S    
N1    Zn2   S    
C1    O1    A    
C8    C9    S    
