data_mof_unit_43628.cif
_audit_creation_date              2013-03-05T15:48:53-0500
_audit_creation_method            fapswitch 2.2
_symmetry_space_group_name_H-M    P1
_symmetry_Int_Tables_number       1
_space_group_crystal_system       triclinic
_cell_length_a                    15.899532
_cell_length_b                    12.981949
_cell_length_c                    11.818932
_cell_angle_alpha                 100.293658
_cell_angle_beta                  93.897729
_cell_angle_gamma                 94.161354
_cell_volume                      2385.75946409

loop_
_atom_site_label
_atom_site_type_symbol
_atom_site_description
_atom_site_fract_x
_atom_site_fract_y
_atom_site_fract_z
_atom_type_partial_charge
O1    O     O_R   0.504390 0.354460 0.582000 -0.583207
O2    O     O_R   0.493940 0.341410 0.386200 -0.506239
C1    C     C_R   0.507455 0.300280 0.477988 0.855269
O3    O     O_R   0.384660 0.506540 0.597940 -0.544462
O4    O     O_R   0.374210 0.493480 0.402140 -0.530980
C2    C     C_R   0.340400 0.500011 0.499958 0.793881
Cu1   Cu    Cu3+1 0.506190 0.507730 0.615930 1.095081
Cu2   Cu    Cu3+1 0.493810 0.492270 0.384070 1.075509
O5    O     O_R   0.506060 0.658590 0.613800 -0.518300
O6    O     O_R   0.495610 0.645540 0.418000 -0.529283
O7    O     O_R   0.625790 0.506520 0.597860 -0.503723
O8    O     O_R   0.615340 0.493460 0.402060 -0.628868
C3    C     C_R   0.494498 0.700446 0.522061 0.828770
C4    C     C_R   0.659378 0.498959 0.500002 0.790056
C5    C     C_3   0.052222 0.467330 0.598536 -0.544301
C6    C     C_3   0.040897 0.429299 0.375498 0.416021
C7    C     C_3   0.941477 0.406665 0.389692 0.646348
H1    H     H_    0.065793 0.384527 0.593570 0.270668
C8    C     C_1   0.748519 0.497563 0.499762 -0.128099
C9    C     C_3   0.082616 0.506298 0.489519 -0.267201
C10   C     C_3   0.956076 0.482083 0.612463 0.665876
C11   C     C_3   0.915885 0.499916 0.489950 -0.265280
C12   C     C_3   0.952912 0.613847 0.469865 0.730500
C13   C     C_3   0.054942 0.622681 0.494292 0.755478
C14   C     C_1   0.823819 0.497704 0.496176 0.099472
C15   C     C_1   0.175540 0.505358 0.496452 0.187571
C16   C     C_1   0.251016 0.502598 0.499576 -0.065899
H2    H     H_    0.091666 0.509886 0.676463 0.236990
C17   C     C_R   0.488429 0.815220 0.536773 -0.334173
C18   C     C_R   0.519510 0.186975 0.463533 -0.310596
C19   C     C_R   0.497495 0.012851 0.344700 0.277627
C20   C     C_R   0.510516 0.122032 0.353316 0.232179
C21   C     C_R   0.539904 0.142555 0.561024 0.269335
C22   C     C_R   0.521690 0.033516 0.555141 -0.191572
C23   C     C_R   0.495903 0.969125 0.446116 -0.169821
C24   C     C_R   0.472161 0.861498 0.439563 0.320436
C25   C     C_R   0.501738 0.880011 0.647104 0.212150
C26   C     C_R   0.522204 0.988423 0.655901 0.277815
N1    N     N_R   0.515490 0.519350 0.790130 -0.297621
N2    N     N_R   0.484510 0.480650 0.209890 -0.294757
C27   C     C_R   0.409621 0.407722 0.023299 0.379620
C28   C     C_R   0.420040 0.416259 0.144858 0.365267
C29   C     C_R   0.538369 0.542433 0.156722 0.649556
C30   C     C_R   0.535349 0.527686 0.032858 -0.277147
C31   C     C_R   0.466813 0.465465 0.965690 -0.252866
C32   C     C_R   0.455533 0.466528 0.843716 0.662127
C33   C     C_R   0.585417 0.573144 0.854012 0.395679
C34   C     C_R   0.596741 0.578094 0.974544 0.410917
N3    N     N_R   0.911849 0.389724 0.649692 0.128999
O9    O     O_R   0.834606 0.393983 0.679309 -0.296994
O10   O     O_R   0.952552 0.311360 0.672527 -0.322842
O11   O     O_3   0.948435 0.574550 0.696034 -0.535528
C35   C     C_3   0.965754 0.562254 0.811902 -0.061194
H3    H     H_    0.994723 0.638225 0.862698 0.172856
H4    H     H_    0.009920 0.501490 0.822688 0.156672
H5    H     H_    0.905635 0.542875 0.849043 0.194501
O12   O     O_3   0.929412 0.620329 0.352279 -0.614135
C36   C     C_3   0.942062 0.720922 0.321821 -0.137353
H6    H     H_    0.966960 0.784918 0.393652 0.159698
H7    H     H_    0.880966 0.742123 0.285172 0.132289
H8    H     H_    0.986332 0.716860 0.252851 0.233171
N4    N     N_R   0.410527 0.808767 0.349175 0.146882
O13   O     O_R   0.335307 0.841703 0.343590 -0.363041
O14   O     O_R   0.432131 0.741979 0.262744 -0.229090
N5    N     N_R   0.481656 0.838907 0.748613 0.185474
O15   O     O_R   0.526533 0.870373 0.846566 -0.185503
O16   O     O_R   0.410233 0.782804 0.747526 -0.320377
N6    N     N_R   0.496686 0.946315 0.233764 0.194710
O17   O     O_R   0.430224 0.935058 0.160637 -0.193372
O18   O     O_R   0.561251 0.893219 0.207884 -0.262842
N7    N     N_R   0.533991 0.053215 0.768018 0.190470
O19   O     O_R   0.468381 0.085021 0.819591 -0.349323
O20   O     O_R   0.607766 0.064855 0.825794 -0.214692
N8    N     N_R   0.527189 0.165167 0.252212 0.177707
O21   O     O_R   0.478535 0.136843 0.157111 -0.264950
O22   O     O_R   0.596808 0.224292 0.251530 -0.364644
N9    N     N_R   0.596339 0.203035 0.653170 0.170675
O23   O     O_R   0.677285 0.209045 0.642117 -0.290690
O24   O     O_R   0.567869 0.258543 0.743008 -0.336411
O25   O     O_3   0.376006 0.436606 0.786418 -0.524664
C37   C     C_3   0.368007 0.330250 0.730126 -0.082593
H9    H     H_    0.304930 0.294824 0.744154 0.184398
H10   H     H_    0.416652 0.281925 0.760461 0.170511
H11   H     H_    0.366017 0.324376 0.635637 0.155322
N10   N     N_R   0.647332 0.629008 0.799955 0.161817
O26   O     O_R   0.637936 0.725245 0.788720 -0.286491
O27   O     O_R   0.720106 0.591873 0.782279 -0.356963
O28   O     O_3   0.340558 0.346353 0.961886 -0.550039
C38   C     C_3   0.346744 0.238772 0.966715 -0.102302
H12   H     H_    0.306117 0.214783 0.031674 0.237794
H13   H     H_    0.412760 0.218579 0.983836 0.208263
H14   H     H_    0.321432 0.190172 0.882898 0.165256
O29   O     O_3   0.668078 0.634609 0.034736 -0.534989
C39   C     C_3   0.739121 0.574586 0.022837 -0.223790
H15   H     H_    0.787145 0.614809 0.978320 0.228635
H16   H     H_    0.724933 0.491485 0.977014 0.166631
H17   H     H_    0.770040 0.573134 0.109035 0.133678
N11   N     N_R   0.354185 0.368844 0.200261 0.148143
O30   O     O_R   0.365181 0.283523 0.240337 -0.325115
O31   O     O_R   0.277637 0.395805 0.185622 -0.246188
O32   O     O_3   0.571178 0.640146 0.218234 -0.476948
C40   C     C_3   0.653705 0.639521 0.269428 -0.080501
H18   H     H_    0.695926 0.700266 0.241454 0.194242
H19   H     H_    0.680821 0.562533 0.249487 0.086974
H20   H     H_    0.653876 0.665880 0.363896 0.130962
N12   N     N_R   0.060696 0.478664 0.274520 0.177116
O33   O     O_R   0.139358 0.492343 0.252716 -0.270808
O34   O     O_R   0.003929 0.498876 0.198872 -0.260388
N13   N     N_R   0.077957 0.326275 0.354786 0.190673
O35   O     O_R   0.128638 0.295555 0.430905 -0.348528
O36   O     O_R   0.056335 0.261642 0.257868 -0.230710
O37   O     O_3   0.935051 0.309686 0.432187 -0.575134
C41   C     C_3   0.857321 0.247685 0.403994 -0.023659
H21   H     H_    0.845348 0.219228 0.309521 0.189344
H22   H     H_    0.804248 0.288566 0.441836 0.148053
H23   H     H_    0.861381 0.176620 0.443361 0.194276
O38   O     O_3   0.900570 0.390141 0.274393 -0.515543
C42   C     C_3   0.816903 0.416680 0.256050 -0.193144
H24   H     H_    0.798215 0.395059 0.162204 0.200272
H25   H     H_    0.811896 0.501877 0.278768 0.167749
H26   H     H_    0.770512 0.371412 0.297491 0.137954
O39   O     O_3   0.080996 0.679871 0.608868 -0.587275
C43   C     C_3   0.076099 0.790202 0.626580 -0.115101
H27   H     H_    0.055375 0.820939 0.548766 0.149845
H28   H     H_    0.139297 0.829935 0.660174 0.159700
H29   H     H_    0.032033 0.812679 0.693880 0.218651
O40   O     O_3   0.092724 0.669981 0.406862 -0.607875
C44   C     C_3   0.177685 0.714104 0.432283 -0.162127
H30   H     H_    0.207446 0.707623 0.518049 0.155162
H31   H     H_    0.179980 0.798679 0.426952 0.195876
H32   H     H_    0.216934 0.675779 0.365619 0.238516
O41   O     O_3   0.920494 0.695495 0.549970 -0.560646
C45   C     C_3   0.839119 0.725924 0.520516 -0.225254
H33   H     H_    0.798220 0.717338 0.591262 0.222812
H34   H     H_    0.806629 0.681148 0.438685 0.123822
H35   H     H_    0.844851 0.810346 0.514232 0.167403

loop_
_geom_bond_atom_site_label_1
_geom_bond_atom_site_label_2
_geom_bond_distance
_ccdc_geom_bond_type
C5    H1    1.103787 S    
N9    O23   1.300562 A    
C7    O37   1.435961 S    
O29   C39   1.418804 S    
C27   C28   1.418422 A    
C23   C24   1.407657 A    
C44   H30   1.108842 S    
C10   N3    1.494629 S    
C37   H9    1.108016 S    
O12   C36   1.419551 S    
C43   H27   1.105727 S    
N10   O26   1.297875 A    
C30   C31   1.412643 A    
Cu1   O7    1.928789 S    
C17   C24   1.405938 A    
C15   C16   1.201425 T    
O32   C40   1.408270 S    
N8    O22   1.301762 A    
C33   N10   1.432024 S    
C3    C17   1.479932 S    
C28   N11   1.430991 S    
C20   N8    1.439591 S    
O4    C2    1.299543 A    
O7    C4    1.297492 A    
C43   H28   1.109375 S    
N12   O33   1.300052 A    
C36   H7    1.109583 S    
N11   O30   1.298504 A    
C40   H20   1.107527 S    
C12   O12   1.433116 S    
C22   C23   1.421526 A    
O5    C3    1.304840 A    
C42   H24   1.108663 S    
N4    O14   1.299088 A    
N2    C29   1.387476 A    
C19   C20   1.401831 A    
N6    O17   1.301261 A    
N5    O16   1.301856 A    
C11   C14   1.469092 S    
C25   N5    1.442979 S    
C13   O40   1.436425 S    
C12   C13   1.620377 S    
Cu2   O8    1.928146 S    
C38   H13   1.114174 S    
C6    N12   1.493072 S    
C41   H23   1.108935 S    
C36   H8    1.109387 S    
N10   O27   1.301045 A    
O1    Cu1   1.955946 S    
C10   C11   1.604381 S    
C19   N6    1.434121 S    
O3    Cu1   1.928148 S    
C24   N4    1.438440 S    
O37   C41   1.410689 S    
C37   H10   1.110602 S    
C6    N13   1.487588 S    
C35   H4    1.111654 S    
C5    C9    1.559399 S    
N8    O21   1.299910 A    
C18   C20   1.411666 A    
C33   C34   1.413024 A    
C9    C13   1.596536 S    
Cu1   Cu2   2.704228 S    
O3    C2    1.299586 A    
C34   O29   1.383420 S    
N7    O20   1.301358 A    
C6    C7    1.612280 S    
C43   H29   1.109599 S    
C39   H17   1.104544 S    
N3    O10   1.302497 A    
C36   H6    1.105522 S    
C35   H3    1.109105 S    
O1    C1    1.308585 A    
C42   H26   1.103796 S    
C1    C18   1.478208 S    
C40   H19   1.110188 S    
C29   C30   1.439108 A    
C29   O32   1.390168 S    
C25   C26   1.405029 A    
C45   H35   1.109262 S    
C2    C16   1.423714 S    
C6    C9    1.598765 S    
N4    O13   1.300419 A    
C13   O39   1.440965 S    
C21   C22   1.412454 A    
N9    O24   1.300314 A    
C39   H15   1.107909 S    
C38   H14   1.107679 S    
C39   H16   1.116823 S    
N1    C32   1.386548 A    
Cu2   O6    1.955945 S    
O8    C4    1.299364 A    
N5    O15   1.301009 A    
N11   O31   1.299437 A    
C45   H33   1.109570 S    
C19   C23   1.415904 A    
O40   C44   1.419212 S    
C44   H32   1.108852 S    
C37   H11   1.103793 S    
O11   C35   1.417715 S    
N1    C33   1.370626 A    
C41   H21   1.110369 S    
C35   H5    1.109624 S    
Cu1   O5    1.963259 S    
C27   O28   1.387553 S    
C26   N7    1.429525 S    
C27   C31   1.421285 A    
C18   C21   1.406824 A    
C22   C26   1.417550 A    
C4    C8    1.418933 S    
O2    Cu2   1.963259 S    
O25   C37   1.414180 S    
C9    C15   1.475201 S    
O6    C3    1.308623 A    
C44   H31   1.109070 S    
O4    Cu2   1.928791 S    
C7    O38   1.442499 S    
C7    C11   1.630815 S    
N13   O36   1.302078 A    
O2    C1    1.303890 A    
O39   C43   1.418675 S    
N7    O19   1.299694 A    
O38   C42   1.410428 S    
C32   O25   1.388015 S    
C21   N9    1.437689 S    
C5    H2    1.111810 S    
N12   O34   1.300506 A    
N2    C28   1.370815 A    
C12   O41   1.439604 S    
O41   C45   1.418909 S    
C40   H18   1.108301 S    
C8    C14   1.200742 T    
C42   H25   1.100576 S    
C31   C32   1.443222 A    
C5    C10   1.570385 S    
O28   C38   1.418134 S    
N6    O18   1.300973 A    
N3    O9    1.302031 A    
C17   C25   1.413269 A    
C45   H34   1.108024 S    
Cu1   N1    2.031722 S    
C11   C12   1.615124 S    
Cu2   N2    2.031487 S    
C38   H12   1.107850 S    
N13   O35   1.301542 A    
C10   O11   1.430051 S    
C30   C34   1.419847 A    
C41   H22   1.106902 S    
