data_mof_unit_41279.cif
_audit_creation_date              2013-03-05T15:45:31-0500
_audit_creation_method            fapswitch 2.2
_symmetry_space_group_name_H-M    P1
_symmetry_Int_Tables_number       1
_space_group_crystal_system       triclinic
_cell_length_a                    9.807177
_cell_length_b                    10.906003
_cell_length_c                    13.426394
_cell_angle_alpha                 93.84965
_cell_angle_beta                  81.584925
_cell_angle_gamma                 110.944149
_cell_volume                      1326.55744048

loop_
_atom_site_label
_atom_site_type_symbol
_atom_site_description
_atom_site_fract_x
_atom_site_fract_y
_atom_site_fract_z
_atom_type_partial_charge
O1    O     O_R   0.426290 0.668220 0.490680 -0.609215
O2    O     O_R   0.659360 0.703290 0.520190 -0.536768
C1    C     C_R   0.557311 0.747011 0.504513 0.717993
O3    O     O_R   0.326580 0.473880 0.629020 -0.528394
O4    O     O_R   0.559660 0.508940 0.658530 -0.566322
C2    C     C_R   0.422164 0.489755 0.691116 0.809098
Cu1   Cu    Cu3+1 0.362000 0.479240 0.482530 0.985788
Cu2   Cu    Cu3+1 0.638000 0.520760 0.517470 1.009828
O5    O     O_R   0.340640 0.296710 0.479810 -0.562272
O6    O     O_R   0.573710 0.331780 0.509320 -0.531764
O7    O     O_R   0.440340 0.491060 0.341470 -0.603915
O8    O     O_R   0.673420 0.526120 0.370980 -0.564080
C3    C     C_R   0.445352 0.254309 0.489600 0.934178
C4    C     C_R   0.579891 0.517778 0.309667 0.834205
C5    C     C_R   0.808030 0.656085 0.061312 -0.196354
H1    H     H_    0.824801 0.742350 0.878796 0.153992
H2    H     H_    0.914941 0.725993 0.032773 0.137060
C6    C     C_R   0.632058 0.541488 0.201382 -0.049723
C7    C     C_R   0.233587 0.378831 0.835732 0.295946
C8    C     C_R   0.213734 0.313854 0.925684 -0.205012
C9    C     C_R   0.329782 0.339136 0.982783 0.087702
C10   C     C_R   0.456460 0.455415 0.962905 0.046938
C11   C     C_R   0.480204 0.517473 0.868788 0.017587
C12   C     C_R   0.561349 0.512534 0.031476 0.089264
C13   C     C_R   0.699226 0.608153 0.997609 0.130832
C14   C     C_R   0.723024 0.663223 0.903328 -0.188968
C15   C     C_R   0.611055 0.625450 0.843368 -0.130990
C16   C     C_R   0.526745 0.489580 0.135034 -0.309270
C17   C     C_R   0.778121 0.621669 0.162918 0.155111
C18   C     C_R   0.374104 0.469548 0.800852 -0.221540
H3    H     H_    0.414270 0.436197 0.165756 0.156177
H4    H     H_    0.109672 0.236137 0.947470 0.187347
H5    H     H_    0.628574 0.682232 0.776592 0.167449
H6    H     H_    0.392233 0.856849 0.435890 0.145304
C19   C     C_2   0.590845 0.889300 0.496660 0.196257
C20   C     C_2   0.494884 0.928080 0.455952 -0.348351
H7    H     H_    0.316027 0.049646 0.523146 0.144239
C21   C     C_2   0.417452 0.114048 0.481721 -0.439884
C22   C     C_2   0.519223 0.065208 0.436329 0.430312
H8    H     H_    0.114161 0.556639 0.580296 0.166141
H9    H     H_    0.849853 0.386741 0.464873 0.216103
N1    N     N_2   0.845330 0.551960 0.543750 -0.290478
C23   C     C_2   0.911546 0.473119 0.505590 -0.042101
N2    N     N_2   0.154690 0.448120 0.456210 -0.140786
C24   C     C_2   0.069810 0.497457 0.516443 0.055147
H10   H     H_    0.906074 0.634654 0.581123 0.208592
C25   C     C_3   0.901470 0.683257 0.227027 -0.443244
C26   C     C_3   0.886986 0.804955 0.283958 -0.688035
H11   H     H_    0.777669 0.781803 0.329786 0.252862
H12   H     H_    0.973469 0.843252 0.334569 0.248223
H13   H     H_    0.901023 0.882705 0.229917 0.248861
H14   H     H_    0.908105 0.611193 0.278743 0.227365
H15   H     H_    0.009945 0.714376 0.178694 0.192186
N3    N     N_R   0.723289 0.982519 0.530348 0.151450
O9    O     O_R   0.724331 0.094732 0.570653 -0.322704
O10   O     O_R   0.840008 0.951468 0.528371 -0.352404
C27   C     C_3   0.114444 0.396200 0.356812 -0.179883
C28   C     C_3   0.086631 0.249473 0.347736 -0.653986
H16   H     H_    0.191805 0.231159 0.340040 0.235171
H17   H     H_    0.012449 0.197665 0.414448 0.302630
H18   H     H_    0.034411 0.209179 0.278918 0.227288
H19   H     H_    0.017811 0.414610 0.336872 0.147326
H20   H     H_    0.203555 0.448108 0.297429 0.181314
N4    N     N_R   0.113086 0.344688 0.777806 0.144248
O11   O     O_R   0.030166 0.222318 0.767565 -0.324483
O12   O     O_R   0.068841 0.436157 0.752949 -0.363116
C29   C     C_3   0.319627 0.232875 0.054758 -0.410267
C30   C     C_3   0.284764 0.097258 0.003658 -0.779360
H21   H     H_    0.170793 0.059211 0.983995 0.244159
H22   H     H_    0.363882 0.102027 0.934460 0.270283
H23   H     H_    0.294110 0.026798 0.055975 0.240460
H24   H     H_    0.425719 0.252262 0.083562 0.234693
H25   H     H_    0.233161 0.228174 0.119392 0.197976
N5    N     N_R   0.643862 0.138825 0.365861 0.144422
O13   O     O_R   0.744110 0.088848 0.331527 -0.376784
O14   O     O_R   0.641270 0.238666 0.319245 -0.409050

loop_
_geom_bond_atom_site_label_1
_geom_bond_atom_site_label_2
_geom_bond_distance
_ccdc_geom_bond_type
O4    Cu2   1.931305 S    
C16   H3    1.079721 S    
C5    C17   1.400323 A    
H7    C21   1.087722 S    
C29   H25   1.110993 S    
C11   C15   1.412599 A    
Cu2   O8    1.947682 S    
C23   C24   1.505744 S    
C4    C6    1.476664 S    
C7    C8    1.395054 A    
C8    H4    1.083049 S    
C1    C19   1.474563 S    
N2    C27   1.466409 S    
C25   H15   1.112408 S    
C13   C14   1.390315 A    
N4    O11   1.301340 A    
C8    C9    1.400596 A    
C28   H18   1.110053 S    
C26   H12   1.110354 S    
O2    C1    1.299845 A    
C3    C21   1.453797 S    
C6    C16   1.401544 A    
C27   H19   1.107989 S    
C6    C17   1.425460 A    
O1    Cu1   1.928260 S    
C9    C10   1.430006 A    
C15   H5    1.081768 S    
C19   N3    1.446176 S    
Cu1   O7    1.931305 S    
H9    C23   1.082833 S    
C27   C28   1.523623 S    
C25   H14   1.107744 S    
N5    O14   1.301521 A    
C17   C25   1.517123 S    
C30   H23   1.110852 S    
O4    C2    1.300544 A    
C10   C12   1.426848 A    
C30   H22   1.111128 S    
C26   H11   1.107248 S    
C2    C18   1.485808 S    
C7    N4    1.433748 S    
O8    C4    1.295614 A    
O6    C3    1.294504 A    
C27   H20   1.105846 S    
H6    C20   1.087063 S    
O3    Cu1   1.947683 S    
C14   C15   1.383627 A    
H8    C24   1.083930 S    
O7    C4    1.304174 A    
N3    O10   1.301044 A    
C26   H13   1.111007 S    
O3    C2    1.302742 A    
C5    C13   1.397042 A    
N1    C23   1.290814 D    
C28   H17   1.110926 S    
C29   C30   1.531677 S    
C11   C18   1.418740 A    
C12   C16   1.399640 A    
N5    O13   1.301108 A    
Cu1   Cu2   2.686755 S    
C21   C22   1.345271 D    
C12   C13   1.413597 A    
Cu2   O6    1.928262 S    
C29   H24   1.107403 S    
N1    H10   1.030854 S    
C22   N5    1.447694 S    
Cu1   O5    1.924149 S    
O5    C3    1.293395 A    
N3    O9    1.301682 A    
C9    C29   1.525284 S    
N2    C24   1.304311 D    
H1    C14   1.084258 S    
C28   H16   1.108060 S    
C5    H2    1.085171 S    
C7    C18   1.412745 A    
Cu1   N2    2.018547 S    
C20   C22   1.463649 S    
O2    Cu2   1.924147 S    
C10   C11   1.423081 A    
C25   C26   1.527348 S    
Cu2   N1    2.018394 S    
C30   H21   1.109624 S    
O1    C1    1.297311 A    
C19   C20   1.352559 D    
N4    O12   1.300523 A    
