data_mof_unit_24407.cif
_audit_creation_date              2012-12-10T18:18:20-0500
_audit_creation_method            fapswitch 2.2
_symmetry_space_group_name_H-M    P1
_symmetry_Int_Tables_number       1
_space_group_crystal_system       triclinic
_cell_length_a                    14.110211
_cell_length_b                    15.008001
_cell_length_c                    15.46307
_cell_angle_alpha                 88.637698
_cell_angle_beta                  66.137133
_cell_angle_gamma                 91.001805
_cell_volume                      2992.47048319

loop_
_atom_site_label
_atom_site_type_symbol
_atom_type_description
_atom_site_fract_x
_atom_site_fract_y
_atom_site_fract_z
_atom_type_partial_charge
C1    C     C_R   0.500757 0.673393 0.499567 0.894955
C2    C     C_R   0.499142 0.326600 0.500636 0.894368
C3    C     C_R   0.407283 0.594675 0.089946 -0.312944
C4    C     C_R   0.629675 0.513733 0.884373 -0.311522
C5    C     C_R   0.334333 0.610460 0.051851 -0.005473
C6    C     C_R   0.703488 0.497489 0.921039 -0.009065
C7    C     C_R   0.418205 0.183732 0.489472 -0.255830
C8    C     C_R   0.580948 0.816207 0.512034 -0.253920
C9    C     C_R   0.498040 0.230629 0.501800 -0.076254
C10   C     C_R   0.501458 0.769337 0.499131 -0.074603
C11   C     C_R   0.577853 0.185899 0.514678 -0.254075
C12   C     C_R   0.421475 0.814062 0.486539 -0.254928
C13   C     C_R   0.578988 0.093820 0.514475 0.117708
C14   C     C_R   0.420028 0.906114 0.487271 0.118301
C15   C     C_R   0.498983 0.046307 0.501410 0.062785
C16   C     C_R   0.499931 0.953618 0.500508 0.062866
C17   C     C_R   0.418154 0.091474 0.489063 0.118642
C18   C     C_R   0.580781 0.908450 0.512818 0.118974
C19   C     C_R   0.658905 0.048683 0.526777 -0.211117
C20   C     C_R   0.340012 0.951240 0.475135 -0.211415
C21   C     C_R   0.659796 0.956131 0.525951 -0.209912
C22   C     C_R   0.339056 0.043785 0.476069 -0.210438
C23   C     C_R   0.434307 0.501651 0.677066 0.878215
C24   C     C_R   0.565880 0.499822 0.322696 0.879478
C25   C     C_R   0.174680 0.438179 0.556418 0.271130
C26   C     C_R   0.824756 0.562888 0.445018 0.268604
C27   C     C_R   0.226651 0.562247 0.446640 -0.105415
C28   C     C_R   0.772882 0.438443 0.554349 -0.107279
C29   C     C_R   0.126550 0.564557 0.447066 0.019715
C30   C     C_R   0.872426 0.437023 0.555276 -0.003338
C31   C     C_R   0.049998 0.500363 0.501143 0.054487
C32   C     C_R   0.949044 0.501115 0.501060 0.055215
C33   C     C_R   0.073940 0.435861 0.555826 0.008153
C34   C     C_R   0.925030 0.565833 0.446609 0.022221
C35   C     C_R   0.101369 0.630207 0.395010 -0.221755
C36   C     C_R   0.896863 0.372641 0.609165 -0.207963
C37   C     C_R   0.002384 0.631161 0.394749 -0.195267
C38   C     C_R   0.995901 0.371689 0.609339 -0.166630
C39   C     C_R   0.393042 0.516205 0.779521 -0.085021
C40   C     C_R   0.609958 0.503348 0.218159 -0.084139
C41   C     C_R   0.275850 0.582130 0.924059 -0.143990
C42   C     C_R   0.744605 0.483855 0.061546 -0.146188
C43   C     C_R   0.296847 0.554934 0.831999 0.153923
C44   C     C_R   0.712904 0.481521 0.160036 0.156261
C45   C     C_R   0.462002 0.502004 0.821934 -0.282200
C46   C     C_R   0.543106 0.528369 0.176128 -0.290974
C47   C     C_R   0.447860 0.538954 0.908108 0.076918
C48   C     C_R   0.573372 0.530276 0.078090 0.076258
C49   C     C_R   0.351851 0.578198 0.961669 0.085623
C50   C     C_R   0.674879 0.503343 0.019621 0.084754
C51   C     C_R   0.526599 0.534574 0.942838 0.084297
C52   C     C_R   0.501903 0.552935 0.038132 0.082371
H1    H     H_    0.285984 0.610844 0.404423 0.135565
H2    H     H_    0.713528 0.389847 0.596512 0.140127
H3    H     H_    0.158278 0.681352 0.354644 0.135809
H4    H     H_    0.839314 0.322621 0.651259 0.151918
H5    H     H_    0.987760 0.684188 0.353641 0.166114
H6    H     H_    0.010030 0.319603 0.651753 0.172295
H7    H     H_    0.464278 0.541752 0.222089 0.169348
H8    H     H_    0.528628 0.462365 0.785015 0.162662
H9    H     H_    0.199991 0.607127 0.965148 0.191124
H10   H     H_    0.824209 0.469227 0.018597 0.195456
H11   H     H_    0.391110 0.621287 0.158596 0.133906
H12   H     H_    0.655194 0.510663 0.808545 0.144343
H13   H     H_    0.356774 0.218850 0.479298 0.164931
H14   H     H_    0.642339 0.781087 0.522253 0.163677
H15   H     H_    0.639290 0.222572 0.524843 0.159909
H16   H     H_    0.360201 0.777410 0.476091 0.158976
H17   H     H_    0.720574 0.084927 0.536868 0.147848
H18   H     H_    0.278388 0.914997 0.464970 0.147648
H19   H     H_    0.722067 0.921898 0.535485 0.148530
H20   H     H_    0.276778 0.078015 0.466545 0.148891
N1    N     N_R   0.249980 0.499930 0.499960 -0.098203
N2    N     N_R   0.750020 0.500070 0.500040 -0.097860
O1    O     O_R   0.419720 0.632140 0.499980 -0.626105
O2    O     O_R   0.580280 0.367860 0.500020 -0.623640
O3    O     O_R   0.580270 0.632160 0.499970 -0.623511
O4    O     O_R   0.419730 0.367840 0.500030 -0.623858
O5    O     O_R   0.373870 0.499980 0.632250 -0.621150
O6    O     O_R   0.626130 0.500020 0.367750 -0.618992
O7    O     O_R   0.534420 0.500000 0.632240 -0.610831
O8    O     O_R   0.465580 0.500000 0.367760 -0.611971
Zn1   Zn    Zn3+2 0.392800 0.499980 0.500010 0.932716
Zn2   Zn    Zn3+2 0.607200 0.500020 0.499990 0.933602
C53   C     C_2   0.242129 0.661430 0.109768 0.367887
H21   H     H_    0.211662 0.655252 0.186271 0.062689
O9    O     O_2   0.203528 0.714719 0.073590 -0.572759
C54   C     C_2   0.807104 0.470739 0.852453 0.357300
H22   H     H_    0.839509 0.501205 0.781698 0.081475
O10   O     O_2   0.853622 0.410589 0.871034 -0.583520
C55   C     C_3   0.195443 0.373202 0.622194 -0.867166
H23   H     H_    0.267953 0.385971 0.629126 0.290952
H24   H     H_    0.134743 0.377860 0.695059 0.219655
H25   H     H_    0.195625 0.304250 0.597664 0.216180
C56   C     C_3   0.803431 0.628926 0.380487 -0.872688
H26   H     H_    0.732614 0.614297 0.371011 0.291257
H27   H     H_    0.799499 0.697049 0.407953 0.220526
H28   H     H_    0.865824 0.627722 0.308113 0.207939
C57   C     C_3   0.788888 0.451821 0.200142 -0.853352
H29   H     H_    0.807247 0.507316 0.237202 0.251133
H30   H     H_    0.755834 0.393666 0.249803 0.252530
H31   H     H_    0.863115 0.431228 0.144055 0.231181
C58   C     C_3   0.216708 0.569328 0.792087 -0.841253
H32   H     H_    0.193454 0.504564 0.772284 0.250140
H33   H     H_    0.145648 0.599124 0.844197 0.230162
H34   H     H_    0.248492 0.615579 0.729201 0.255894

loop_
_geom_bond_atom_site_label_1
_geom_bond_atom_site_label_2
_ccdc_geom_bond_type
O5    Zn1   S    
C45   H8    S    
C8    H14   S    
C46   H7    S    
C27   C29   A    
C34   C37   A    
C1    O3    A    
C56   H26   S    
C41   H9    S    
O6    Zn2   S    
C28   N2    A    
O2    Zn2   S    
C56   H28   S    
C47   C49   A    
C53   H21   S    
C40   C46   A    
C12   H16   S    
C21   H19   S    
C36   H4    S    
C35   C37   A    
C44   C57   S    
C55   H24   S    
C15   C16   A    
C18   C21   A    
C6    C54   S    
C7    C9    A    
C41   C49   A    
C24   O8    A    
C24   C40   S    
C38   H6    S    
O4    Zn1   S    
C24   O6    A    
C57   H29   S    
C7    C17   A    
C31   C33   A    
C42   H10   S    
C39   C45   A    
C5    C53   S    
C48   C50   A    
C41   C43   A    
C5    C49   A    
C42   C44   A    
C22   H20   S    
C11   H15   S    
C45   C47   A    
C46   C48   A    
C25   C55   S    
C13   C19   A    
C53   O9    D    
C35   H3    S    
C51   C52   A    
C1    O1    A    
C14   C20   A    
C4    C6    A    
N2    Zn2   S    
C55   H23   S    
C28   H2    S    
C39   C43   A    
C4    C51   A    
O3    Zn2   S    
C8    C18   A    
C32   C34   A    
C2    O4    A    
C7    H13   S    
C31   C32   A    
C40   C44   A    
C27   H1    S    
C58   H33   S    
C6    C50   A    
C9    C11   A    
C10   C12   A    
C42   C50   A    
C16   C18   A    
C57   H30   S    
C20   C22   A    
C13   C15   A    
C14   C16   A    
C19   H17   S    
O7    Zn2   S    
C2    O2    A    
C20   H18   S    
C26   C56   S    
C15   C17   A    
C4    H12   S    
C23   O7    A    
C26   C34   A    
C1    C10   S    
C33   C38   A    
C54   O10   D    
C3    C5    A    
C47   C51   A    
C3    C52   A    
C56   H27   S    
C3    H11   S    
C29   C35   A    
C17   C22   A    
C30   C36   A    
C28   C30   A    
C12   C14   A    
C29   C31   A    
C55   H25   S    
C30   C32   A    
C11   C13   A    
O1    Zn1   S    
C23   C39   S    
C36   C38   A    
C26   N2    A    
C58   H34   S    
C25   N1    A    
C43   C58   S    
C48   C52   A    
C57   H31   S    
C54   H22   S    
C8    C10   A    
O8    Zn1   S    
C58   H32   S    
C23   O5    A    
C27   N1    A    
C2    C9    S    
N1    Zn1   S    
C37   H5    S    
C25   C33   A    
C19   C21   A    
