data_mof_unit_34437.cif
_audit_creation_date              2012-12-10T17:47:38-0500
_audit_creation_method            fapswitch 2.2
_symmetry_space_group_name_H-M    P1
_symmetry_Int_Tables_number       1
_space_group_crystal_system       triclinic
_cell_length_a                    10.649682
_cell_length_b                    10.622461
_cell_length_c                    9.970233
_cell_angle_alpha                 89.440435
_cell_angle_beta                  91.185052
_cell_angle_gamma                 91.807407
_cell_volume                      1127.04176756

loop_
_atom_site_label
_atom_site_type_symbol
_atom_type_description
_atom_site_fract_x
_atom_site_fract_y
_atom_site_fract_z
_atom_type_partial_charge
Br1   Br    Br    0.456773 0.167283 0.843038 -0.470663
Br2   Br    Br    0.693999 0.691535 0.849988 -0.546106
Br3   Br    Br    0.123293 0.223992 0.522962 -0.650823
C1    C     C_R   0.501605 0.260855 0.500439 0.895320
C2    C     C_R   0.614370 0.069021 0.556350 0.114026
C3    C     C_R   0.508946 0.128686 0.500540 -0.067729
C4    C     C_R   0.258003 0.499829 0.499387 0.868874
C5    C     C_R   0.410539 0.062136 0.436832 -0.138468
C6    C     C_R   0.410144 0.933353 0.437032 -0.185555
C7    C     C_R   0.510981 0.872072 0.495745 -0.090197
C8    C     C_R   0.321925 0.348755 0.134558 -0.131228
C9    C     C_R   0.230215 0.283267 0.058575 -0.244027
C10   C     C_R   0.245050 0.271227 0.920888 -0.204803
C11   C     C_R   0.357998 0.313576 0.865202 0.359549
C12   C     C_3   0.878809 0.500861 0.501322 0.119299
C13   C     C_R   0.423332 0.414947 0.927885 0.028136
C14   C     C_R   0.416173 0.422107 0.070948 0.143270
C15   C     C_R   0.578696 0.576125 0.073536 -0.129925
C16   C     C_R   0.502519 0.739316 0.499047 0.863196
C17   C     C_R   0.577163 0.578179 0.931431 0.322034
C18   C     C_R   0.742135 0.501143 0.500884 0.810805
C19   C     C_3   0.074119 0.507519 0.646390 -0.361071
C20   C     C_3   0.931647 0.503944 0.647134 -0.379560
C21   C     C_3   0.075059 0.615050 0.419961 -0.461540
C22   C     C_3   0.066220 0.377057 0.433206 0.079461
C23   C     C_3   0.931119 0.617773 0.423457 -0.400942
C24   C     C_3   0.121384 0.499005 0.499782 0.119482
C25   C     C_3   0.921862 0.380015 0.431727 -0.398714
C26   C     C_R   0.717320 0.136293 0.616201 -0.170541
C27   C     C_R   0.823316 0.073539 0.661749 -0.089990
C28   C     C_R   0.829089 0.943786 0.646731 -0.072787
C29   C     C_R   0.727032 0.876224 0.590379 -0.141985
C30   C     C_R   0.617394 0.937726 0.548631 0.109386
H1    H     H_    0.110076 0.596806 0.693130 0.181394
H2    H     H_    0.316430 0.339986 0.240846 0.207783
H3    H     H_    0.153673 0.233171 0.107769 0.176777
H4    H     H_    0.184901 0.203796 0.867318 0.194539
H5    H     H_    0.897637 0.419243 0.704132 0.194044
H6    H     H_    0.899917 0.588911 0.699386 0.215451
H7    H     H_    0.116501 0.703395 0.463814 0.178458
H8    H     H_    0.903713 0.705793 0.472402 0.167524
H9    H     H_    0.098028 0.372664 0.327823 0.129054
H10   H     H_    0.881568 0.295287 0.482456 0.188608
H11   H     H_    0.892447 0.619462 0.318878 0.194273
H12   H     H_    0.886483 0.377508 0.325875 0.174566
H13   H     H_    0.901696 0.125972 0.707107 0.167722
H14   H     H_    0.912261 0.895191 0.679613 0.151445
H15   H     H_    0.105140 0.611179 0.313832 0.192725
H16   H     H_    0.332840 0.110051 0.389411 0.182874
H17   H     H_    0.717459 0.237294 0.627463 0.145685
H18   H     H_    0.734069 0.775733 0.579666 0.141435
H19   H     H_    0.330769 0.881208 0.392669 0.151531
H20   H     H_    0.643367 0.637980 0.128697 0.173445
H21   H     H_    0.108865 0.428650 0.709774 0.214983
N1    N     N_R   0.498810 0.498800 0.142780 -0.134496
N2    N     N_R   0.498760 0.498720 0.857170 -0.140034
O1    O     O_R   0.500000 0.316780 0.614690 -0.578330
O2    O     O_R   0.499990 0.316750 0.385360 -0.633441
O3    O     O_R   0.314800 0.499990 0.614670 -0.619332
O4    O     O_R   0.314790 0.499970 0.385330 -0.653921
O5    O     O_R   0.500010 0.683250 0.614640 -0.566676
O6    O     O_R   0.500000 0.683220 0.385310 -0.618471
O7    O     O_R   0.685210 0.500030 0.614670 -0.600817
O8    O     O_R   0.685200 0.500010 0.385330 -0.625695
Zn1   Zn    Zn3+2 0.500010 0.500020 0.653130 1.004928
Zn2   Zn    Zn3+2 0.499990 0.499980 0.346870 0.945787

loop_
_geom_bond_atom_site_label_1
_geom_bond_atom_site_label_2
_ccdc_geom_bond_type
C1    O1    A    
C22   H9    S    
C8    C9    A    
C13   N2    A    
C29   H18   S    
C26   C27   A    
C22   C24   S    
C20   H5    S    
C6    C7    A    
C14   N1    A    
C25   H10   S    
C10   H4    S    
C28   C29   A    
C21   C24   S    
Br3   C22   S    
C7    C16   S    
C17   N2    A    
C29   C30   A    
O7    Zn1   S    
O4    Zn2   S    
C19   H21   S    
C28   H14   S    
C10   C11   A    
O3    Zn1   S    
C22   C25   S    
C27   H13   S    
O8    Zn2   S    
C12   C25   S    
C2    C3    A    
C6    H19   S    
C15   N1    A    
C16   O5    A    
C20   H6    S    
C8    H2    S    
C21   H7    S    
C21   C23   S    
C7    C30   A    
C15   C17   A    
C19   C24   S    
C27   C28   A    
C19   H1    S    
C13   C14   A    
C11   C13   A    
C25   H12   S    
C18   O7    A    
C9    H3    S    
C12   C20   S    
C16   O6    A    
C23   H11   S    
N2    Zn1   S    
C21   H15   S    
C2    C26   A    
O5    Zn1   S    
C4    O4    A    
C12   C18   S    
N1    Zn2   S    
C4    C24   S    
C9    C10   A    
C23   H8    S    
C1    C3    S    
C4    O3    A    
O6    Zn2   S    
C19   C20   S    
C8    C14   A    
C12   C23   S    
C3    C5    A    
Br1   C11   S    
C15   H20   S    
C1    O2    A    
Br2   C17   S    
C5    H16   S    
O2    Zn2   S    
C26   H17   S    
O1    Zn1   S    
C5    C6    A    
C18   O8    A    
C2    C30   A    
