data_mof_unit_31920.cif
_audit_creation_date              2012-12-11T18:09:20-0500
_audit_creation_method            fapswitch 2.2
_symmetry_space_group_name_H-M    P1
_symmetry_Int_Tables_number       1
_space_group_crystal_system       triclinic
_cell_length_a                    8.258812
_cell_length_b                    12.877065
_cell_length_c                    19.171385
_cell_angle_alpha                 100.941377
_cell_angle_beta                  92.007346
_cell_angle_gamma                 98.564889
_cell_volume                      1975.26439961

loop_
_atom_site_label
_atom_site_type_symbol
_atom_type_description
_atom_site_fract_x
_atom_site_fract_y
_atom_site_fract_z
_atom_type_partial_charge
Ba1   Ba    Ba6+2 0.853180 0.547790 0.465300 1.667323
Ba2   Ba    Ba6+2 0.336650 0.452300 0.534710 1.645808
C1    C     C_3   0.580521 0.900427 0.257320 -0.409991
C2    C     C_R   0.018040 0.556373 0.729816 0.069232
C3    C     C_R   0.849597 0.426615 0.810925 -0.158825
C4    C     C_3   0.122224 0.769464 0.271008 0.357069
C5    C     C_R   0.775063 0.441281 0.747571 0.011972
C6    C     C_R   0.331492 0.584449 0.191132 -0.176316
C7    C     C_R   0.407990 0.571812 0.254551 0.027049
C8    C     C_R   0.128153 0.432978 0.198198 -0.130657
C9    C     C_R   0.171247 0.450672 0.272381 0.032321
C10   C     C_R   0.985922 0.500671 0.846454 0.024948
C11   C     C_R   0.863368 0.502737 0.705299 -0.086361
C12   C     C_3   0.632750 0.826033 0.303679 0.346744
C13   C     C_R   0.199792 0.506376 0.155610 0.031080
C14   C     C_R   0.319729 0.513453 0.298109 -0.237308
C15   C     C_R   0.756389 0.447970 0.956622 -0.105254
C16   C     C_3   0.095417 0.798909 0.198724 -0.360718
C17   C     C_R   0.647524 0.394508 0.995801 -0.107159
C18   C     C_R   0.693118 0.390696 0.065197 -0.008610
C19   C     C_R   0.850809 0.439804 0.092816 -0.122691
C20   C     C_R   0.976176 0.470754 0.048731 0.008835
C21   C     C_R   0.926087 0.473048 0.976181 0.040802
C22   C     C_R   0.144409 0.502664 0.076107 0.012278
C23   C     C_3   0.427565 0.253717 0.318061 0.317315
C24   C     C_R   0.259577 0.534096 0.026082 0.053648
C25   C     C_R   0.208969 0.530982 0.952798 0.021082
C26   C     C_R   0.041154 0.502230 0.925918 0.003988
C27   C     C_R   0.429871 0.565938 0.045654 -0.061809
C28   C     C_3   0.076505 0.798072 0.688886 0.221219
C29   C     C_R   0.535511 0.615951 0.003021 -0.084666
C30   C     C_R   0.488084 0.607140 0.932292 -0.077716
C31   C     C_R   0.333271 0.553452 0.906903 -0.085139
C32   C     C_R   0.763968 0.181919 0.530111 -0.281749
C33   C     C_R   0.428133 0.809173 0.471836 -0.256298
C34   C     C_3   0.337646 0.190469 0.249026 -0.337372
C35   C     C_R   0.399678 0.983489 0.448170 -0.079180
C36   C     C_R   0.336278 0.875924 0.443719 0.033199
C37   C     C_R   0.579134 0.849523 0.509561 0.063135
C38   C     C_R   0.643293 0.961362 0.517085 -0.060496
C39   C     C_R   0.552603 0.028248 0.484738 -0.050859
C40   C     C_3   0.065812 0.834586 0.769588 -0.408232
C41   C     C_R   0.616170 0.138732 0.491079 0.034225
C42   C     C_R   0.856942 0.117856 0.559732 -0.017646
C43   C     C_R   0.795594 0.008596 0.554448 -0.087866
C44   C     C_3   0.959994 0.215567 0.382309 0.283571
C45   C     C_3   0.020793 0.222787 0.732045 0.492936
C46   C     C_3   0.942847 0.094143 0.367056 -0.356111
C47   C     C_3   0.616765 0.749803 0.689247 0.277406
C48   C     C_3   0.569769 0.825156 0.754204 -0.361969
C49   C     C_2   0.570974 0.343137 0.109678 0.839040
C50   C     C_2   0.102212 0.891644 0.652766 0.897679
C51   C     C_3   0.910346 0.140661 0.764250 -0.291226
C52   C     C_3   0.519883 0.184158 0.692794 0.396714
C53   C     C_3   0.476749 0.078265 0.716626 -0.352445
C54   C     C_R   0.065870 0.570110 0.803222 -0.182735
H1    H     H_    0.724973 0.872565 0.345961 0.073557
H2    H     H_    0.689883 0.693053 0.708544 -0.015604
H3    H     H_    0.501679 0.708997 0.658860 0.112318
H4    H     H_    0.530434 0.967130 0.290652 0.104631
H5    H     H_    0.680490 0.878293 0.782672 0.108831
H6    H     H_    0.508140 0.777245 0.791149 0.085582
H7    H     H_    0.482300 0.874502 0.737534 0.120957
H8    H     H_    0.523112 0.795669 0.330237 -0.082603
H9    H     H_    0.484337 0.855567 0.216240 0.108065
H10   H     H_    0.335966 0.291357 0.350939 0.017248
H11   H     H_    0.521914 0.318075 0.306392 0.077236
H12   H     H_    0.186896 0.876648 0.794928 0.118599
H13   H     H_    0.251771 0.121127 0.259729 0.119535
H14   H     H_    0.265572 0.242226 0.225023 0.053994
H15   H     H_    0.426637 0.160381 0.211149 0.143491
H16   H     H_    0.686976 0.933767 0.230181 0.132758
H17   H     H_    0.128498 0.736179 0.155905 0.065086
H18   H     H_    0.940481 0.269596 0.707147 -0.056974
H19   H     H_    0.985159 0.096858 0.794268 0.135251
H20   H     H_    0.829241 0.181160 0.801573 0.059403
H21   H     H_    0.832833 0.082383 0.721546 0.112365
H22   H     H_    0.652300 0.195475 0.682607 -0.111441
H23   H     H_    0.973460 0.888930 0.780990 0.120328
H24   H     H_    0.446816 0.179835 0.642362 0.105342
H25   H     H_    0.496666 0.012082 0.673007 0.080256
H26   H     H_    0.346838 0.066480 0.729963 0.176173
H27   H     H_    0.046942 0.690157 0.270640 0.078863
H28   H     H_    0.554357 0.077154 0.764791 0.090994
H29   H     H_    0.165175 0.633945 0.824614 0.063578
H30   H     H_    0.793805 0.360388 0.833441 0.083794
H31   H     H_    0.382543 0.651990 0.168685 0.058672
H32   H     H_    0.038782 0.363511 0.175617 0.076879
H33   H     H_    0.368722 0.514456 0.351375 0.061895
H34   H     H_    0.024787 0.765694 0.794516 0.073309
H35   H     H_    0.701322 0.472173 0.912212 0.081334
H36   H     H_    0.522142 0.366931 0.974235 0.132470
H37   H     H_    0.254180 0.764803 0.279670 -0.073159
H38   H     H_    0.869545 0.456513 0.149060 0.143755
H39   H     H_    0.489398 0.547668 0.091370 0.077610
H40   H     H_    0.661721 0.647169 0.021954 0.079205
H41   H     H_    0.576558 0.631609 0.895811 0.072110
H42   H     H_    0.314353 0.527083 0.851064 0.132622
H43   H     H_    0.325605 0.031503 0.424379 0.092086
H44   H     H_    0.869565 0.960939 0.577514 0.163642
H45   H     H_    0.842139 0.239908 0.398605 0.012946
H46   H     H_    0.812890 0.265434 0.533171 0.039925
H47   H     H_    0.376733 0.725747 0.467881 0.057816
H48   H     H_    0.964671 0.806105 0.188896 0.154643
H49   H     H_    0.172895 0.876570 0.197017 0.107451
H50   H     H_    0.959567 0.747832 0.665785 0.027841
H51   H     H_    0.190875 0.355362 0.766774 0.211397
H52   H     H_    0.208266 0.255057 0.810240 0.212590
H53   H     H_    0.791678 0.438492 0.601409 0.199421
H54   H     H_    0.688535 0.541168 0.639418 0.200895
H55   H     H_    0.335647 0.277512 0.117076 0.301452
H56   H     H_    0.055600 0.246942 0.426344 0.075280
H57   H     H_    0.193371 0.810880 0.566414 0.267899
H58   H     H_    0.848344 0.060187 0.323031 0.120480
H59   H     H_    0.906269 0.062059 0.414768 0.076146
H60   H     H_    0.061669 0.069180 0.351630 0.134094
N1    N     N_3   0.124217 0.296114 0.789231 -0.507125
N2    N     N_3   0.799414 0.511805 0.636663 -0.469412
O1    O     O_2   0.875110 0.423180 0.326290 -0.430532
O2    O     O_2   0.196528 0.126388 0.551578 -0.452984
O3    O     O_3   0.121898 0.170409 0.683782 -0.541885
O4    O     O_3   0.123410 0.433040 0.414950 -0.506669
O5    O     O_3   0.577950 0.634370 0.536140 -0.505013
O6    O     O_2   0.341900 0.231310 0.465740 -0.479926
O7    O     O_3   0.504029 0.183317 0.350767 -0.651281
O8    O     O_2   0.451972 0.470426 0.753320 -0.508364
O9    O     O_3   0.482821 0.267350 0.745630 -0.601584
O10   O     O_3   0.661010 0.625070 0.369680 -0.468730
O11   O     O_2   0.735990 0.542333 0.243684 -0.470436
O12   O     O_3   0.713664 0.808881 0.647353 -0.655527
O13   O     O_3   0.002047 0.252024 0.320010 -0.629442
O14   O     O_3   0.705143 0.745670 0.261323 -0.593347
O15   O     O_2   0.847800 0.768730 0.534310 -0.450079
O16   O     O_3   0.082250 0.684470 0.405440 -0.492754
O17   O     O_2   0.002330 0.875424 0.455268 -0.446063
O18   O     O_2   0.612091 0.331856 0.169309 -0.623735
O19   O     O_R   0.408265 0.309225 0.082543 -0.776500
O20   O     O_2   0.057954 0.974422 0.680000 -0.630490
O21   O     O_R   0.173930 0.885799 0.587677 -0.722165
O22   O     O_3   0.074590 0.848304 0.323711 -0.604685
O23   O     O_2   0.314600 0.576860 0.673750 -0.465565
O24   O     O_3   0.066300 0.567050 0.585060 -0.457319
O25   O     O_3   0.528700 0.375020 0.630330 -0.490191
O26   O     O_3   0.210982 0.744955 0.675466 -0.674925
O27   O     O_3   0.611760 0.365720 0.463870 -0.481617
O28   O     O_3   0.107460 0.315620 0.594570 -0.490220
P1    P     P_3+3 0.042930 0.392230 0.337410 0.989227
P2    P     P_3+3 0.672230 0.754900 0.555730 0.960611
P3    P     P_3+3 0.125084 0.821912 0.407292 0.980044
P4    P     P_3+3 0.146790 0.607860 0.662600 0.982197
P5    P     P_3+3 0.067706 0.179268 0.596313 1.013292
P6    P     P_3+3 0.626200 0.620869 0.279822 0.974774
P7    P     P_3+3 0.522489 0.228940 0.443029 0.924867
P8    P     P_3+3 0.559913 0.388199 0.721334 0.926024

loop_
_geom_bond_atom_site_label_1
_geom_bond_atom_site_label_2
_ccdc_geom_bond_type
Ba2   P4    S    
C7    P6    S    
Ba2   O28   S    
C48   H7    S    
C44   H56   S    
Ba1   O27   S    
C17   C18   A    
C15   H35   S    
Ba1   O10   S    
H54   N2    S    
C11   N2    S    
C12   O14   S    
Ba2   O5    S    
C25   C31   A    
Ba2   O27   S    
C8    H32   S    
C24   C25   A    
C32   H46   S    
C10   C26   S    
C7    C14   A    
C22   C24   A    
C31   H42   S    
C18   C49   S    
C33   H47   S    
C8    C13   A    
C33   C37   A    
C45   O3    S    
C19   H38   S    
O1    P1    D    
C29   H40   S    
C50   O21   S    
C28   O26   S    
C30   H41   S    
Ba1   Ba2   S    
Ba1   O1    S    
C2    C11   A    
C23   O7    S    
Ba1   O4    S    
O26   P4    S    
Ba1   O24   S    
O10   P6    S    
C34   H14   S    
C6    C7    A    
C23   H11   S    
C37   P2    S    
O23   P4    D    
C42   C43   A    
C50   O20   D    
H57   O21   S    
O13   P1    S    
C17   H36   S    
C53   H25   S    
C36   P3    S    
C48   H6    S    
C34   H15   S    
C46   H60   S    
O27   P7    S    
C1    H4    S    
C40   H23   S    
O6    P7    D    
C28   H50   S    
C40   H12   S    
Ba2   O25   S    
C39   C41   A    
C51   H19   S    
Ba1   O15   S    
O9    P8    S    
O7    P7    S    
H53   N2    S    
C52   H24   S    
Ba2   O4    S    
C38   C43   A    
C1    H9    S    
C44   H45   S    
C44   C46   S    
C4    C16   S    
C42   P5    S    
C32   C41   A    
O12   P2    S    
C33   C36   A    
C32   C42   A    
O11   P6    D    
C37   C38   A    
C3    C5    A    
O25   P8    S    
C16   H48   S    
O17   P3    D    
O16   P3    S    
C47   H2    S    
O3    P5    S    
C14   H33   S    
C40   H34   S    
C51   H21   S    
Ba1   O5    S    
C35   C36   A    
C49   O18   D    
C29   C30   A    
C5    C11   A    
C4    H37   S    
C12   H8    S    
O15   P2    D    
C15   C21   A    
O4    P1    S    
O5    P2    S    
C53   H26   S    
C10   C54   A    
C1    C12   S    
C3    C10   A    
C46   H59   S    
C3    H30   S    
C49   O19   S    
C38   C39   A    
C6    C13   A    
C4    O22   S    
Ba2   O24   S    
C20   C22   A    
Ba1   P1    S    
C51   H20   S    
C21   C26   A    
Ba1   O16   S    
O8    P8    D    
C35   H43   S    
C34   H13   S    
H55   O19   S    
C46   H58   S    
C47   O12   S    
Ba2   O23   S    
C12   H1    S    
C28   C50   S    
C52   C53   S    
C13   C22   S    
O2    P5    D    
C4    H27   S    
H52   N1    S    
C23   H10   S    
C45   H18   S    
C43   H44   S    
Ba2   O6    S    
C16   H17   S    
C2    P4    S    
C52   O9    S    
C47   H3    S    
C45   C51   S    
C6    H31   S    
C30   C31   A    
O24   P4    S    
C1    H16   S    
C16   H49   S    
C27   C29   A    
C41   P7    S    
C9    P1    S    
C54   H29   S    
C5    P8    S    
C44   O13   S    
O14   P6    S    
C15   C17   A    
C35   C39   A    
C9    C14   A    
C8    C9    A    
C23   C34   S    
C27   H39   S    
O28   P5    S    
C45   N1    S    
C18   C19   A    
C24   C27   A    
C47   C48   S    
C25   C26   A    
C48   H5    S    
C20   C21   A    
C28   C40   S    
Ba1   P2    S    
C53   H28   S    
C19   C20   A    
O22   P3    S    
H51   N1    S    
C2    C54   A    
C52   H22   S    
