data_mof_unit_15781.cif
_audit_creation_date              2012-12-10T18:27:53-0500
_audit_creation_method            fapswitch 2.2
_symmetry_space_group_name_H-M    P1
_symmetry_Int_Tables_number       1
_space_group_crystal_system       triclinic
_cell_length_a                    18.146928
_cell_length_b                    18.189801
_cell_length_c                    18.162811
_cell_angle_alpha                 90.264978
_cell_angle_beta                  119.694045
_cell_angle_gamma                 119.894858
_cell_volume                      4255.8189174

loop_
_atom_site_label
_atom_site_type_symbol
_atom_type_description
_atom_site_fract_x
_atom_site_fract_y
_atom_site_fract_z
_atom_type_partial_charge
C1    C     C_R   0.781986 0.644128 0.640718 0.877958
C2    C     C_3   0.059611 0.199667 0.272427 -0.379133
C3    C     C_3   0.101846 0.300533 0.300974 0.117263
C4    C     C_R   0.217441 0.358621 0.358396 0.767013
C5    C     C_3   0.897902 0.198156 0.200038 0.064762
C6    C     C_3   0.939829 0.267109 0.156804 -0.488675
C7    C     C_3   0.940646 0.140375 0.209210 -0.332136
C8    C     C_3   0.591526 0.359986 0.799474 0.374166
C9    C     C_3   0.588343 0.300098 0.858881 -0.554071
C10   C     C_3   0.400561 0.252470 0.693637 -0.631761
C11   C     C_3   0.519189 0.229173 0.667548 0.831195
C12   C     C_3   0.566473 0.763324 0.835594 0.497598
C13   C     C_3   0.502211 0.299544 0.697678 -0.092150
C14   C     C_3   0.503758 0.198119 0.800407 -0.085291
C15   C     C_3   0.398605 0.188547 0.749483 -0.426313
C16   C     C_R   0.500818 0.642114 0.359617 0.841551
C17   C     C_3   0.515044 0.164395 0.727218 0.812781
C18   C     C_3   0.936455 0.772475 0.782479 -0.413299
C19   C     C_3   0.056517 0.838002 0.840957 0.227620
C20   C     C_3   0.938134 0.646964 0.728292 -0.517535
C21   C     C_3   0.939217 0.759104 0.643992 0.206001
C22   C     C_3   0.896740 0.705687 0.697202 -0.077989
C23   C     C_3   0.597892 0.791903 0.770117 -0.489888
C24   C     C_3   0.101542 0.806134 0.801842 -0.135842
C25   C     C_3   0.057214 0.706042 0.793911 -0.402183
C26   C     C_3   0.059824 0.816576 0.705121 0.293017
C27   C     C_3   0.481379 0.328562 0.213064 0.314188
C28   C     C_R   0.500687 0.358490 0.640980 0.890507
C29   C     C_3   0.488424 0.271665 0.155966 0.082046
C30   C     C_3   0.604453 0.310919 0.353295 0.329296
C31   C     C_3   0.410036 0.201592 0.269028 -0.606151
C32   C     C_3   0.499711 0.301849 0.299354 -0.065127
C33   C     C_3   0.498071 0.198800 0.197337 -0.154219
C34   C     C_3   0.529851 0.827981 0.735790 0.463305
C35   C     C_3   0.602381 0.247600 0.293083 0.217809
C36   C     C_3   0.407055 0.141595 0.207173 -0.312326
C37   C     C_3   0.616487 0.785697 0.348532 -0.474847
C38   C     C_3   0.620013 0.846399 0.287580 0.327556
C39   C     C_3   0.458120 0.650128 0.208880 -0.483013
C40   C     C_R   0.499469 0.358611 0.357651 0.814796
C41   C     C_3   0.435014 0.734504 0.295447 -0.405311
C42   C     C_3   0.503021 0.702233 0.304403 0.001162
C43   C     C_3   0.506242 0.807394 0.205489 -0.142658
C44   C     C_3   0.455572 0.710376 0.148860 0.331097
C45   C     C_3   0.433303 0.736081 0.664796 0.500836
C46   C     C_3   0.442558 0.801816 0.243439 0.171600
C47   C     C_R   0.501029 0.141126 0.858775 0.902704
C48   C     C_R   0.503481 0.862402 0.144766 0.906234
C49   C     C_R   0.782426 0.141060 0.140841 0.804106
C50   C     C_R   0.217310 0.861117 0.858983 0.817251
C51   C     C_R   0.499400 0.141270 0.141142 0.976172
C52   C     C_R   0.499635 0.641291 0.641359 0.906644
C53   C     C_R   0.500180 0.858499 0.858656 0.873790
C54   C     C_3   0.470008 0.671366 0.764609 0.475275
C55   C     C_3   0.401905 0.707465 0.730315 -0.506245
C56   C     C_3   0.499675 0.698713 0.698273 -0.224308
C57   C     C_3   0.500092 0.800703 0.802029 -0.205913
C58   C     C_3   0.405721 0.575258 0.831680 -0.303277
C59   C     C_3   0.758339 0.493717 0.885111 -0.286900
C60   C     C_3   0.341049 0.128209 0.526719 -0.253761
C61   C     C_3   0.640818 0.249355 0.635906 -0.155800
C62   C     C_3   0.696128 0.220818 0.842917 -0.342489
C63   C     C_3   0.428467 0.016659 0.630357 -0.119413
C64   C     C_3   0.694274 0.748519 0.939361 -0.256644
C65   C     C_3   0.089575 0.729080 0.638144 -0.218095
C66   C     C_3   0.516420 0.460881 0.178308 -0.244299
C67   C     C_3   0.060737 0.313363 0.353619 -0.412912
C68   C     C_3   0.759493 0.439700 0.474662 -0.270723
C69   C     C_3   0.592312 0.923674 0.667481 -0.242855
C70   C     C_3   0.714947 0.218515 0.403452 -0.146071
C71   C     C_3   0.720337 0.812231 0.262495 -0.201368
C72   C     C_3   0.302956 0.748191 0.561253 -0.256244
C73   C     C_3   0.322580 0.615849 0.000281 -0.351298
C74   C     C_3   0.940141 0.251809 0.295240 0.258429
C75   C     C_3   0.059684 0.325460 0.214881 -0.400344
H1    H     H_    0.323556 0.675040 0.715906 0.168674
H2    H     H_    0.909145 0.231405 0.087899 0.180967
H3    H     H_    0.573900 0.405612 0.817074 0.099249
H4    H     H_    0.666358 0.317118 0.909553 0.199016
H5    H     H_    0.567884 0.318335 0.901221 0.194946
H6    H     H_    0.397901 0.304374 0.722814 0.211466
H7    H     H_    0.385008 0.205548 0.798507 0.237172
H8    H     H_    0.328900 0.218589 0.624668 0.216546
H9    H     H_    0.331182 0.118238 0.705475 0.245079
H10   H     H_    0.909922 0.732878 0.821171 0.220949
H11   H     H_    0.901315 0.810695 0.764604 0.215981
H12   H     H_    0.912550 0.295865 0.286235 0.077409
H13   H     H_    0.076452 0.905007 0.834253 0.138133
H14   H     H_    0.904632 0.605650 0.762439 0.209885
H15   H     H_    0.079291 0.697895 0.860369 0.235259
H16   H     H_    0.909741 0.709902 0.583328 0.140677
H17   H     H_    0.087704 0.888285 0.719485 0.162921
H18   H     H_    0.676288 0.824482 0.784596 0.188298
H19   H     H_    0.912910 0.598665 0.669261 0.160773
H20   H     H_    0.090711 0.680831 0.773277 0.156370
H21   H     H_    0.401406 0.312161 0.175419 0.115635
H22   H     H_    0.561759 0.317728 0.161402 0.142550
H23   H     H_    0.089671 0.397752 0.232916 0.192570
H24   H     H_    0.666302 0.288580 0.284310 0.112602
H25   H     H_    0.420756 0.179555 0.328572 0.241167
H26   H     H_    0.334003 0.192741 0.233017 0.222723
H27   H     H_    0.330916 0.106174 0.141176 0.264378
H28   H     H_    0.411987 0.088755 0.235424 0.260729
H29   H     H_    0.609755 0.287616 0.411567 0.076496
H30   H     H_    0.668178 0.763860 0.365023 0.223073
H31   H     H_    0.645179 0.825452 0.414824 0.215517
H32   H     H_    0.650828 0.912383 0.329250 0.213816
H33   H     H_    0.505142 0.626472 0.212052 0.137663
H34   H     H_    0.913069 0.311589 0.150076 0.189502
H35   H     H_    0.503094 0.716109 0.124223 0.112634
H36   H     H_    0.352430 0.675590 0.258661 0.179743
H37   H     H_    0.458054 0.763904 0.363175 0.240349
H38   H     H_    0.362041 0.774906 0.185664 0.174482
H39   H     H_    0.378436 0.588595 0.178746 0.197212
H40   H     H_    0.087987 0.384795 0.372941 0.162535
H41   H     H_    0.094231 0.299267 0.417414 0.209269
H42   H     H_    0.330904 0.568244 0.796767 0.161367
H43   H     H_    0.464019 0.630944 0.897300 0.181679
H44   H     H_    0.391415 0.512063 0.846116 0.194372
H45   H     H_    0.091289 0.188891 0.237618 0.181288
H46   H     H_    0.764536 0.483642 0.947780 0.143201
H47   H     H_    0.732678 0.538764 0.864892 0.179792
H48   H     H_    0.836911 0.527677 0.899723 0.184552
H49   H     H_    0.311964 0.103987 0.568151 0.192342
H50   H     H_    0.307370 0.067138 0.475211 0.186174
H51   H     H_    0.308126 0.163763 0.489302 0.198148
H52   H     H_    0.605863 0.257960 0.569149 0.171045
H53   H     H_    0.612329 0.178058 0.628224 0.182702
H54   H     H_    0.725782 0.288737 0.668773 0.151920
H55   H     H_    0.725799 0.290076 0.841248 0.244004
H56   H     H_    0.084799 0.178768 0.332907 0.206571
H57   H     H_    0.754003 0.209536 0.850962 0.198689
H58   H     H_    0.693679 0.211722 0.902093 0.154113
H59   H     H_    0.467863 0.991360 0.679927 0.238781
H60   H     H_    0.468033 0.047889 0.597159 0.170334
H61   H     H_    0.348794 0.957849 0.577536 0.144526
H62   H     H_    0.750633 0.790700 0.923299 0.180284
H63   H     H_    0.645995 0.676492 0.898508 0.186547
H64   H     H_    0.739568 0.754513 0.010998 0.181427
H65   H     H_    0.052572 0.725891 0.975266 0.341286
H66   H     H_    0.901206 0.901756 0.507880 0.389085
H67   H     H_    0.908705 0.085427 0.234352 0.243189
H68   H     H_    0.014833 0.669321 0.620393 0.110885
H69   H     H_    0.155828 0.730243 0.693219 0.161779
H70   H     H_    0.090755 0.721567 0.578177 0.174865
H71   H     H_    0.491993 0.431878 0.109965 0.181592
H72   H     H_    0.578016 0.533795 0.202813 0.175629
H73   H     H_    0.451184 0.454376 0.176484 0.139461
H74   H     H_    0.483492 0.320433 0.997623 0.336033
H75   H     H_    0.800593 0.407053 0.501620 0.130213
H76   H     H_    0.720266 0.436086 0.507415 0.136775
H77   H     H_    0.818637 0.511859 0.492038 0.190658
H78   H     H_    0.915981 0.107269 0.141890 0.173371
H79   H     H_    0.531149 0.869295 0.600961 0.205583
H80   H     H_    0.665124 0.927539 0.699318 0.177379
H81   H     H_    0.609239 0.988232 0.655423 0.195118
H82   H     H_    0.732328 0.253465 0.465893 0.124066
H83   H     H_    0.773100 0.264328 0.390412 0.152094
H84   H     H_    0.723156 0.162435 0.415177 0.260548
H85   H     H_    0.655846 0.740050 0.233466 0.114596
H86   H     H_    0.784883 0.828876 0.331874 0.188641
H87   H     H_    0.751106 0.824790 0.220821 0.189514
H88   H     H_    0.348684 0.818212 0.605752 0.172806
H89   H     H_    0.086794 0.314956 0.175280 0.173262
H90   H     H_    0.243908 0.701246 0.572856 0.154719
H91   H     H_    0.260962 0.746546 0.490794 0.190913
H92   H     H_    0.346691 0.896747 0.245120 0.373084
H93   H     H_    0.335639 0.562737 0.016620 0.166982
H94   H     H_    0.365569 0.655474 0.971825 0.148499
H95   H     H_    0.238572 0.581983 0.947892 0.201149
H96   H     H_    0.738576 0.149988 0.274062 0.329778
O1    O     O_3   0.500000 0.500000 0.500000 -0.505572
O2    O     O_R   0.266230 0.883210 0.944500 -0.557455
O3    O     O_R   0.561150 0.178510 0.117240 -0.664189
O4    O     O_R   0.733670 0.616970 0.678220 -0.654796
O5    O     O_R   0.438720 0.882700 0.821420 -0.650258
O6    O     O_R   0.438610 0.055960 0.117240 -0.578163
O7    O     O_R   0.561250 0.882700 0.943960 -0.615051
O8    O     O_R   0.733630 0.055440 0.116700 -0.600754
O9    O     O_R   0.266260 0.883000 0.821740 -0.616338
O10   O     O_R   0.561190 0.178210 0.944500 -0.648192
O11   O     O_R   0.438650 0.883210 0.116920 -0.610623
O12   O     O_R   0.438720 0.616970 0.383270 -0.652704
O13   O     O_R   0.266300 0.444520 0.383270 -0.641694
O14   O     O_R   0.561280 0.616750 0.383040 -0.617874
O15   O     O_R   0.438750 0.321760 0.555460 -0.634024
O16   O     O_R   0.561320 0.444010 0.382720 -0.564607
O17   O     O_R   0.561210 0.617270 0.678540 -0.645968
O18   O     O_R   0.438790 0.321460 0.382720 -0.663804
O19   O     O_R   0.438680 0.617270 0.556010 -0.601051
O20   O     O_3   0.441723 0.587066 0.776581 -0.601881
O21   O     O_3   0.690775 0.411061 0.814578 -0.553182
O22   O     O_3   0.450337 0.181135 0.571589 -0.638467
O23   O     O_R   0.561250 0.444520 0.678220 -0.634261
O24   O     O_3   0.622698 0.283848 0.690393 -0.615183
O25   O     O_3   0.600036 0.155367 0.762636 -0.640740
O26   O     O_3   0.421156 0.076071 0.672273 -0.657175
O27   O     O_3   0.633071 0.779346 0.927861 -0.590051
O28   O     O_2   0.205931 0.947685 0.015291 -0.222517
O29   O     O_2   0.029136 0.855746 0.972558 -0.319109
O30   O     O_3   0.122550 0.778386 0.995864 -0.541283
O31   O     O_2   0.779723 0.779886 0.553249 -0.326083
O32   O     O_2   0.948204 0.911805 0.676451 -0.321537
O33   O     O_3   0.925610 0.863022 0.528407 -0.535748
O34   O     O_R   0.733700 0.616750 0.555460 -0.619304
O35   O     O_3   0.103802 0.811782 0.659762 -0.549750
O36   O     O_3   0.558022 0.421568 0.237876 -0.545701
O37   O     O_2   0.310205 0.128340 0.002460 -0.256231
O38   O     O_2   0.327655 0.270305 0.014557 -0.324481
O39   O     O_3   0.442154 0.253983 0.980107 -0.554226
O40   O     O_3   0.688983 0.401187 0.380181 -0.558038
O41   O     O_3   0.559139 0.912641 0.724679 -0.628868
O42   O     O_3   0.611620 0.181787 0.330787 -0.601400
O43   O     O_3   0.689126 0.869643 0.261157 -0.554774
O44   O     O_3   0.366797 0.720500 0.572649 -0.581889
O45   O     O_R   0.266330 0.321760 0.383040 -0.657142
O46   O     O_2   0.572676 0.930380 0.409586 -0.300975
O47   O     O_2   0.537833 0.985502 0.282701 -0.272268
O48   O     O_3   0.391906 0.900489 0.307404 -0.519546
O49   O     O_3   0.351167 0.672894 0.076283 -0.604908
O50   O     O_2   0.939140 0.129211 0.381555 -0.259157
O51   O     O_2   0.928134 0.242843 0.437579 -0.326243
O52   O     O_3   0.763660 0.111195 0.290067 -0.517567
O53   O     O_3   0.499930 0.999970 0.999970 -0.530218
O54   O     O_R   0.438680 0.055440 0.821740 -0.590441
O55   O     O_R   0.561210 0.883000 0.116700 -0.600484
O56   O     O_R   0.733610 0.178210 0.116920 -0.681198
S1    S     S_3+6 0.104834 0.856577 0.958971 0.042984
S2    S     S_3+6 0.895075 0.829808 0.601317 -0.005125
S3    S     S_3+6 0.386494 0.228695 0.036156 -0.000280
S4    S     S_3+6 0.491229 0.908836 0.313056 0.012677
S5    S     S_3+6 0.893934 0.182600 0.354125 0.007921
Zn1   Zn    Zn3+2 0.412450 0.543930 0.456390 0.997400
Zn2   Zn    Zn3+2 0.587550 0.543620 0.456070 1.028788
Zn3   Zn    Zn3+2 0.412480 0.368530 0.456070 0.952484
Zn4   Zn    Zn3+2 0.587520 0.543930 0.631470 0.986793
Zn5   Zn    Zn3+2 0.587490 0.956040 0.043570 1.042487
Zn6   Zn    Zn3+2 0.587450 0.131440 0.043900 0.989667
Zn7   Zn    Zn3+2 0.412380 0.956350 0.043900 1.116807
Zn8   Zn    Zn3+2 0.412420 0.956040 0.868500 1.013867

loop_
_geom_bond_atom_site_label_1
_geom_bond_atom_site_label_2
_ccdc_geom_bond_type
O10   Zn6   S    
C59   H46   S    
O30   S1    S    
C48   O11   A    
C21   C26   S    
C8    C13   S    
C4    O45   A    
C71   H87   S    
C64   O27   S    
C27   C29   S    
C10   H6    S    
C41   C42   S    
C62   H55   S    
C2    C7    S    
C44   O49   S    
H66   O33   S    
C62   O25   S    
C47   O10   A    
C53   O7    A    
C27   H21   S    
C16   O12   A    
C23   C56   S    
C40   O16   A    
C64   H63   S    
O1    Zn1   S    
C71   H85   S    
C12   C23   S    
C25   H15   S    
C18   H11   S    
C30   C35   S    
C50   O2    A    
C31   H26   S    
O28   S1    D    
O33   S2    S    
C60   H50   S    
C75   H23   S    
C24   C26   S    
C29   S3    S    
C18   C19   S    
C15   H9    S    
C10   C15   S    
O3    Zn6   S    
C9    H4    S    
C5    C6    S    
C65   H68   S    
C20   C25   S    
O9    Zn8   S    
C26   H17   S    
C67   H41   S    
C29   C33   S    
C10   H8    S    
C58   H43   S    
C33   C36   S    
C36   H27   S    
C70   H84   S    
O29   S1    D    
C38   H32   S    
C60   H49   S    
C67   H40   S    
C5    C74   S    
C45   O44   S    
C11   C17   S    
C40   O18   A    
C45   C56   S    
C8    C9    S    
C41   H37   S    
C7    H78   S    
C60   O22   S    
C34   C57   S    
C28   O23   A    
C41   C46   S    
C13   C28   S    
C17   O26   S    
C74   H12   S    
C49   O56   A    
C1    O34   A    
C43   C48   S    
C61   O24   S    
C31   C36   S    
C66   H73   S    
O17   Zn4   S    
C61   H54   S    
O6    Zn7   S    
C39   H39   S    
C59   H47   S    
O14   Zn2   S    
C24   C25   S    
O51   S5    D    
C1    C22   S    
C21   H16   S    
O55   Zn5   S    
C21   C22   S    
C8    H3    S    
C14   C17   S    
C5    C49   S    
C59   O21   S    
C26   O35   S    
C38   O43   S    
C73   H93   S    
C35   H24   S    
H92   O48   S    
O53   Zn7   S    
O11   Zn7   S    
C37   C42   S    
C39   C42   S    
C64   H62   S    
O1    Zn4   S    
C59   H48   S    
C39   H33   S    
O47   S4    D    
C54   C56   S    
C69   H81   S    
C54   O20   S    
C18   H10   S    
C63   H59   S    
C62   H57   S    
C6    C75   S    
H74   O39   S    
C74   S5    S    
C19   H13   S    
O48   S4    S    
C30   O40   S    
O32   S2    D    
C65   H69   S    
C2    H45   S    
C11   O24   S    
C6    H2    S    
C52   O19   A    
C65   O35   S    
O34   Zn2   S    
O56   Zn6   S    
C58   H42   S    
C63   O26   S    
C73   O49   S    
C75   H89   S    
C70   H83   S    
C9    H5    S    
C63   H60   S    
C51   O3    A    
C50   O9    A    
C19   S1    S    
C37   H30   S    
C37   C38   S    
C68   H77   S    
C28   O15   A    
C48   O55   A    
C31   C32   S    
C47   O54   A    
C7    H67   S    
C23   C34   S    
C21   S2    S    
C2    H56   S    
O39   S3    S    
C9    C14   S    
C61   H52   S    
C34   C45   S    
C69   H80   S    
C31   H25   S    
C4    O13   A    
C35   O42   S    
C24   C50   S    
C66   H72   S    
C39   C44   S    
C34   O41   S    
O12   Zn1   S    
O31   S2    D    
C55   H1    S    
O5    Zn8   S    
C20   C22   S    
C25   H20   S    
C36   H28   S    
C43   C44   S    
C6    H34   S    
C12   C57   S    
C65   H70   S    
C3    C4    S    
C16   C42   S    
C15   H7    S    
C3    C75   S    
O52   S5    S    
C62   H58   S    
C5    C7    S    
O15   Zn3   S    
O53   Zn5   S    
O1    Zn3   S    
C69   O41   S    
O54   Zn8   S    
C20   H19   S    
C54   C55   S    
C1    O4    A    
C53   C57   S    
C71   H86   S    
C46   H38   S    
C27   C32   S    
C18   C22   S    
C70   O42   S    
C72   H91   S    
C3    C67   S    
C11   O22   S    
O23   Zn4   S    
C10   C13   S    
H96   O52   S    
O2    Zn7   S    
C14   C47   S    
O1    Zn2   S    
C33   C51   S    
C71   O43   S    
C20   H14   S    
O19   Zn1   S    
C69   H79   S    
C72   H90   S    
C29   H22   S    
C16   O14   A    
C70   H82   S    
C63   H61   S    
C55   C57   S    
C2    C3    S    
C38   C43   S    
O53   Zn8   S    
C68   H76   S    
C46   S4    S    
H65   O30   S    
O46   S4    D    
C30   C32   S    
C66   O36   S    
C11   C13   S    
O53   Zn6   S    
C8    O21   S    
O50   S5    D    
C60   H51   S    
C58   H44   S    
C33   C35   S    
C72   H88   S    
C19   C24   S    
C61   H53   S    
C67   C74   S    
O38   S3    D    
C32   C40   S    
O18   Zn3   S    
C43   C46   S    
O13   Zn1   S    
C66   H71   S    
O16   Zn2   S    
C68   H75   S    
C23   H18   S    
C37   H31   S    
C72   O44   S    
C45   C55   S    
C27   O36   S    
O8    Zn5   S    
O4    Zn4   S    
C41   H36   S    
C30   H29   S    
C58   O20   S    
O45   Zn3   S    
C12   O27   S    
C14   C15   S    
C17   O25   S    
C52   O17   A    
C73   H95   S    
C51   O6    A    
C68   O40   S    
C73   H94   S    
O7    Zn5   S    
C12   C54   S    
C52   C56   S    
C53   O5    A    
O37   S3    D    
C49   O8    A    
C64   H64   S    
C44   H35   S    
