data_mof_unit_57721.cif
_audit_creation_date              2012-12-10T18:10:23-0500
_audit_creation_method            fapswitch 2.2
_symmetry_space_group_name_H-M    P1
_symmetry_Int_Tables_number       1
_space_group_crystal_system       triclinic
_cell_length_a                    10.885363
_cell_length_b                    9.500802
_cell_length_c                    15.866442
_cell_angle_alpha                 89.206811
_cell_angle_beta                  89.203541
_cell_angle_gamma                 90.392871
_cell_volume                      1640.54579592

loop_
_atom_site_label
_atom_site_type_symbol
_atom_type_description
_atom_site_fract_x
_atom_site_fract_y
_atom_site_fract_z
_atom_type_partial_charge
C1    C     C_R   0.259501 0.499629 0.506356 0.937444
C2    C     C_3   0.619651 0.466168 0.952074 -0.327458
C3    C     C_3   0.614774 0.458466 0.049470 -0.403814
C4    C     C_1   0.493657 0.496641 0.824546 -0.059479
C5    C     C_1   0.493024 0.506912 0.175632 -0.000700
C6    C     C_1   0.497112 0.503816 0.251052 -0.035111
C7    C     C_3   0.064422 0.638345 0.558529 0.082878
C8    C     C_3   0.062816 0.362616 0.560248 0.078283
C9    C     C_3   0.921460 0.616660 0.567107 -0.401274
C10   C     C_3   0.922335 0.357174 0.541524 -0.391188
C11   C     C_3   0.069811 0.503089 0.412492 -0.102660
C12   C     C_3   0.119565 0.500585 0.508995 -0.152937
C13   C     C_3   0.875678 0.500202 0.507679 0.003314
C14   C     C_R   0.500411 0.500947 0.340520 0.926589
C15   C     C_3   0.927165 0.526752 0.417874 -0.392930
C16   C     C_3   0.622378 0.087526 0.474893 -0.086554
C17   C     C_3   0.627041 0.920529 0.485801 -0.081925
C18   C     C_3   0.472806 0.081287 0.586873 -0.227557
C19   C     C_3   0.457821 0.915429 0.584091 -0.197196
C20   C     C_3   0.405484 0.082236 0.445309 -0.204948
C21   C     C_3   0.420253 0.918550 0.435558 -0.182795
C22   C     C_R   0.738929 0.500122 0.504092 0.794898
C23   C     C_R   0.499446 0.499052 0.659556 0.878501
C24   C     C_3   0.468153 0.660717 0.045306 -0.222151
C25   C     C_3   0.389404 0.399952 0.051886 -0.226579
C26   C     C_3   0.394261 0.391238 0.953183 -0.246160
C27   C     C_3   0.449670 0.649520 0.947937 -0.193886
C28   C     C_1   0.496578 0.496820 0.749063 -0.084150
C29   C     C_3   0.487686 0.508539 0.083333 0.103099
C30   C     C_3   0.490516 0.500331 0.916939 0.089949
Cu1   Cu    Cu3+1 0.499860 0.642410 0.500040 0.991941
Cu2   Cu    Cu3+1 0.499860 0.357590 0.500040 0.965280
H1    H     H_    0.349546 0.658796 0.935035 0.176326
H2    H     H_    0.303464 0.420843 0.926869 0.162596
H3    H     H_    0.872069 0.716855 0.554917 0.208160
H4    H     H_    0.903160 0.276689 0.493280 0.257250
H5    H     H_    0.902292 0.635897 0.401158 0.217435
H6    H     H_    0.876251 0.463907 0.371292 0.212950
H7    H     H_    0.693232 0.129075 0.518012 0.119807
H8    H     H_    0.682621 0.897724 0.542881 0.091329
H9    H     H_    0.547623 0.108501 0.631054 0.161440
H10   H     H_    0.511372 0.869964 0.636762 0.187573
H11   H     H_    0.312853 0.100681 0.470693 0.146655
H12   H     H_    0.329993 0.866994 0.435572 0.165987
H13   H     H_    0.404976 0.135885 0.383094 0.211892
H14   H     H_    0.456990 0.897135 0.371658 0.225559
H15   H     H_    0.388248 0.128040 0.613925 0.191415
H16   H     H_    0.360093 0.886214 0.596131 0.194522
H17   H     H_    0.415482 0.295745 0.079256 0.174368
H18   H     H_    0.554652 0.720463 0.056536 0.167050
H19   H     H_    0.690121 0.524685 0.074905 0.190847
H20   H     H_    0.632428 0.348469 0.070927 0.223241
H21   H     H_    0.687448 0.547634 0.931304 0.223936
H22   H     H_    0.654948 0.365754 0.926582 0.214872
H23   H     H_    0.892059 0.585105 0.631981 0.214603
H24   H     H_    0.866838 0.321957 0.597364 0.184065
N1    N     N_3   0.500250 0.143650 0.501830 -0.184448
N2    N     N_3   0.500250 0.856350 0.501830 -0.178754
O1    O     O_R   0.317570 0.620260 0.500050 -0.555588
O2    O     O_R   0.317570 0.379740 0.500050 -0.557039
O3    O     O_R   0.499890 0.620310 0.379470 -0.520465
O4    O     O_R   0.499890 0.379690 0.379470 -0.579578
O5    O     O_R   0.682190 0.620260 0.500020 -0.612286
O6    O     O_R   0.682190 0.379740 0.500020 -0.592791
O7    O     O_R   0.499870 0.620210 0.620600 -0.575090
O8    O     O_R   0.499870 0.379790 0.620600 -0.589868
C31   C     C_2   0.127102 0.616755 0.353318 0.827624
O9    O     O_2   0.238461 0.629483 0.346219 -0.554530
O10   O     O_R   0.053022 0.697864 0.300216 -0.777756
H25   H     H_    0.102111 0.766137 0.263148 0.366564
C32   C     C_2   0.099712 0.367473 0.365306 0.856470
O11   O     O_2   0.018597 0.288176 0.341693 -0.576766
O12   O     O_R   0.221945 0.335285 0.345713 -0.733037
H26   H     H_    0.230096 0.244844 0.313008 0.344323
C33   C     C_2   0.659893 0.140461 0.386014 0.919729
O13   O     O_2   0.601781 0.106059 0.324085 -0.607959
O14   O     O_R   0.766751 0.220184 0.374407 -0.747405
H27   H     H_    0.781949 0.247163 0.313067 0.351385
C34   C     C_2   0.704926 0.860925 0.414343 0.872139
O15   O     O_2   0.659758 0.805446 0.353205 -0.558905
O16   O     O_R   0.830840 0.890292 0.414103 -0.804935
H28   H     H_    0.872277 0.867496 0.358408 0.360658
C35   C     C_2   0.369164 0.750769 0.085812 0.889375
O17   O     O_2   0.311986 0.710648 0.148606 -0.556324
O18   O     O_R   0.347047 0.884750 0.051967 -0.731142
H29   H     H_    0.280792 0.936900 0.084147 0.349496
C36   C     C_2   0.260086 0.426863 0.084514 0.905224
O19   O     O_2   0.220537 0.359760 0.145494 -0.562378
O20   O     O_R   0.184969 0.525400 0.044464 -0.754308
H30   H     H_    0.101042 0.532771 0.072499 0.357296
C37   C     C_2   0.417815 0.241691 0.924778 0.882352
O21   O     O_2   0.349494 0.187295 0.873853 -0.549464
O22   O     O_R   0.515754 0.165203 0.957770 -0.757805
H31   H     H_    0.521358 0.067169 0.934093 0.371795
C38   C     C_2   0.512344 0.770220 0.900060 0.866377
O23   O     O_2   0.452757 0.842436 0.851257 -0.564497
O24   O     O_R   0.637378 0.798357 0.910668 -0.771927
H32   H     H_    0.667958 0.880028 0.874125 0.338293
C39   C     C_3   0.084417 0.783657 0.514383 -0.817361
H33   H     H_    0.181293 0.813771 0.511970 0.228880
H34   H     H_    0.043853 0.792688 0.451664 0.267928
H35   H     H_    0.039546 0.867560 0.551898 0.227906
C40   C     C_3   0.112270 0.213544 0.539800 -0.828275
H36   H     H_    0.113964 0.185747 0.472980 0.251916
H37   H     H_    0.203365 0.195663 0.567141 0.248786
H38   H     H_    0.052472 0.132371 0.571128 0.218619
C41   C     C_2   0.119616 0.662474 0.646201 0.856110
O25   O     O_2   0.230933 0.666729 0.654915 -0.594387
O26   O     O_R   0.043709 0.688630 0.716171 -0.743271
H39   H     H_    0.091770 0.704499 0.769540 0.357440
C42   C     C_2   0.086132 0.370441 0.655542 0.858767
O27   O     O_2   0.001395 0.374525 0.706969 -0.587273
O28   O     O_R   0.207164 0.368984 0.684370 -0.760189
H40   H     H_    0.212008 0.374074 0.748027 0.355753

loop_
_geom_bond_atom_site_label_1
_geom_bond_atom_site_label_2
_ccdc_geom_bond_type
C36   O19   D    
O22   H31   S    
C16   C33   S    
O12   H26   S    
Cu1   O3    S    
C27   C38   S    
C38   O23   D    
C24   C27   S    
C17   C34   S    
C18   H15   S    
O16   H28   S    
O14   H27   S    
C27   H1    S    
C7    C39   S    
C23   O8    A    
C24   C35   S    
O28   H40   S    
C1    O1    A    
C5    C6    T    
C11   C32   S    
C37   O22   S    
C14   O4    A    
C25   C36   S    
Cu1   O7    S    
C18   C19   S    
Cu1   O1    S    
C3    C29   S    
C9    C13   S    
C24   C29   S    
C15   H5    S    
C22   O5    A    
C11   C15   S    
C26   H2    S    
C35   O17   D    
C16   C17   S    
C41   O25   D    
C9    H23   S    
C10   H24   S    
C20   H13   S    
C19   H10   S    
C17   N2    S    
C27   C30   S    
C25   C29   S    
C41   O26   S    
C1    C12   S    
Cu2   N1    S    
C4    C28   T    
C11   C31   S    
O24   H32   S    
C5    C29   S    
C19   N2    S    
C24   H18   S    
C7    C12   S    
C31   O9    D    
Cu1   O5    S    
Cu2   O6    S    
C40   H37   S    
C2    H22   S    
C8    C42   S    
C37   O21   D    
C32   O12   S    
C3    H19   S    
C19   H16   S    
C26   C37   S    
O18   H29   S    
C14   O3    A    
C2    H21   S    
C31   O10   S    
C17   H8    S    
C33   O13   D    
C15   H6    S    
C6    C14   S    
C21   H12   S    
C18   N1    S    
C39   H33   S    
C8    C12   S    
C42   O28   S    
C23   C28   S    
C33   O14   S    
C39   H34   S    
C26   C30   S    
C13   C15   S    
C7    C41   S    
C18   H9    S    
Cu2   O2    S    
O20   H30   S    
C20   H11   S    
Cu1   N2    S    
Cu2   O8    S    
C21   H14   S    
C7    C9    S    
C42   O27   D    
C35   O18   S    
Cu1   Cu2   S    
C10   C13   S    
C3    H20   S    
C38   O24   S    
C34   O16   S    
C2    C30   S    
C23   O7    A    
C36   O20   S    
C2    C3    S    
C25   C26   S    
Cu2   O4    S    
C32   O11   D    
O26   H39   S    
C13   C22   S    
C40   H38   S    
C16   N1    S    
O10   H25   S    
C1    O2    A    
C8    C40   S    
C25   H17   S    
C16   H7    S    
C22   O6    A    
C34   O15   D    
C21   N2    S    
C39   H35   S    
C20   C21   S    
C8    C10   S    
C40   H36   S    
C9    H3    S    
C10   H4    S    
C20   N1    S    
C4    C30   S    
C11   C12   S    
