data_mof_unit_50636.cif
_audit_creation_date              2012-12-10T16:54:02-0500
_audit_creation_method            fapswitch 2.2
_symmetry_space_group_name_H-M    P1
_symmetry_Int_Tables_number       1
_space_group_crystal_system       triclinic
_cell_length_a                    9.712043
_cell_length_b                    10.944307
_cell_length_c                    13.349089
_cell_angle_alpha                 90.259304
_cell_angle_beta                  72.14528
_cell_angle_gamma                 90.192175
_cell_volume                      1350.54078241

loop_
_atom_site_label
_atom_site_type_symbol
_atom_type_description
_atom_site_fract_x
_atom_site_fract_y
_atom_site_fract_z
_atom_type_partial_charge
C1    C     C_R   0.497367 0.734416 0.505060 0.791067
C2    C     C_R   0.431278 0.540333 0.983450 0.103200
C3    C     C_R   0.465770 0.558591 0.873680 -0.010031
C4    C     C_R   0.541761 0.558010 0.032000 0.029174
C5    C     C_R   0.671694 0.621663 0.978491 0.041587
C6    C     C_R   0.690491 0.661096 0.874178 0.133944
C7    C     C_R   0.589895 0.627782 0.823317 -0.202769
C8    C     C_R   0.528246 0.506949 0.130658 -0.215441
C9    C     C_R   0.750499 0.602596 0.135953 0.137286
C10   C     C_R   0.371978 0.512217 0.818380 -0.143414
C11   C     C_2   0.589972 0.065167 0.537933 0.032832
C12   C     C_R   0.421518 0.504139 0.701177 0.807430
C13   C     C_2   0.503252 0.133582 0.498401 -0.359377
C14   C     C_2   0.600784 0.934425 0.513814 -0.206872
C15   C     C_2   0.482946 0.864674 0.527650 -0.017788
C16   C     C_2   0.062347 0.587879 0.538198 -0.138003
C17   C     C_2   0.917801 0.596213 0.519223 0.237957
C18   C     C_R   0.499249 0.265572 0.502640 0.875386
C19   C     C_R   0.578345 0.506550 0.299553 0.806011
C20   C     C_R   0.776656 0.642647 0.032117 0.185145
C21   C     C_R   0.624472 0.534713 0.185988 -0.172543
C22   C     C_R   0.233021 0.468072 0.877651 0.116809
C23   C     C_R   0.190185 0.473591 0.986880 -0.142443
C24   C     C_R   0.285883 0.510368 0.040585 0.103094
Cu1   Cu    Cu3+1 0.361370 0.499980 0.499980 0.944467
Cu2   Cu    Cu3+1 0.638630 0.500020 0.500020 0.973406
H1    H     H_    0.440610 0.091245 0.452682 0.167577
H2    H     H_    0.708033 0.895079 0.485748 0.182437
H3    H     H_    0.096764 0.664081 0.577069 0.156379
H4    H     H_    0.123720 0.436062 0.455585 0.196702
H5    H     H_    0.890052 0.416914 0.506232 0.182896
H6    H     H_    0.442508 0.442996 0.166186 0.190864
H7    H     H_    0.080356 0.448443 0.031101 0.165040
H8    H     H_    0.607860 0.662880 0.744819 0.171084
N1    N     N_2   0.152660 0.501340 0.501130 -0.282723
N2    N     N_2   0.846520 0.501370 0.501160 -0.269298
O1    O     O_R   0.382960 0.678040 0.499980 -0.583306
O2    O     O_R   0.617100 0.678080 0.500020 -0.554890
O3    O     O_R   0.325800 0.499940 0.650950 -0.588033
O4    O     O_R   0.559930 0.499980 0.650990 -0.543435
O5    O     O_R   0.382900 0.321920 0.499980 -0.575656
O6    O     O_R   0.617040 0.321960 0.500020 -0.555413
O7    O     O_R   0.440070 0.500020 0.349010 -0.559108
O8    O     O_R   0.674200 0.500060 0.349050 -0.587211
N3    N     N_3   0.853561 0.634780 0.189037 -0.565836
H9    H     H_    0.801929 0.686256 0.256134 0.236110
H10   H     H_    0.895595 0.554746 0.210425 0.225851
N4    N     N_3   0.340348 0.914573 0.573468 -0.573580
H11   H     H_    0.281045 0.900019 0.521001 0.227823
H12   H     H_    0.289696 0.866383 0.642478 0.222238
N5    N     N_3   0.860189 0.716132 0.520915 -0.529381
H13   H     H_    0.934801 0.767770 0.463451 0.205361
H14   H     H_    0.850330 0.756214 0.593859 0.200744
N6    N     N_3   0.812643 0.732684 0.816929 -0.635236
H15   H     H_    0.872418 0.681618 0.751927 0.212721
H16   H     H_    0.775450 0.811863 0.790108 0.234649
N7    N     N_3   0.910537 0.705861 0.985302 -0.552205
H17   H     H_    0.971177 0.659079 0.917906 0.242872
H18   H     H_    0.889478 0.795640 0.968171 0.251013
N8    N     N_3   0.131056 0.418245 0.830274 -0.584238
H19   H     H_    0.179487 0.346540 0.779909 0.247884
H20   H     H_    0.097886 0.486795 0.788573 0.240204
N9    N     N_3   0.229337 0.531058 0.151850 -0.599761
H21   H     H_    0.177354 0.451345 0.187297 0.205918
H22   H     H_    0.152228 0.600508 0.164882 0.245474
C25   C     C_2   0.674063 0.112528 0.606259 0.866850
O9    O     O_2   0.627799 0.197173 0.667351 -0.585535
O10   O     O_R   0.802902 0.054812 0.604854 -0.796115
H23   H     H_    0.849220 0.093203 0.655930 0.332150

loop_
_geom_bond_atom_site_label_1
_geom_bond_atom_site_label_2
_ccdc_geom_bond_type
C12   O4    A    
C2    C4    A    
C23   C24   A    
N9    H22   S    
C9    N3    S    
C6    C7    A    
C1    C15   S    
C17   N2    D    
C20   N7    S    
C13   C18   S    
Cu1   O3    S    
C9    C20   A    
C25   O10   S    
C14   C15   D    
C11   C25   S    
C1    O1    A    
C4    C8    A    
C9    C21   A    
C17   N5    S    
C12   O3    A    
N4    H12   S    
C25   O9    D    
C16   H3    S    
Cu2   O8    S    
N8    H19   S    
C3    C10   A    
N3    H9    S    
C10   C22   A    
C2    C24   A    
C11   C13   D    
Cu1   O7    S    
N7    H17   S    
C16   C17   S    
C10   C12   S    
C1    O2    A    
C6    N6    S    
H4    N1    S    
Cu2   N2    S    
N4    H11   S    
C19   C21   S    
C19   O7    A    
C2    C3    A    
C24   N9    S    
C3    C7    A    
N3    H10   S    
C16   N1    D    
C22   N8    S    
C5    C6    A    
C7    H8    S    
N6    H16   S    
N7    H18   S    
Cu1   N1    S    
N5    H14   S    
N5    H13   S    
C8    H6    S    
Cu2   O4    S    
C19   O8    A    
Cu2   O6    S    
N8    H20   S    
C18   O5    A    
Cu1   O5    S    
C11   C14   S    
C5    C20   A    
H5    N2    S    
C13   H1    S    
C18   O6    A    
C14   H2    S    
Cu1   Cu2   S    
N6    H15   S    
C15   N4    S    
O10   H23   S    
C22   C23   A    
Cu2   O2    S    
N9    H21   S    
Cu1   O1    S    
C4    C5    A    
C23   H7    S    
C8    C21   A    
