data_mof_unit_46262.cif
_audit_creation_date              2012-12-10T20:48:19-0500
_audit_creation_method            fapswitch 2.2
_symmetry_space_group_name_H-M    P1
_symmetry_Int_Tables_number       1
_space_group_crystal_system       triclinic
_cell_length_a                    10.706352
_cell_length_b                    8.92713
_cell_length_c                    8.10695
_cell_angle_alpha                 90.012233
_cell_angle_beta                  90.095611
_cell_angle_gamma                 90.003902
_cell_volume                      774.836830472

loop_
_atom_site_label
_atom_site_type_symbol
_atom_type_description
_atom_site_fract_x
_atom_site_fract_y
_atom_site_fract_z
_atom_type_partial_charge
C1    C     C_R   0.500027 0.218001 0.499995 0.909987
C2    C     C_1   0.499942 0.934771 0.500035 -0.141246
C3    C     C_3   0.073169 0.649673 0.600987 0.767976
C4    C     C_3   0.926164 0.643001 0.611412 0.689735
C5    C     C_3   0.120946 0.509436 0.499945 -0.198197
C6    C     C_3   0.878918 0.508375 0.501145 -0.167877
C7    C     C_R   0.257189 0.504510 0.499719 1.025328
C8    C     C_R   0.742790 0.502432 0.500063 0.960545
C9    C     C_R   0.499865 0.781971 0.500013 0.943485
C10   C     C_1   0.500002 0.065186 0.500008 -0.158475
C11   C     C_3   0.072633 0.360678 0.579644 0.120615
C12   C     C_3   0.070428 0.513278 0.317929 0.076049
C13   C     C_3   0.928657 0.355565 0.568946 0.147505
C14   C     C_3   0.927662 0.526317 0.320065 0.091531
H1    H     H_    0.110633 0.264404 0.506985 0.052944
H2    H     H_    0.067490 0.806430 0.427218 0.416429
H3    H     H_    0.894969 0.715142 0.836230 0.325493
H4    H     H_    0.784900 0.782757 0.590249 0.332012
H5    H     H_    0.095263 0.404136 0.258538 0.108254
H6    H     H_    0.901639 0.266234 0.478957 0.048303
H7    H     H_    0.889954 0.432260 0.243424 0.121118
H8    H     H_    0.116126 0.238680 0.770640 0.342193
H9    H     H_    0.114188 0.602063 0.106497 0.386823
H10   H     H_    0.882591 0.210410 0.737383 0.337898
H11   H     H_    0.881437 0.649701 0.131458 0.369198
H12   H     H_    0.113729 0.744628 0.812371 0.343086
N1    N     N_1   0.500000 0.500030 0.073640 -0.009527
N2    N     N_1   0.500000 0.500030 0.926360 -0.002390
O1    O     O_R   0.500000 0.285340 0.636850 -0.617209
O2    O     O_3   0.124635 0.629385 0.224442 -0.679166
O3    O     O_3   0.875766 0.320608 0.723295 -0.631633
O4    O     O_3   0.887703 0.663734 0.252596 -0.662056
O5    O     O_3   0.123527 0.643910 0.761899 -0.680611
O6    O     O_3   0.116863 0.783784 0.527325 -0.768390
O7    O     O_3   0.889241 0.618161 0.776678 -0.696799
O8    O     O_3   0.873752 0.779565 0.555718 -0.779233
O9    O     O_R   0.500000 0.285340 0.363150 -0.629080
O10   O     O_R   0.314790 0.499970 0.636880 -0.548084
O11   O     O_R   0.314790 0.499970 0.363120 -0.608741
O12   O     O_R   0.685210 0.499970 0.636880 -0.555730
O13   O     O_R   0.685210 0.499970 0.363120 -0.627358
O14   O     O_R   0.500000 0.714650 0.636900 -0.630239
O15   O     O_R   0.500000 0.714650 0.363100 -0.601426
O16   O     O_3   0.113340 0.347283 0.744428 -0.624107
Zn1   Zn    Zn3+2 0.500000 0.499990 0.682780 1.064977
Zn2   Zn    Zn3+2 0.500000 0.499990 0.317220 1.036091

loop_
_geom_bond_atom_site_label_1
_geom_bond_atom_site_label_2
_ccdc_geom_bond_type
C12   H5    S    
O13   Zn2   S    
C4    O8    S    
C6    C14   S    
C8    O12   A    
H12   O5    S    
C13   H6    S    
C1    O9    A    
C12   O2    S    
H11   O4    S    
C1    O1    A    
C4    O7    S    
C11   O16   S    
C6    C13   S    
C11   C13   S    
C9    O14   A    
C11   H1    S    
O11   Zn2   S    
N1    Zn2   S    
C7    O10   A    
C12   C14   S    
C5    C11   S    
O12   Zn1   S    
O15   Zn2   S    
N2    Zn1   S    
C9    O15   A    
C3    O5    S    
C3    C4    S    
C2    C10   T    
H9    O2    S    
H10   O3    S    
C8    O13   A    
C14   H7    S    
C5    C12   S    
C4    C6    S    
O1    Zn1   S    
N1    N2    T    
C5    C7    S    
C7    O11   A    
O10   Zn1   S    
C6    C8    S    
H3    O7    S    
C3    O6    S    
H2    O6    S    
O9    Zn2   S    
C2    C9    S    
H4    O8    S    
C13   O3    S    
H8    O16   S    
C1    C10   S    
C14   O4    S    
C3    C5    S    
O14   Zn1   S    
