data_mof_unit_62380.cif
_audit_creation_date              2012-10-26T21:19:14-0400
_audit_creation_method            fapswitch 2.2
_symmetry_space_group_name_H-M    P1
_symmetry_Int_Tables_number       1
_space_group_crystal_system       triclinic
_cell_length_a                    15.832507
_cell_length_b                    15.858135
_cell_length_c                    17.145413
_cell_angle_alpha                 90.966191
_cell_angle_beta                  95.316271
_cell_angle_gamma                 91.704224
_cell_volume                      4283.5223837

loop_
_atom_site_label
_atom_site_type_symbol
_atom_type_description
_atom_site_fract_x
_atom_site_fract_y
_atom_site_fract_z
_atom_type_partial_charge
C1    C     C_R   0.509600 0.499176 0.651231 0.552555
C2    C     C_R   0.409297 0.462388 0.137972 -0.106373
C3    C     C_R   0.585821 0.534005 0.780657 -0.156847
C4    C     C_R   0.414257 0.465808 0.219356 -0.156824
C5    C     C_R   0.245794 0.540621 0.538565 0.108912
C6    C     C_R   0.754206 0.459382 0.461432 0.108861
C7    C     C_R   0.156793 0.537353 0.535603 -0.123743
C8    C     C_R   0.843206 0.462649 0.464395 -0.123782
C9    C     C_R   0.108776 0.481720 0.482836 0.191156
C10   C     C_R   0.891224 0.518278 0.517165 0.191157
C11   C     C_R   0.153443 0.430165 0.433929 -0.031595
C12   C     C_R   0.490399 0.500820 0.348771 0.552567
C13   C     C_R   0.846557 0.569830 0.566075 -0.031596
C14   C     C_R   0.242921 0.435334 0.438789 0.015135
C15   C     C_R   0.757079 0.564662 0.561214 0.015130
C16   C     C_R   0.499372 0.660280 0.500093 0.556975
C17   C     C_R   0.500627 0.339720 0.499906 0.556954
C18   C     C_3   0.537468 0.030048 0.568798 -0.098622
C19   C     C_3   0.462532 0.969952 0.431199 -0.098617
C20   C     C_3   0.456382 0.972370 0.558638 -0.096011
C21   C     C_3   0.543618 0.027629 0.441359 -0.096003
C22   C     C_1   0.498163 0.750011 0.500064 -0.008727
C23   C     C_R   0.446306 0.464400 0.776940 -0.042563
C24   C     C_1   0.501837 0.249989 0.499935 -0.008752
C25   C     C_3   0.579981 0.973501 0.510179 -0.097176
C26   C     C_3   0.420019 0.026498 0.489818 -0.097186
C27   C     C_3   0.498899 0.917360 0.500019 0.046876
C28   C     C_3   0.501101 0.082640 0.499978 0.046873
C29   C     C_1   0.498087 0.825614 0.500045 -0.044425
C30   C     C_1   0.501914 0.174385 0.499953 -0.044439
C31   C     C_R   0.513502 0.498606 0.737171 0.000914
C32   C     C_R   0.486497 0.501372 0.262835 0.000958
C33   C     C_1   0.108442 0.371668 0.378420 0.203339
C34   C     C_R   0.553624 0.535719 0.223066 -0.042576
C35   C     C_1   0.891559 0.628322 0.621588 0.203342
C36   C     C_1   0.627979 0.577283 0.263620 0.223011
C37   C     C_1   0.371845 0.423019 0.736393 0.223084
C38   C     C_1   0.708522 0.401095 0.406465 0.271753
C39   C     C_1   0.291477 0.598912 0.593528 0.271800
C40   C     C_R   0.451932 0.468199 0.858512 -0.085244
C41   C     C_R   0.548014 0.531894 0.141493 -0.085234
C42   C     C_R   0.524017 0.505555 0.901594 0.214901
C43   C     C_R   0.476015 0.494368 0.098418 0.214905
C44   C     C_R   0.590796 0.537399 0.862042 -0.106388
Cu1   Cu    Cu3+1 0.584780 0.504040 0.503820 0.989753
Cu2   Cu    Cu3+1 0.415220 0.495960 0.496180 0.989742
H1    H     H_    0.420533 0.948328 0.606746 0.125658
H2    H     H_    0.399943 0.441696 0.888084 0.144755
H3    H     H_    0.646695 0.565788 0.894577 0.131799
H4    H     H_    0.353463 0.433874 0.105442 0.131793
H5    H     H_    0.638182 0.560508 0.751656 0.135461
H6    H     H_    0.361955 0.439196 0.248366 0.135410
H7    H     H_    0.874349 0.421682 0.425522 0.144778
H8    H     H_    0.125650 0.578322 0.574473 0.144779
H9    H     H_    0.579468 0.051672 0.393251 0.125662
H10   H     H_    0.276802 0.395612 0.401104 0.130919
H11   H     H_    0.723199 0.604382 0.598901 0.130927
H12   H     H_    0.568279 0.056073 0.625256 0.120470
H13   H     H_    0.431721 0.943927 0.374741 0.120473
H14   H     H_    0.354367 0.049632 0.481454 0.123268
H15   H     H_    0.645633 0.950368 0.518543 0.123277
H16   H     H_    0.599942 0.558517 0.111917 0.144749
N1    N     N_2   0.532134 0.512259 0.984477 -0.242552
N2    N     N_1   0.312190 0.389885 0.704010 -0.274533
N3    N     N_1   0.672377 0.354003 0.362035 -0.294472
N4    N     N_1   0.327622 0.646007 0.637956 -0.294482
N5    N     N_2   0.467908 0.487652 0.015537 -0.242578
N6    N     N_R   0.287870 0.489880 0.490440 -0.244414
N7    N     N_R   0.712130 0.510120 0.509560 -0.244414
N8    N     N_2   0.017343 0.475937 0.477294 -0.222207
N9    N     N_2   0.982657 0.524060 0.522708 -0.222203
N10   N     N_1   0.072304 0.324732 0.333877 -0.277129
N11   N     N_1   0.927697 0.675255 0.666134 -0.277124
N12   N     N_1   0.687544 0.610559 0.296007 -0.274514
O1    O     O_R   0.579470 0.503780 0.617500 -0.516852
O2    O     O_R   0.420530 0.496220 0.382500 -0.516841
O3    O     O_R   0.436280 0.496950 0.611050 -0.479692
O4    O     O_R   0.563720 0.503050 0.388950 -0.479686
O5    O     O_R   0.571580 0.624340 0.503230 -0.499043
O6    O     O_R   0.428420 0.375660 0.496770 -0.499080
O7    O     O_R   0.428390 0.617510 0.496780 -0.490151
O8    O     O_R   0.571610 0.382490 0.503220 -0.490141

loop_
_geom_bond_atom_site_label_1
_geom_bond_atom_site_label_2
_ccdc_geom_bond_type
C44   H3    S    
C6    N7    A    
C14   H10   S    
C22   C29   T    
C27   C29   S    
C1    O3    A    
Cu1   O8    S    
C37   N2    T    
Cu2   O2    S    
Cu1   Cu2   S    
C34   C41   A    
C4    H6    S    
C19   C21   S    
C13   C35   S    
C11   C14   A    
C23   C40   A    
C1    C31   S    
C40   H2    S    
C17   O8    A    
C19   C26   S    
C2    H4    S    
C33   N10   T    
C18   H12   S    
C12   O4    A    
C15   H11   S    
C6    C38   S    
Cu1   O4    S    
C19   C27   S    
C34   C36   S    
C10   N9    S    
C40   C42   A    
C12   C32   S    
C41   C43   A    
C18   C25   S    
C42   C44   A    
C41   H16   S    
C5    N6    A    
C15   N7    A    
N1    N5    D    
C3    C44   A    
C17   C24   S    
Cu1   N7    S    
C1    O1    A    
C11   C33   S    
C18   C28   S    
C9    N8    S    
C21   H9    S    
C3    H5    S    
C6    C8    A    
C19   H13   S    
C23   C37   S    
C17   O6    A    
C23   C31   A    
C2    C4    A    
Cu2   N6    S    
Cu2   O7    S    
C38   N3    T    
C2    C43   A    
Cu1   O5    S    
C25   H15   S    
C3    C31   A    
C9    C11   A    
C4    C32   A    
C36   N12   T    
C8    C10   A    
C21   C28   S    
C5    C39   S    
C13   C15   A    
C39   N4    T    
C12   O2    A    
N8    N9    D    
C5    C7    A    
C7    C9    A    
C21   C25   S    
C35   N11   T    
C16   C22   S    
C10   C13   A    
C8    H7    S    
Cu2   O3    S    
C20   C27   S    
C25   C27   S    
C26   C28   S    
Cu1   O1    S    
C16   O5    A    
C28   C30   S    
Cu2   O6    S    
C20   C26   S    
C16   O7    A    
C18   C20   S    
C24   C30   T    
C20   H1    S    
C43   N5    S    
C14   N6    A    
C7    H8    S    
C26   H14   S    
C42   N1    S    
C32   C34   A    
