data_mof_unit_34133.cif
_audit_creation_date              2012-12-11T15:27:03-0500
_audit_creation_method            fapswitch 2.2
_symmetry_space_group_name_H-M    P1
_symmetry_Int_Tables_number       1
_space_group_crystal_system       triclinic
_cell_length_a                    13.933487
_cell_length_b                    14.043185
_cell_length_c                    27.363937
_cell_angle_alpha                 89.882726
_cell_angle_beta                  90.184329
_cell_angle_gamma                 119.908097
_cell_volume                      4641.237455

loop_
_atom_site_label
_atom_site_type_symbol
_atom_type_description
_atom_site_fract_x
_atom_site_fract_y
_atom_site_fract_z
_atom_type_partial_charge
C1    C     C_R   0.233241 0.787991 0.568053 0.557775
C2    C     C_R   0.211667 0.444995 0.567950 0.559909
C3    C     C_R   0.555259 0.766512 0.567969 0.556701
C4    C     C_3   0.711086 0.754840 0.784370 -0.212817
C5    C     C_3   0.230814 0.971233 0.777979 -0.210948
C6    C     C_3   0.015602 0.240530 0.775383 -0.214937
C7    C     C_3   0.707827 0.752559 0.727563 -0.199609
C8    C     C_3   0.238876 0.962893 0.721872 -0.197445
C9    C     C_3   0.027895 0.260230 0.719383 -0.198899
C10   C     C_1   0.712238 0.860526 0.857349 -0.075138
C11   C     C_1   0.111132 0.886387 0.850018 -0.075709
C12   C     C_1   0.111002 0.230522 0.850447 -0.075608
C13   C     C_1   0.647681 0.820272 0.655080 -0.028665
C14   C     C_1   0.172903 0.828328 0.653121 -0.023571
C15   C     C_1   0.169396 0.346664 0.653320 -0.020664
C16   C     C_1   0.613178 0.801160 0.613699 0.023363
C17   C     C_1   0.195917 0.811097 0.612903 0.026149
C18   C     C_1   0.188036 0.385626 0.612917 0.029172
C19   C     C_R   0.070350 0.162576 0.941746 0.538468
C20   C     C_R   0.780543 0.887046 0.948650 0.539017
C21   C     C_R   0.090994 0.929526 0.941905 0.538694
C22   C     C_R   0.614603 0.807014 0.385781 0.026114
C23   C     C_R   0.191468 0.806903 0.385902 0.025982
C24   C     C_R   0.192206 0.385068 0.385866 0.025906
C25   C     C_R   0.609016 0.891385 0.360584 -0.125801
C26   C     C_R   0.107674 0.716890 0.360451 -0.126167
C27   C     C_R   0.282259 0.389000 0.361083 -0.125964
C28   C     C_R   0.637732 0.910215 0.311670 -0.123258
C29   C     C_R   0.088956 0.727004 0.311503 -0.123448
C30   C     C_R   0.272409 0.360035 0.312201 -0.123223
C31   C     C_R   0.674701 0.846632 0.287582 0.036577
C32   C     C_R   0.151976 0.827805 0.287679 0.036634
C33   C     C_R   0.171786 0.324513 0.287737 0.036500
C34   C     C_R   0.232894 0.787388 0.431699 0.537339
C35   C     C_R   0.212279 0.445590 0.431651 0.538230
C36   C     C_R   0.554168 0.766537 0.431657 0.537116
C37   C     C_R   0.691564 0.770453 0.314076 -0.120494
C38   C     C_R   0.227071 0.920693 0.314454 -0.120707
C39   C     C_R   0.078566 0.309281 0.313858 -0.120799
C40   C     C_R   0.661005 0.750210 0.362928 -0.127334
C41   C     C_R   0.247293 0.910173 0.363341 -0.127648
C42   C     C_R   0.088856 0.340064 0.362670 -0.127876
C43   C     C_R   0.655679 0.760114 0.206345 -0.119663
C44   C     C_R   0.240431 0.897515 0.206892 -0.119892
C45   C     C_R   0.104749 0.344456 0.206187 -0.119757
C46   C     C_R   0.676576 0.768702 0.156489 -0.130963
C47   C     C_R   0.232480 0.909967 0.156968 -0.131380
C48   C     C_R   0.092639 0.323809 0.156300 -0.131062
C49   C     C_R   0.754758 0.966332 0.161586 -0.125904
C50   C     C_R   0.033698 0.787204 0.161125 -0.126090
C51   C     C_R   0.211740 0.243845 0.161941 -0.126708
C52   C     C_R   0.735875 0.957987 0.211529 -0.121765
C53   C     C_R   0.041345 0.776573 0.211119 -0.121698
C54   C     C_R   0.222085 0.262519 0.211925 -0.121603
C55   C     C_R   0.689193 0.855172 0.234466 0.035819
C56   C     C_R   0.144328 0.834221 0.234544 0.036020
C57   C     C_R   0.166011 0.310018 0.234600 0.035690
C58   C     C_R   0.729615 0.872242 0.134246 0.022625
C59   C     C_R   0.128581 0.857860 0.134231 0.021622
C60   C     C_R   0.143081 0.270101 0.134300 0.021271
C61   C     C_R   0.106800 0.221450 0.086114 0.564516
C62   C     C_R   0.778951 0.885306 0.086174 0.552283
C63   C     C_R   0.115286 0.893796 0.086091 0.563729
C64   C     C_3   0.559241 0.805679 0.734354 0.170760
C65   C     C_3   0.167934 0.760403 0.737158 0.166646
C66   C     C_3   0.220651 0.416878 0.737571 0.168381
C67   C     C_3   0.758258 0.949891 0.722320 -0.269056
C68   C     C_3   0.037323 0.827749 0.713053 -0.268047
C69   C     C_3   0.189828 0.229758 0.715976 -0.268817
C70   C     C_3   0.777392 0.957028 0.778458 -0.235778
C71   C     C_3   0.022883 0.847924 0.767674 -0.234771
C72   C     C_3   0.170163 0.196589 0.770605 -0.237834
C73   C     C_1   0.737058 0.872320 0.900025 -0.020090
C74   C     C_1   0.101365 0.904273 0.892203 -0.018635
C75   C     C_1   0.095187 0.200900 0.892411 -0.019665
C76   C     C_3   0.668882 0.831950 0.708217 0.059674
C77   C     C_3   0.154600 0.844724 0.704730 0.061878
C78   C     C_3   0.151684 0.313689 0.705017 0.060329
C79   C     C_3   0.575882 0.822601 0.790477 -0.163888
C80   C     C_3   0.141539 0.768880 0.791575 -0.170280
C81   C     C_3   0.210857 0.385723 0.792534 -0.170688
C82   C     C_3   0.693866 0.848729 0.804145 0.026685
C83   C     C_3   0.125897 0.869293 0.798191 0.031160
C84   C     C_3   0.126458 0.262651 0.798658 0.028849
Cr1   Cr    Cr6+3 0.164410 0.584450 0.499910 1.031612
Cr2   Cr    Cr6+3 0.415550 0.579960 0.499910 1.029690
Cr3   Cr    Cr6+3 0.420040 0.835590 0.499910 1.027605
Cr4   Cr    Cr6+3 0.156760 0.076070 0.017830 1.018311
Cr5   Cr    Cr6+3 0.923930 0.080690 0.017830 1.012001
Cr6   Cr    Cr6+3 0.919310 0.843240 0.017830 1.017808
H1    H     H_    0.563272 0.891678 0.801790 0.107158
H2    H     H_    0.064715 0.692584 0.802451 0.100902
H3    H     H_    0.293210 0.403708 0.806719 0.102043
H4    H     H_    0.513884 0.748456 0.810639 0.178621
H5    H     H_    0.208562 0.775727 0.816124 0.175060
H6    H     H_    0.185072 0.435579 0.814630 0.175010
H7    H     H_    0.791157 0.765979 0.797550 0.107211
H8    H     H_    0.230763 0.047156 0.787524 0.102969
H9    H     H_    0.951129 0.155462 0.782748 0.104902
H10   H     H_    0.574021 0.937041 0.377329 0.132949
H11   H     H_    0.062756 0.636203 0.377004 0.132547
H12   H     H_    0.362988 0.422828 0.378130 0.131927
H13   H     H_    0.615913 0.679486 0.223089 0.104724
H14   H     H_    0.321297 0.939581 0.224048 0.104376
H15   H     H_    0.063959 0.384824 0.222717 0.104676
H16   H     H_    0.656431 0.695321 0.135810 0.119800
H17   H     H_    0.306465 0.964498 0.136622 0.120005
H18   H     H_    0.039583 0.344750 0.135381 0.120367
H19   H     H_    0.624080 0.969514 0.292080 0.100122
H20   H     H_    0.030478 0.654171 0.291684 0.100175
H21   H     H_    0.345491 0.372380 0.292916 0.100002
H22   H     H_    0.762537 0.032463 0.232433 0.101646
H23   H     H_    0.966085 0.727376 0.231662 0.101376
H24   H     H_    0.269694 0.235150 0.233050 0.101369
H25   H     H_    0.796753 0.047329 0.145160 0.130611
H26   H     H_    0.952389 0.746826 0.144298 0.130383
H27   H     H_    0.250625 0.201274 0.145693 0.129637
H28   H     H_    0.723849 0.723268 0.296484 0.101485
H29   H     H_    0.273663 0.000249 0.297042 0.101320
H30   H     H_    0.999007 0.278137 0.295990 0.101137
H31   H     H_    0.530874 0.861606 0.719913 0.178846
H32   H     H_    0.110288 0.675847 0.723888 0.181460
H33   H     H_    0.308786 0.454346 0.726834 0.189115
H34   H     H_    0.667725 0.685972 0.381868 0.126259
H35   H     H_    0.310979 0.981120 0.382528 0.126029
H36   H     H_    0.017816 0.334646 0.381290 0.125924
H37   H     H_    0.837245 0.972926 0.703166 0.114310
H38   H     H_    0.023947 0.885119 0.689704 0.115436
H39   H     H_    0.143351 0.155420 0.692747 0.115334
H40   H     H_    0.731739 0.009398 0.710899 0.111043
H41   H     H_    0.973767 0.742669 0.702559 0.110550
H42   H     H_    0.279297 0.265894 0.707252 0.113407
H43   H     H_    0.768972 0.026170 0.793366 0.116796
H44   H     H_    0.949380 0.773696 0.782207 0.114000
H45   H     H_    0.249670 0.212595 0.787349 0.116521
H46   H     H_    0.862634 0.973100 0.786174 0.117174
H47   H     H_    0.007574 0.917998 0.770966 0.113318
H48   H     H_    0.108783 0.107713 0.773548 0.120086
H49   H     H_    0.652255 0.667177 0.714657 0.166179
H50   H     H_    0.324953 0.985678 0.711739 0.164707
H51   H     H_    0.992770 0.312885 0.708365 0.168282
H52   H     H_    0.791798 0.777913 0.713160 0.102189
H53   H     H_    0.220977 0.023135 0.703524 0.101388
H54   H     H_    0.979096 0.180646 0.699891 0.098613
H55   H     H_    0.645294 0.674492 0.798817 0.141334
H56   H     H_    0.305932 0.977415 0.795515 0.147019
H57   H     H_    0.988024 0.294843 0.792311 0.142615
O1    O     O_R   0.137310 0.468260 0.552980 -0.501691
O2    O     O_R   0.531740 0.669050 0.552980 -0.501405
O3    O     O_R   0.330950 0.862690 0.552980 -0.504978
O4    O     O_R   0.180530 0.983530 0.965090 -0.504830
O5    O     O_R   0.016470 0.197000 0.965090 -0.495311
O6    O     O_R   0.803000 0.819470 0.965090 -0.514439
O7    O     O_R   0.174120 0.688790 0.549730 -0.490634
O8    O     O_R   0.311210 0.485330 0.549730 -0.492494
O9    O     O_R   0.514670 0.825880 0.549730 -0.492721
O10   O     O_R   0.139940 0.470480 0.446230 -0.526104
O11   O     O_R   0.529520 0.669460 0.446230 -0.525291
O12   O     O_R   0.330540 0.860060 0.446230 -0.524462
O13   O     O_R   0.176560 0.690850 0.450770 -0.511200
O14   O     O_R   0.309150 0.485710 0.450770 -0.510415
O15   O     O_R   0.514290 0.823440 0.450770 -0.510022
O16   O     O_3   0.333333 0.666667 0.499990 -0.263237
O17   O     O_3   0.000000 1.000000 0.017910 -0.264824
O18   O     O_R   0.149710 0.171070 0.967700 -0.503522
O19   O     O_R   0.828930 0.978640 0.967700 -0.519195
O20   O     O_R   0.021360 0.850290 0.967700 -0.486028
O21   O     O_R   0.178510 0.985930 0.071830 -0.514796
O22   O     O_R   0.014070 0.192580 0.071830 -0.512514
O23   O     O_R   0.807420 0.821490 0.071830 -0.516131
O24   O     O_R   0.147830 0.173300 0.066650 -0.493436
O25   O     O_R   0.826700 0.974530 0.066650 -0.498308
O26   O     O_R   0.025470 0.852170 0.066650 -0.491810
Cl1   Cl    Cl    0.453885 0.667888 0.721164 -0.578809
Cl2   Cl    Cl    0.305763 0.783571 0.732695 -0.576455
Cl3   Cl    Cl    0.177252 0.515995 0.728245 -0.571231

loop_
_geom_bond_atom_site_label_1
_geom_bond_atom_site_label_2
_ccdc_geom_bond_type
C58   C62   S    
C15   C18   T    
Cr3   O16   S    
C2    O8    A    
Cr6   O20   S    
C2    C18   S    
C24   C42   A    
C24   C27   A    
C6    C9    S    
C44   H14   S    
C71   H47   S    
C25   C28   A    
Cr6   O26   S    
C45   C57   A    
C35   O14   A    
C50   C59   A    
C29   C32   A    
C80   C83   S    
C26   H11   S    
C5    C83   S    
C10   C73   T    
C14   C77   S    
C15   C78   S    
C52   H22   S    
C2    O1    A    
C39   H30   S    
C54   H24   S    
C12   C84   S    
C23   C26   A    
C51   H27   S    
Cr5   O5    S    
C37   H28   S    
C53   H23   S    
Cr4   O21   S    
Cr3   O3    S    
C70   H43   S    
Cr1   O1    S    
C48   C60   A    
C61   O24   A    
Cr1   O13   S    
C32   C38   A    
C68   H38   S    
Cr5   O17   S    
C79   H1    S    
C44   C47   A    
C36   O11   A    
Cr1   O7    S    
C34   O12   A    
C49   C52   A    
C72   H48   S    
Cr4   O24   S    
C4    H7    S    
C65   Cl2   S    
C27   C30   A    
C70   H46   S    
C14   C17   T    
C66   Cl3   S    
C69   C78   S    
Cr1   O10   S    
C71   H44   S    
C4    C7    S    
C40   H34   S    
C9    H54   S    
C45   H15   S    
C63   O26   A    
C39   C42   A    
C71   C83   S    
C62   O23   A    
C3    O2    A    
C24   C35   S    
C6    C84   S    
C20   O6    A    
C50   C53   A    
C41   H35   S    
C29   H20   S    
C65   C77   S    
C79   H4    S    
Cr2   O2    S    
C81   H6    S    
C9    H51   S    
C72   H45   S    
C11   C83   S    
Cr4   O17   S    
C21   C74   S    
C22   C25   A    
C49   C58   A    
C31   C37   A    
Cr6   O17   S    
C60   C61   S    
C80   H5    S    
C80   H2    S    
C68   H41   S    
Cr2   O8    S    
C35   O10   A    
C67   H37   S    
C5    C8    S    
C81   H3    S    
C44   C56   A    
C25   H10   S    
C13   C76   S    
C23   C34   S    
C22   C40   A    
Cr6   O23   S    
C19   O5    A    
C64   C76   S    
C1    O3    A    
Cr2   O14   S    
C33   C39   A    
C65   H32   S    
Cr6   O6    S    
Cr2   O11   S    
C72   C84   S    
C38   C41   A    
C38   H29   S    
C66   C78   S    
C43   C55   A    
C63   O21   A    
C49   H25   S    
C47   H17   S    
C8    C77   S    
Cr1   O16   S    
Cr4   O4    S    
C13   C16   T    
C67   H40   S    
C61   O22   A    
C64   Cl1   S    
Cr3   O12   S    
C69   H42   S    
C81   C84   S    
C62   O25   A    
C45   C48   A    
C68   C77   S    
C33   C57   S    
C5    H56   S    
C30   C33   A    
Cr3   O9    S    
C59   C63   S    
C20   O19   A    
C28   C31   A    
Cr5   O25   S    
C69   C72   S    
C11   C74   T    
C21   O20   A    
C79   C82   S    
C52   C55   A    
C7    C76   S    
Cr2   O16   S    
C28   H19   S    
C37   C40   A    
C22   C36   S    
C27   H12   S    
C1    C17   S    
C23   C41   A    
C30   H21   S    
C8    H50   S    
C67   C70   S    
C6    H9    S    
C51   C54   A    
C51   C60   A    
C19   C75   S    
Cr5   O22   S    
C66   C81   S    
C7    H49   S    
C6    H57   S    
C48   H18   S    
C36   O15   A    
C68   C71   S    
C4    H55   S    
C46   H16   S    
C3    O9    A    
C64   C79   S    
C10   C82   S    
C20   C73   S    
C8    H53   S    
C50   H26   S    
C9    C78   S    
C21   O4    A    
C1    O7    A    
C70   C82   S    
C43   C46   A    
C43   H13   S    
Cr5   O19   S    
C42   H36   S    
C47   C59   A    
Cr3   O15   S    
C4    C82   S    
C5    H8    S    
C26   C29   A    
C69   H39   S    
Cr4   O18   S    
C12   C75   T    
C53   C56   A    
C65   C80   S    
C66   H33   S    
C67   C76   S    
C19   O18   A    
C31   C55   S    
C32   C56   S    
C7    H52   S    
C46   C58   A    
C3    C16   S    
C64   H31   S    
C54   C57   A    
C34   O13   A    
