data_mof_unit_44774.cif
_audit_creation_date              2012-12-10T18:49:54-0500
_audit_creation_method            fapswitch 2.2
_symmetry_space_group_name_H-M    P1
_symmetry_Int_Tables_number       1
_space_group_crystal_system       triclinic
_cell_length_a                    10.70713
_cell_length_b                    9.878383
_cell_length_c                    10.730244
_cell_angle_alpha                 88.89669
_cell_angle_beta                  91.173605
_cell_angle_gamma                 89.831673
_cell_volume                      1134.47382995

loop_
_atom_site_label
_atom_site_type_symbol
_atom_type_description
_atom_site_fract_x
_atom_site_fract_y
_atom_site_fract_z
_atom_type_partial_charge
C1    C     C_R   0.259993 0.500091 0.501488 0.941749
C2    C     C_3   0.598359 0.614919 0.924896 1.021786
C3    C     C_R   0.064890 0.380005 0.533574 -0.064294
C4    C     C_R   0.062873 0.621051 0.480540 -0.109896
C5    C     C_R   0.936845 0.379658 0.532934 -0.115687
C6    C     C_R   0.935145 0.620967 0.480219 -0.097892
C7    C     C_R   0.872436 0.499939 0.504944 -0.019938
C8    C     C_R   0.127478 0.500287 0.505121 0.024932
C9    C     C_R   0.584423 0.069861 0.571179 -0.085074
C10   C     C_R   0.585030 0.926450 0.570485 0.018990
C11   C     C_R   0.412579 0.930238 0.429923 0.056028
C12   C     C_R   0.415243 0.074978 0.427790 0.012044
C13   C     C_R   0.508213 0.501277 0.258520 1.030089
C14   C     C_R   0.739941 0.499816 0.502025 0.978361
C15   C     C_R   0.506122 0.498574 0.742139 1.004369
C16   C     C_3   0.375857 0.497432 0.068815 -0.402228
C17   C     C_3   0.580712 0.369165 0.078184 -0.321131
C18   C     C_3   0.373881 0.523285 0.926197 0.345262
C19   C     C_3   0.566093 0.356779 0.933657 0.356220
C20   C     C_3   0.589064 0.633339 0.069560 -0.253881
C21   C     C_3   0.515090 0.504118 0.122097 -0.303761
C22   C     C_3   0.509407 0.496017 0.878916 -0.319588
H1    H     H_    0.344197 0.391378 0.086135 0.191407
H2    H     H_    0.531213 0.283211 0.122793 0.219165
H3    H     H_    0.114443 0.286882 0.556824 0.192391
H4    H     H_    0.110450 0.714970 0.460478 0.199242
H5    H     H_    0.888692 0.286045 0.554615 0.175327
H6    H     H_    0.885929 0.714923 0.459074 0.190977
H7    H     H_    0.652435 0.122528 0.628106 0.160614
H8    H     H_    0.653430 0.870935 0.626899 0.178180
N1    N     N_R   0.499970 0.857200 0.499970 -0.127544
N2    N     N_R   0.499970 0.142800 0.499970 -0.138365
O1    O     O_R   0.316750 0.614620 0.499990 -0.657356
O2    O     O_R   0.316750 0.385380 0.499990 -0.622240
O3    O     O_R   0.499970 0.614670 0.314790 -0.625054
O4    O     O_R   0.499970 0.385330 0.314790 -0.646650
O5    O     O_R   0.683220 0.614710 0.500010 -0.613828
O6    O     O_R   0.683220 0.385290 0.500010 -0.612634
O7    O     O_R   0.500010 0.614660 0.685200 -0.511323
O8    O     O_R   0.500010 0.385340 0.685200 -0.682610
Zn1   Zn    Zn3+2 0.499980 0.653120 0.500000 1.050921
Zn2   Zn    Zn3+2 0.499980 0.346880 0.500000 0.999021
C23   C     C_2   0.279164 0.583082 0.132868 0.511495
H9    H     H_    0.274373 0.691516 0.118273 0.111287
O9    O     O_2   0.201992 0.529528 0.199835 -0.570257
C24   C     C_2   0.714844 0.349367 0.123790 0.635755
H10   H     H_    0.790823 0.401682 0.078348 0.151158
O10   O     O_2   0.739602 0.271494 0.210653 -0.537412
C25   C     C_2   0.316853 0.858182 0.354809 0.404466
H11   H     H_    0.335158 0.759984 0.319925 0.113867
O11   O     O_2   0.213865 0.906965 0.332198 -0.549475
C26   C     C_2   0.334393 0.153160 0.339803 0.608126
H12   H     H_    0.370211 0.186234 0.250725 0.069154
O12   O     O_2   0.225827 0.176745 0.364295 -0.520421
C27   C     C_2   0.272261 0.439090 0.863972 0.433917
H13   H     H_    0.266925 0.330947 0.878756 0.082582
O13   O     O_2   0.191553 0.493421 0.798211 -0.505901
C28   C     C_2   0.492495 0.229439 0.899072 0.381862
H14   H     H_    0.507028 0.183014 0.809883 0.149028
O14   O     O_2   0.420739 0.173167 0.970290 -0.615844
F1    F     F_    0.343159 0.657558 0.898841 -0.608512
F2    F     F_    0.682532 0.336987 0.881666 -0.640586
C29   C     C_2   0.521177 0.766916 0.096350 0.479883
H15   H     H_    0.438774 0.797511 0.043519 0.170365
O15   O     O_2   0.560524 0.845665 0.174426 -0.557941
C30   C     C_2   0.721237 0.649870 0.125165 0.513818
H16   H     H_    0.791275 0.704171 0.072384 0.154240
O16   O     O_2   0.748595 0.613323 0.231482 -0.598341
F3    F     F_    0.570704 0.737967 0.865069 -0.629236
F4    F     F_    0.719751 0.584586 0.890941 -0.653179

loop_
_geom_bond_atom_site_label_1
_geom_bond_atom_site_label_2
_ccdc_geom_bond_type
C19   C28   S    
C2    C22   S    
C30   O16   D    
C11   C12   A    
C29   O15   D    
C18   F1    S    
O6    Zn2   S    
C6    C7    A    
C11   C25   S    
C6    H6    S    
C14   O6    A    
C1    C8    S    
C9    C10   A    
C10   H8    S    
O4    Zn2   S    
O2    Zn2   S    
C9    H7    S    
C27   H13   S    
O1    Zn1   S    
C15   O8    A    
C20   C29   S    
O8    Zn2   S    
C30   H16   S    
C17   C24   S    
C13   C21   S    
O7    Zn1   S    
C18   C22   S    
C26   H12   S    
C12   N2    A    
C14   O5    A    
C23   O9    D    
C16   C23   S    
C15   O7    A    
C16   C21   S    
C2    F4    S    
C18   C27   S    
C28   O14   D    
C4    C6    A    
C17   C19   S    
C26   O12   D    
C1    O2    A    
C13   O3    A    
C16   H1    S    
C27   O13   D    
C23   H9    S    
O5    Zn1   S    
O3    Zn1   S    
C24   O10   D    
C4    H4    S    
C3    C8    A    
C17   H2    S    
C1    O1    A    
C19   F2    S    
C11   N1    A    
C29   H15   S    
C2    F3    S    
C3    H3    S    
C19   C22   S    
C20   C21   S    
C13   O4    A    
C16   C18   S    
C25   H11   S    
C25   O11   D    
C20   C30   S    
C4    C8    A    
C5    C7    A    
N2    Zn2   S    
C24   H10   S    
N1    Zn1   S    
C9    N2    A    
C12   C26   S    
C28   H14   S    
C5    H5    S    
C2    C20   S    
C10   N1    A    
C15   C22   S    
C7    C14   S    
C3    C5    A    
C17   C21   S    
