data_mof_unit_59363.cif
_audit_creation_date              2012-12-10T18:14:41-0500
_audit_creation_method            fapswitch 2.2
_symmetry_space_group_name_H-M    P1
_symmetry_Int_Tables_number       1
_space_group_crystal_system       triclinic
_cell_length_a                    10.751802
_cell_length_b                    9.506046
_cell_length_c                    27.783859
_cell_angle_alpha                 90.130498
_cell_angle_beta                  91.004859
_cell_angle_gamma                 90.108688
_cell_volume                      2839.2589265

loop_
_atom_site_label
_atom_site_type_symbol
_atom_type_description
_atom_site_fract_x
_atom_site_fract_y
_atom_site_fract_z
_atom_type_partial_charge
C1    C     C_R   0.260047 0.500023 0.500381 0.780228
C2    C     C_R   0.486758 0.627810 0.279049 -0.106469
C3    C     C_R   0.500260 0.501754 0.253628 0.365172
C4    C     C_R   0.500781 0.512884 0.101972 -0.049469
C5    C     C_R   0.387857 0.519640 0.126858 -0.010563
C6    C     C_R   0.275861 0.531866 0.100961 -0.144748
C7    C     C_R   0.613341 0.502690 0.128240 -0.077670
C8    C     C_R   0.499995 0.500150 0.354568 -0.039816
C9    C     C_R   0.499982 0.501154 0.645558 -0.041536
C10   C     C_R   0.388703 0.549384 0.974248 0.019069
C11   C     C_R   0.609645 0.483441 0.975404 0.051615
C12   C     C_R   0.499903 0.499911 0.407580 0.798803
C13   C     C_R   0.498429 0.515660 0.949456 0.075693
C14   C     C_R   0.283628 0.593808 0.947313 -0.269602
C15   C     C_R   0.283196 0.597114 0.897031 0.180133
C16   C     C_R   0.389445 0.553339 0.871856 -0.025861
C17   C     C_R   0.496657 0.511513 0.898333 -0.094955
C18   C     C_R   0.602289 0.464104 0.873740 -0.005450
C19   C     C_R   0.600613 0.461639 0.823325 0.530762
C20   C     C_R   0.392970 0.549806 0.821006 0.555017
C21   C     C_R   0.492032 0.375825 0.721573 -0.104996
C22   C     C_R   0.492360 0.374508 0.671389 -0.206921
C23   C     C_R   0.739762 0.499967 0.502553 0.719535
C24   C     C_R   0.507202 0.629073 0.670999 -0.219993
C25   C     C_R   0.506409 0.630171 0.721167 -0.108342
C26   C     C_R   0.498831 0.503627 0.746588 0.361272
C27   C     C_R   0.387243 0.536514 0.025099 0.066674
C28   C     C_R   0.501067 0.517072 0.050944 0.041528
C29   C     C_R   0.615031 0.502910 0.026207 -0.009605
C30   C     C_R   0.275336 0.540566 0.051054 -0.206771
C31   C     C_R   0.725798 0.504957 0.103869 -0.121476
C32   C     C_R   0.708916 0.424343 0.949862 -0.230907
C33   C     C_R   0.706271 0.417080 0.899937 -0.145654
C34   C     C_R   0.499963 0.500211 0.592484 0.796905
C35   C     C_R   0.728643 0.510278 0.053742 0.138743
C36   C     C_3   0.076754 0.608877 0.539569 -0.329363
C37   C     C_3   0.073789 0.352347 0.515561 -0.341576
C38   C     C_3   0.932644 0.612621 0.540804 0.013335
C39   C     C_3   0.931275 0.350748 0.518850 0.027366
C40   C     C_3   0.067216 0.539926 0.452053 -0.419680
C41   C     C_3   0.122195 0.500367 0.501838 0.074710
C42   C     C_3   0.878453 0.499435 0.504877 0.131286
C43   C     C_3   0.923988 0.536218 0.453517 -0.467388
C44   C     C_3   0.607349 0.084838 0.529741 0.165602
C45   C     C_3   0.613239 0.917773 0.526752 0.132278
C46   C     C_3   0.379681 0.082839 0.518328 0.142342
C47   C     C_3   0.383677 0.915562 0.521853 0.137205
C48   C     C_3   0.514142 0.083076 0.451605 -0.351837
C49   C     C_3   0.506252 0.916152 0.451348 -0.343561
C50   C     C_R   0.389739 0.514089 0.177345 0.534138
C51   C     C_R   0.611032 0.497596 0.178742 0.546548
C52   C     C_R   0.513729 0.374789 0.278552 -0.104944
C53   C     C_R   0.513284 0.373765 0.328772 -0.226146
C54   C     C_R   0.486914 0.627256 0.329206 -0.223697
Cu1   Cu    Cu3+1 0.499860 0.642410 0.500020 0.923360
Cu2   Cu    Cu3+1 0.499860 0.357590 0.500020 0.937225
H1    H     H_    0.476341 0.726244 0.348041 0.146569
H2    H     H_    0.524198 0.277058 0.258964 0.134708
H3    H     H_    0.813278 0.508566 0.123836 0.199007
H4    H     H_    0.787871 0.377759 0.967994 0.150761
H5    H     H_    0.513566 0.728372 0.652283 0.174409
H6    H     H_    0.786116 0.373453 0.881969 0.185290
H7    H     H_    0.511936 0.729321 0.740359 0.137383
H8    H     H_    0.111205 0.716015 0.530666 0.134605
H9    H     H_    0.102615 0.273029 0.488396 0.133841
H10   H     H_    0.116961 0.581661 0.575573 0.187623
H11   H     H_    0.116849 0.321788 0.550674 0.194770
H12   H     H_    0.476433 0.726214 0.259854 0.134058
H13   H     H_    0.900850 0.718707 0.528771 0.105868
H14   H     H_    0.894258 0.270897 0.492798 0.110971
H15   H     H_    0.098889 0.647043 0.441674 0.174155
H16   H     H_    0.100302 0.465148 0.424188 0.172817
H17   H     H_    0.886842 0.640387 0.442053 0.176921
H18   H     H_    0.888282 0.456920 0.427118 0.173809
H19   H     H_    0.694379 0.123147 0.512892 0.092111
H20   H     H_    0.696627 0.893154 0.504775 0.077406
H21   H     H_    0.440563 0.124883 0.426937 0.170716
H22   H     H_    0.423377 0.882426 0.429664 0.157631
H23   H     H_    0.604070 0.117204 0.436119 0.159110
H24   H     H_    0.588248 0.873169 0.432402 0.172798
H25   H     H_    0.307924 0.105764 0.489832 0.091845
H26   H     H_    0.304248 0.877726 0.498952 0.101783
H27   H     H_    0.187654 0.535097 0.119192 0.190779
H28   H     H_    0.485956 0.274470 0.652980 0.160019
H29   H     H_    0.485760 0.277642 0.741075 0.137219
H30   H     H_    0.200664 0.631029 0.964479 0.141845
H31   H     H_    0.185101 0.545784 0.033591 0.144892
H32   H     H_    0.523840 0.274337 0.347325 0.146419
N1    N     N_R   0.500281 0.503129 0.202088 -0.468600
N2    N     N_R   0.497484 0.505083 0.798183 -0.478584
N3    N     N_3   0.500250 0.143650 0.501060 -0.120477
N4    N     N_3   0.500250 0.856350 0.501060 -0.119186
O1    O     O_R   0.317570 0.620260 0.500030 -0.579653
O2    O     O_R   0.317570 0.379740 0.500030 -0.567145
O3    O     O_R   0.499900 0.620250 0.430280 -0.592207
O4    O     O_R   0.499900 0.379750 0.430280 -0.593436
O5    O     O_R   0.682190 0.620260 0.500010 -0.610633
O6    O     O_R   0.682190 0.379740 0.500010 -0.592284
O7    O     O_R   0.499860 0.620280 0.569750 -0.549151
O8    O     O_R   0.499860 0.379720 0.569750 -0.524656
O9    O     O_2   0.282139 0.519700 0.201565 -0.534636
O10   O     O_2   0.293070 0.589367 0.794331 -0.492817
O11   O     O_2   0.718503 0.488343 0.204360 -0.535165
O12   O     O_2   0.701696 0.417376 0.799500 -0.533156
N5    N     N_3   0.846218 0.546973 0.033412 -0.610720
H33   H     H_    0.834988 0.604036 0.001548 0.235484
H34   H     H_    0.899133 0.456235 0.028393 0.210562
N6    N     N_3   0.892533 0.590851 0.590496 -0.548303
H35   H     H_    0.914269 0.681425 0.610405 0.214268
H36   H     H_    0.796171 0.579099 0.591521 0.196125
N7    N     N_3   0.898069 0.308425 0.567740 -0.551037
H37   H     H_    0.911560 0.199861 0.570932 0.187901
H38   H     H_    0.804401 0.328228 0.573678 0.241982
N8    N     N_3   0.610731 0.140113 0.579202 -0.537622
H39   H     H_    0.702072 0.138009 0.592390 0.175144
H40   H     H_    0.562040 0.076480 0.602716 0.205735
N9    N     N_3   0.637851 0.853844 0.574029 -0.584372
H41   H     H_    0.712927 0.905498 0.590643 0.160677
H42   H     H_    0.676490 0.755648 0.568928 0.252198
N10   N     N_3   0.332142 0.154937 0.561069 -0.521170
H43   H     H_    0.375012 0.124002 0.592953 0.205894
H44   H     H_    0.238586 0.127375 0.564608 0.161472
N11   N     N_3   0.360440 0.858754 0.569933 -0.523224
H45   H     H_    0.420005 0.902266 0.595833 0.225249
H46   H     H_    0.269243 0.882184 0.579611 0.170219
N12   N     N_3   0.173192 0.644410 0.872094 -0.502810
H47   H     H_    0.099035 0.580045 0.882073 0.220348
H48   H     H_    0.154031 0.746874 0.883508 0.218100

loop_
_geom_bond_atom_site_label_1
_geom_bond_atom_site_label_2
_ccdc_geom_bond_type
C10   C27   A    
C43   H17   S    
C21   C26   A    
N12   H47   S    
C40   H15   S    
C47   N4    S    
N7    H37   S    
Cu2   O6    S    
Cu1   O1    S    
N8    H39   S    
N11   H45   S    
C49   H22   S    
Cu2   O2    S    
N5    H34   S    
C24   H5    S    
C23   C42   S    
C45   H20   S    
C48   H23   S    
C28   C29   A    
C38   C42   S    
C2    H12   S    
N9    H42   S    
C5    C6    A    
C36   H10   S    
C9    C22   A    
N11   H46   S    
C20   O10   S    
C51   O11   S    
C15   C16   A    
N6    H35   S    
C18   C19   A    
C25   H7    S    
C47   H26   S    
C31   H3    S    
C45   N4    S    
C40   C43   S    
C1    O2    A    
C48   N3    S    
C37   H9    S    
C34   O8    A    
C12   O3    A    
C16   C20   A    
C43   H18   S    
C39   N7    S    
C38   H13   S    
C44   N8    S    
C21   C22   A    
C27   C30   A    
C37   C41   S    
C36   C41   S    
C4    C7    A    
C4    C28   A    
N10   H44   S    
C17   C18   A    
C39   C42   S    
Cu2   N3    S    
C21   H29   S    
C7    C31   A    
C24   C25   A    
C14   H30   S    
Cu1   O3    S    
C10   C14   A    
C8    C54   A    
C33   H6    S    
C46   N3    S    
C25   C26   A    
C20   N2    A    
C15   N12   S    
C22   H28   S    
C48   H21   S    
C44   H19   S    
Cu1   N4    S    
C35   N5    S    
C46   H25   S    
C19   O12   S    
C50   N1    A    
C47   N11   S    
C8    C12   S    
Cu1   O5    S    
Cu1   Cu2   S    
C34   O7    A    
C46   N10   S    
N7    H38   S    
C44   N3    S    
C52   H2    S    
C1    C41   S    
C48   C49   S    
C23   O5    A    
C11   C32   A    
C2    C54   A    
C9    C34   S    
C31   C35   A    
C5    C50   A    
C42   C43   S    
Cu2   O8    S    
C49   N4    S    
C52   C53   A    
C45   N9    S    
Cu2   O4    S    
C46   C47   S    
C40   C41   S    
N12   H48   S    
C6    H27   S    
C40   H16   S    
C6    C30   A    
C14   C15   A    
C44   C45   S    
C4    C5    A    
C10   C13   A    
C8    C53   A    
N8    H40   S    
C3    C52   A    
C9    C24   A    
C26   N2    S    
N5    H33   S    
C29   C35   A    
C49   H24   S    
C13   C17   A    
C3    N1    S    
C32   C33   A    
C36   C38   S    
C2    C3    A    
C7    C51   A    
C37   C39   S    
C19   N2    A    
N9    H41   S    
C51   N1    A    
C11   C13   A    
C16   C17   A    
C37   H11   S    
C39   H14   S    
N6    H36   S    
C53   H32   S    
C38   N6    S    
C18   C33   A    
C23   O6    A    
C11   C29   A    
C50   O9    S    
C1    O1    A    
Cu1   O7    S    
C27   C28   A    
C32   H4    S    
N10   H43   S    
C12   O4    A    
C30   H31   S    
C36   H8    S    
C54   H1    S    
