data_mof_unit_41250.cif
_audit_creation_date              2012-12-11T14:21:15-0500
_audit_creation_method            fapswitch 2.2
_symmetry_space_group_name_H-M    P1
_symmetry_Int_Tables_number       1
_space_group_crystal_system       triclinic
_cell_length_a                    21.955164
_cell_length_b                    7.208102
_cell_length_c                    14.935586
_cell_angle_alpha                 90.453312
_cell_angle_beta                  107.035686
_cell_angle_gamma                 90.138096
_cell_volume                      2259.82338058

loop_
_atom_site_label
_atom_site_type_symbol
_atom_type_description
_atom_site_fract_x
_atom_site_fract_y
_atom_site_fract_z
_atom_type_partial_charge
O1    O     O_R   0.584770 0.505770 0.002090 -0.541652
O2    O     O_R   0.415230 0.005770 0.997910 -0.541041
O3    O     O_R   0.467060 0.173340 0.861950 -0.538323
O4    O     O_R   0.532940 0.673340 0.138050 -0.538200
C1    C     C_R   0.455083 0.343340 0.825916 0.677283
C2    C     C_R   0.544823 0.845186 0.173949 0.677285
O5    O     O_R   0.587510 0.175890 0.993210 -0.540760
O6    O     O_R   0.412490 0.675890 0.006790 -0.541100
O7    O     O_R   0.536540 0.008150 0.130100 -0.536041
O8    O     O_R   0.463460 0.508150 0.869900 -0.536735
C3    C     C_R   0.612972 0.345068 0.997445 0.731424
C4    C     C_R   0.387033 0.844783 0.002527 0.730541
O9    O     O_3   0.483140 0.340040 0.044760 -0.377951
O10   O     O_3   0.516860 0.840040 0.955240 -0.378299
V1    V     V_3+5 0.503130 0.064190 0.991700 1.419525
V2    V     V_3+5 0.496870 0.564190 0.008300 1.417898
C5    C     C_2   0.213759 0.727794 0.002833 -0.123591
C6    C     C_2   0.785847 0.227393 0.996425 -0.128132
C7    C     C_2   0.180311 0.886952 0.996152 -0.298094
C8    C     C_2   0.819715 0.386487 0.003847 -0.296862
H1    H     H_    0.190455 0.597056 0.008207 0.139446
H2    H     H_    0.808772 0.096487 0.990392 0.138725
H3    H     H_    0.202053 0.019131 0.989587 0.128611
H4    H     H_    0.798305 0.518802 0.010996 0.129364
C9    C     C_2   0.281635 0.714511 0.002608 -0.138734
C10   C     C_2   0.717956 0.214703 0.996669 -0.136584
C11   C     C_2   0.319952 0.861201 0.003517 -0.300876
C12   C     C_2   0.680076 0.361644 0.996494 -0.301299
H5    H     H_    0.300557 0.575499 0.002379 0.136277
H6    H     H_    0.698627 0.075769 0.996262 0.136610
H7    H     H_    0.302254 0.001016 0.004619 0.131017
H8    H     H_    0.698104 0.501437 0.995944 0.130437
C13   C     C_R   0.928784 0.880850 0.723694 -0.120331
C14   C     C_R   0.071162 0.392016 0.276723 -0.122775
C15   C     C_R   0.573555 0.857244 0.275175 -0.023258
C16   C     C_R   0.426563 0.346332 0.724378 -0.026611
C17   C     C_R   0.937775 0.819899 0.568705 -0.147389
C18   C     C_R   0.064027 0.456250 0.432498 -0.147507
C19   C     C_R   0.967059 0.842755 0.664467 0.344506
C20   C     C_R   0.034134 0.438618 0.336658 0.346540
C21   C     C_R   0.862672 0.896101 0.686205 -0.254027
C22   C     C_R   0.136669 0.361575 0.313912 -0.254700
C23   C     C_R   0.832314 0.871613 0.589296 0.084670
C24   C     C_R   0.167752 0.381582 0.410960 0.084222
C25   C     C_R   0.871427 0.832887 0.530959 0.055266
C26   C     C_R   0.129890 0.430213 0.469780 0.055860
C27   C     C_R   0.764657 0.882205 0.548680 0.076690
C28   C     C_R   0.235056 0.358563 0.451193 0.077040
C29   C     C_R   0.737504 0.853589 0.449989 0.054512
C30   C     C_R   0.263128 0.385561 0.549869 0.054355
C31   C     C_R   0.778857 0.815306 0.395326 -0.177603
C32   C     C_R   0.222989 0.434292 0.604934 -0.177957
C33   C     C_R   0.844265 0.805682 0.435161 -0.161147
C34   C     C_R   0.157888 0.455217 0.565562 -0.160389
C35   C     C_R   0.723252 0.920087 0.603360 -0.187666
C36   C     C_R   0.275217 0.309631 0.396149 -0.187736
C37   C     C_R   0.657826 0.929922 0.563516 -0.202928
C38   C     C_R   0.340251 0.286963 0.435635 -0.202788
C39   C     C_R   0.630695 0.903462 0.467689 0.140471
C40   C     C_R   0.368173 0.310665 0.531482 0.140854
C41   C     C_R   0.669902 0.864678 0.409293 0.080796
C42   C     C_R   0.330335 0.361362 0.590229 0.080302
C43   C     C_R   0.564322 0.917524 0.429651 -0.160788
C44   C     C_R   0.433831 0.280232 0.569267 -0.161700
C45   C     C_R   0.535979 0.895668 0.333783 -0.172709
C46   C     C_R   0.462630 0.295446 0.665298 -0.170153
C47   C     C_R   0.639591 0.840885 0.312189 -0.206934
C48   C     C_R   0.361395 0.381358 0.687429 -0.208488
H9    H     H_    0.873964 0.775624 0.390261 0.149544
H10   H     H_    0.129133 0.492956 0.610780 0.147304
H11   H     H_    0.665593 0.813142 0.262648 0.095226
H12   H     H_    0.336322 0.416998 0.737203 0.098221
H13   H     H_    0.484844 0.910062 0.305173 0.104897
H14   H     H_    0.512934 0.265641 0.693740 0.106276
H15   H     H_    0.628100 0.959786 0.608392 0.122740
H16   H     H_    0.368965 0.248169 0.390528 0.123028
H17   H     H_    0.967278 0.790149 0.523477 0.142141
H18   H     H_    0.035453 0.493121 0.478111 0.141218
H19   H     H_    0.836460 0.923771 0.735488 0.112416
H20   H     H_    0.162124 0.329250 0.264188 0.114242
H21   H     H_    0.762445 0.791268 0.320927 0.123869
H22   H     H_    0.240165 0.457976 0.679318 0.124366
H23   H     H_    0.739617 0.943661 0.677794 0.122976
H24   H     H_    0.258072 0.286045 0.321761 0.122325
H25   H     H_    0.534358 0.947695 0.474105 0.112409
H26   H     H_    0.462702 0.240398 0.524583 0.112414
O11   O     O_R   0.036450 0.233070 0.130130 -0.536353
O12   O     O_R   0.963550 0.733070 0.869870 -0.535634
O13   O     O_R   0.912470 0.560570 0.006790 -0.544404
O14   O     O_R   0.087530 0.060570 0.993210 -0.545286
C49   C     C_R   0.886997 0.391771 0.002616 0.723135
C50   C     C_R   0.113004 0.892047 0.997374 0.722113
O15   O     O_R   0.032920 0.562940 0.138050 -0.535880
O16   O     O_R   0.967080 0.062940 0.861950 -0.536939
O17   O     O_R   0.084790 0.730500 0.002090 -0.537200
O18   O     O_R   0.915210 0.230500 0.997910 -0.538004
C51   C     C_R   0.044541 0.395334 0.174572 0.678704
C52   C     C_R   0.955508 0.893442 0.825564 0.678165
O19   O     O_3   0.016820 0.396170 0.955260 -0.376574
O20   O     O_3   0.983180 0.896170 0.044740 -0.376500
V3    V     V_3+5 0.996880 0.672090 0.008300 1.436166
V4    V     V_3+5 0.003120 0.172090 0.991700 1.428778
O21   O     O_3   0.032565 0.825479 0.696332 -0.647639
H27   H     H_    0.047893 0.851385 0.764413 0.272620
O22   O     O_3   0.969257 0.469696 0.305263 -0.648610
H28   H     H_    0.952781 0.437886 0.237891 0.273060

loop_
_geom_bond_atom_site_label_1
_geom_bond_atom_site_label_2
_ccdc_geom_bond_type
C43   C45   A    
C22   H20   S    
C17   C25   A    
O18   V4    S    
C14   C22   A    
O2    C4    A    
C2    O7    A    
O12   V3    S    
C38   H16   S    
C27   C29   A    
O5    C3    A    
C13   C19   A    
C14   C20   A    
C16   C46   A    
C37   C39   A    
C15   C45   A    
C38   C40   A    
C46   H14   S    
C1    C16   S    
C14   C51   S    
C45   H13   S    
C2    C15   S    
C40   C42   A    
C13   C52   S    
O14   V4    S    
C7    C50   S    
C49   O18   A    
C8    H4    S    
C24   C26   A    
C29   C31   A    
C6    C10   S    
C30   C32   A    
O13   C49   A    
C31   H21   S    
C47   H11   S    
C48   H12   S    
C28   C30   A    
C33   H9    S    
O6    V2    S    
C43   H25   S    
C21   C23   A    
C22   C24   A    
C44   H26   S    
C32   C34   A    
C36   H24   S    
C9    H5    S    
C8    C49   S    
C39   C41   A    
C29   C41   A    
C4    C11   S    
C11   H7    S    
C12   H8    S    
O4    C2    A    
O15   V3    S    
C18   H18   S    
C17   H17   S    
C50   O17   A    
C5    H1    S    
C31   C33   A    
C44   C46   A    
O4    V2    S    
C7    H3    S    
O11   V4    S    
C41   C47   A    
O14   C50   A    
C34   H10   S    
C15   C47   A    
O6    C4    A    
C26   C34   A    
O1    V2    S    
C32   H22   S    
O2    V1    S    
C23   C25   A    
C10   H6    S    
C35   C37   A    
C30   C42   A    
C35   H23   S    
O15   C51   A    
O3    V1    S    
C27   C35   A    
C28   C36   A    
O13   V3    S    
C6    H2    S    
C10   C12   D    
O3    C1    A    
C21   H19   S    
C16   C48   A    
C19   O21   S    
C9    C11   D    
O22   H28   S    
C39   C43   A    
C42   C48   A    
C40   C44   A    
C13   C21   A    
C37   H15   S    
O7    V1    S    
C5    C9    S    
C1    O8    A    
C17   C19   A    
O8    V2    S    
C18   C20   A    
C3    C12   S    
O5    V1    S    
O20   V3    S    
C5    C7    D    
C36   C38   A    
C6    C8    D    
C18   C26   A    
C25   C33   A    
O17   V3    S    
O19   V4    S    
O16   V4    S    
O9    V2    S    
O21   H27   S    
O16   C52   A    
O10   V1    S    
O1    C3    A    
C23   C27   A    
O12   C52   A    
C24   C28   A    
C20   O22   S    
O11   C51   A    
