data_mof_unit_10410.cif
_audit_creation_date              2012-12-10T21:11:32-0500
_audit_creation_method            fapswitch 2.2
_symmetry_space_group_name_H-M    P1
_symmetry_Int_Tables_number       1
_space_group_crystal_system       triclinic
_cell_length_a                    17.615021
_cell_length_b                    16.760435
_cell_length_c                    10.660397
_cell_angle_alpha                 94.47609
_cell_angle_beta                  91.182444
_cell_angle_gamma                 90.354324
_cell_volume                      3136.96325324

loop_
_atom_site_label
_atom_site_type_symbol
_atom_type_description
_atom_site_fract_x
_atom_site_fract_y
_atom_site_fract_z
_atom_type_partial_charge
C1    C     C_R   0.353627 0.499441 0.498857 0.949171
C2    C     C_R   0.646428 0.500423 0.501735 0.939692
C3    C     C_R   0.886413 0.494960 0.511125 0.045437
C4    C     C_R   0.114857 0.484237 0.520606 0.036437
C5    C     C_1   0.966830 0.489464 0.517571 0.000291
C6    C     C_1   0.034204 0.486099 0.521112 0.000431
C7    C     C_R   0.446818 0.828392 0.425686 -0.068858
C8    C     C_R   0.553499 0.171579 0.573445 -0.068240
C9    C     C_R   0.552748 0.836358 0.575783 -0.035850
C10   C     C_R   0.446642 0.163818 0.425047 -0.037941
C11   C     C_R   0.447893 0.744057 0.428222 0.657655
C12   C     C_R   0.552417 0.255915 0.571122 0.659105
C13   C     C_R   0.551228 0.751698 0.573771 0.710983
C14   C     C_R   0.448159 0.248486 0.427198 0.710492
C15   C     C_R   0.500015 0.875586 0.500313 -0.037298
C16   C     C_R   0.499881 0.124486 0.499506 -0.036972
C17   C     C_1   0.500014 0.963586 0.500049 0.057723
C18   C     C_1   0.499859 0.036482 0.499680 0.057895
C19   C     C_R   0.496345 0.495973 0.258244 0.916179
C20   C     C_R   0.503903 0.504087 0.741672 0.918189
C21   C     C_R   0.382942 0.585452 0.126334 0.499414
C22   C     C_R   0.618707 0.416323 0.873365 0.499787
C23   C     C_R   0.438382 0.640951 0.906965 0.461181
C24   C     C_R   0.563926 0.360243 0.092932 0.456557
C25   C     C_R   0.349550 0.651260 0.076107 0.476324
C26   C     C_R   0.652679 0.350793 0.923453 0.479152
C27   C     C_R   0.379504 0.681065 0.969867 0.389477
C28   C     C_R   0.623132 0.320736 0.029863 0.391180
C29   C     C_R   0.466374 0.567391 0.947869 -0.255812
C30   C     C_R   0.535087 0.433453 0.051959 -0.255457
C31   C     C_R   0.444861 0.545777 0.066271 -0.250680
C32   C     C_R   0.556416 0.455171 0.933479 -0.250376
C33   C     C_R   0.514731 0.514585 0.876842 0.073192
C34   C     C_R   0.486197 0.485909 0.122878 0.072038
C35   C     C_R   0.849227 0.548213 0.597935 0.162129
C36   C     C_R   0.150105 0.449160 0.412585 0.163636
C37   C     C_R   0.156785 0.521856 0.623076 0.182079
C38   C     C_R   0.846208 0.446475 0.417972 0.175854
C39   C     C_R   0.769485 0.547561 0.599098 0.111697
C40   C     C_R   0.229557 0.454090 0.404340 0.127207
C41   C     C_R   0.235882 0.530671 0.612474 0.102916
C42   C     C_R   0.766883 0.453764 0.408340 0.112141
C43   C     C_R   0.728813 0.501074 0.502865 -0.083189
C44   C     C_R   0.271410 0.496979 0.503058 -0.089671
N1    N     N_R   0.500000 0.707230 0.500000 -0.215241
N2    N     N_R   0.500000 0.292770 0.500000 -0.214410
O1    O     O_R   0.389110 0.566570 0.499990 -0.530213
O2    O     O_R   0.610890 0.433430 0.500010 -0.521512
O3    O     O_R   0.610890 0.566570 0.500010 -0.620322
O4    O     O_R   0.389110 0.433430 0.499990 -0.616061
O5    O     O_R   0.499990 0.566540 0.316770 -0.588307
O6    O     O_R   0.500010 0.433460 0.683230 -0.591142
O7    O     O_R   0.500010 0.566540 0.683230 -0.544954
O8    O     O_R   0.499990 0.433460 0.316770 -0.545721
Zn1   Zn    Zn3+2 0.500000 0.588860 0.500000 1.097892
Zn2   Zn    Zn3+2 0.500000 0.411140 0.500000 1.102471
F1    F     F_    0.651165 0.252114 0.071446 -0.575339
F2    F     F_    0.352184 0.749988 0.928274 -0.571236
F3    F     F_    0.712072 0.313964 0.864876 -0.558335
F4    F     F_    0.290431 0.688686 0.134574 -0.558109
F5    F     F_    0.352988 0.559400 0.231741 -0.622793
F6    F     F_    0.648691 0.443372 0.768566 -0.623825
F7    F     F_    0.473518 0.681024 0.818870 -0.573670
F8    F     F_    0.529501 0.319880 0.181421 -0.574426
C45   C     C_3   0.893659 0.604590 0.691662 -0.867383
H1    H     H_    0.871014 0.666180 0.690857 0.246705
H2    H     H_    0.889376 0.583973 0.787719 0.249638
H3    H     H_    0.954489 0.609796 0.669587 0.244520
C46   C     C_3   0.101071 0.407179 0.307764 -0.860418
H4    H     H_    0.132666 0.378376 0.228229 0.244387
H5    H     H_    0.066913 0.359324 0.346526 0.241925
H6    H     H_    0.062317 0.451234 0.268212 0.245338
C47   C     C_3   0.117917 0.551451 0.743704 -0.848519
H7    H     H_    0.144902 0.524138 0.824938 0.246264
H8    H     H_    0.122288 0.617685 0.757459 0.261007
H9    H     H_    0.057132 0.534726 0.745691 0.236773
C48   C     C_3   0.889320 0.388548 0.329175 -0.834785
H10   H     H_    0.924856 0.422703 0.267001 0.234935
H11   H     H_    0.926343 0.350297 0.384507 0.242488
H12   H     H_    0.852527 0.346932 0.269100 0.265744
C49   C     C_3   0.729767 0.595576 0.705206 -0.642579
H13   H     H_    0.753547 0.580177 0.797404 0.230443
H14   H     H_    0.738104 0.660517 0.696131 0.245345
H15   H     H_    0.668146 0.583847 0.709114 0.287807
C50   C     C_3   0.268151 0.414485 0.289518 -0.657535
H16   H     H_    0.246466 0.440515 0.203207 0.238667
H17   H     H_    0.330479 0.421770 0.289774 0.283985
H18   H     H_    0.256500 0.349093 0.282777 0.240668
C51   C     C_3   0.284040 0.573250 0.717824 -0.817272
H19   H     H_    0.252023 0.596512 0.800740 0.252242
H20   H     H_    0.327198 0.531489 0.751711 0.186879
H21   H     H_    0.313096 0.625716 0.682521 0.286227
C52   C     C_3   0.723946 0.413770 0.295037 -0.802100
H22   H     H_    0.753459 0.425319 0.207117 0.230507
H23   H     H_    0.719715 0.348320 0.303672 0.291129
H24   H     H_    0.666021 0.437558 0.282614 0.199920
C53   C     C_3   0.389192 0.867552 0.344172 -0.688133
H25   H     H_    0.351405 0.823337 0.290571 0.313769
H26   H     H_    0.353172 0.908506 0.403901 0.228011
H27   H     H_    0.418881 0.902509 0.275416 0.228395
C54   C     C_3   0.611524 0.132321 0.654089 -0.692372
H28   H     H_    0.649597 0.176483 0.707206 0.312299
H29   H     H_    0.582190 0.097357 0.723230 0.229096
H30   H     H_    0.647213 0.091358 0.593783 0.227646
C55   C     C_3   0.610015 0.884280 0.658058 -0.740329
H31   H     H_    0.647688 0.845756 0.711676 0.277721
H32   H     H_    0.646224 0.919948 0.598870 0.222542
H33   H     H_    0.580032 0.925524 0.726653 0.244331
C56   C     C_3   0.388807 0.115996 0.343819 -0.738360
H34   H     H_    0.350828 0.154591 0.290883 0.278678
H35   H     H_    0.418290 0.074697 0.274653 0.243221
H36   H     H_    0.352979 0.080392 0.403684 0.223550
F9    F     F_    0.395822 0.698628 0.359982 -0.583712
F10   F     F_    0.604587 0.301366 0.639249 -0.586103
F11   F     F_    0.600443 0.713531 0.647276 -0.643516
F12   F     F_    0.398109 0.286893 0.355246 -0.639726

loop_
_geom_bond_atom_site_label_1
_geom_bond_atom_site_label_2
_ccdc_geom_bond_type
C41   C51   S    
C4    C36   A    
C52   H22   S    
C42   C52   S    
C47   H7    S    
C53   H27   S    
C53   H25   S    
C14   N2    A    
C28   F1    S    
C7    C11   A    
C55   H32   S    
C54   H28   S    
C22   C32   A    
C23   C29   A    
C38   C42   A    
C56   H35   S    
C5    C6    T    
C48   H12   S    
C35   C45   S    
C9    C55   S    
C29   C33   A    
C10   C56   S    
O2    Zn2   S    
C46   H5    S    
C9    C13   A    
C21   C25   A    
C53   H26   S    
C3    C38   A    
C45   H2    S    
C25   F4    S    
C23   C27   A    
C51   H20   S    
C1    O4    A    
C21   F5    S    
C48   H10   S    
C23   F7    S    
C8    C16   A    
C29   C31   A    
C47   H8    S    
C49   H14   S    
C49   H13   S    
C12   F10   S    
O7    Zn1   S    
C55   H33   S    
O8    Zn2   S    
C31   C34   A    
C30   C34   A    
C50   H17   S    
C30   C32   A    
C36   C40   A    
C39   C49   S    
C4    C6    S    
C10   C14   A    
C56   H36   S    
C1    O1    A    
C39   C43   A    
C2    O2    A    
C50   H16   S    
C19   C34   S    
O4    Zn2   S    
C40   C50   S    
C46   H6    S    
C35   C39   A    
C2    O3    A    
C22   F6    S    
C21   C31   A    
C1    C44   S    
C3    C35   A    
C2    C43   S    
C8    C12   A    
C45   H3    S    
C17   C18   T    
C48   H11   S    
C51   H21   S    
C13   F11   S    
C20   C33   S    
C19   O8    A    
C12   N2    A    
C38   C48   S    
C52   H24   S    
C41   C44   A    
C11   N1    A    
C42   C43   A    
C49   H15   S    
C36   C46   S    
O1    Zn1   S    
C26   F3    S    
C50   H18   S    
C15   C17   S    
C37   C47   S    
C7    C53   S    
C24   C28   A    
C20   O7    A    
C3    C5    S    
C27   F2    S    
C8    C54   S    
C25   C27   A    
C55   H31   S    
C26   C28   A    
C54   H29   S    
C32   C33   A    
C9    C15   A    
C20   O6    A    
O3    Zn1   S    
C56   H34   S    
C13   N1    A    
C52   H23   S    
C14   F12   S    
C7    C15   A    
C47   H9    S    
C24   F8    S    
O5    Zn1   S    
C37   C41   A    
C46   H4    S    
C11   F9    S    
C24   C30   A    
C19   O5    A    
C40   C44   A    
C4    C37   A    
N1    Zn1   S    
C16   C18   S    
C45   H1    S    
C22   C26   A    
N2    Zn2   S    
C10   C16   A    
C54   H30   S    
C51   H19   S    
O6    Zn2   S    
