data_mof_unit_64811.cif
_audit_creation_date              2012-12-10T20:22:37-0500
_audit_creation_method            fapswitch 2.2
_symmetry_space_group_name_H-M    P1
_symmetry_Int_Tables_number       1
_space_group_crystal_system       triclinic
_cell_length_a                    25.645753
_cell_length_b                    36.274512
_cell_length_c                    22.161431
_cell_angle_alpha                 89.999816
_cell_angle_beta                  125.019812
_cell_angle_gamma                 90.000117
_cell_volume                      16883.9540964

loop_
_atom_site_label
_atom_site_type_symbol
_atom_type_description
_atom_site_fract_x
_atom_site_fract_y
_atom_site_fract_z
_atom_type_partial_charge
C1    C     C_R   0.858342 0.750100 0.000187 0.509807
C2    C     C_3   0.265499 0.760334 0.066270 -0.020452
C3    C     C_1   0.499999 0.611465 1.000000 -0.004823
C4    C     C_R   0.000000 0.849031 1.000000 0.504080
C5    C     C_R   0.000000 0.150969 0.000000 0.504081
C6    C     C_R   0.500000 0.349031 1.000000 0.504044
C7    C     C_R   0.500000 0.650969 0.000000 0.504040
C8    C     C_R   1.000000 0.651035 0.000000 0.507088
C9    C     C_R   0.000000 0.348965 0.000000 0.507077
C10   C     C_R   0.500000 0.151035 1.000000 0.507074
C11   C     C_R   0.500000 0.848965 1.000000 0.507085
C12   C     C_R   0.956545 0.480720 0.007186 -0.107623
C13   C     C_3   0.265485 0.239620 0.066241 -0.020469
C14   C     C_R   0.043456 0.519280 0.992823 -0.107622
C15   C     C_R   0.043457 0.480720 0.992824 -0.107616
C16   C     C_R   0.956545 0.519280 0.007186 -0.107625
C17   C     C_R   0.456569 0.980719 0.007221 -0.107623
C18   C     C_R   0.543429 0.019280 0.992770 -0.107624
C19   C     C_R   0.543429 0.980720 0.992770 -0.107626
C20   C     C_R   0.456568 0.019280 0.007220 -0.107616
C21   C     C_R   0.000001 0.461369 0.000005 0.036816
C22   C     C_R   0.000000 0.538631 0.000004 0.036811
C23   C     C_R   0.500000 0.961369 0.999996 0.036810
C24   C     C_3   0.734500 0.760335 0.933730 -0.020453
C25   C     C_R   0.499999 0.038631 0.999995 0.036814
C26   C     C_1   0.000000 0.421708 0.000003 -0.061908
C27   C     C_1   1.000000 0.578291 0.000003 -0.061906
C28   C     C_1   0.500000 0.921708 0.999997 -0.061913
C29   C     C_1   0.499999 0.078291 0.999997 -0.061915
C30   C     C_1   1.000000 0.611514 0.000001 0.001987
C31   C     C_1   0.000000 0.388486 0.000001 0.001985
C32   C     C_1   0.500000 0.111514 0.999999 0.001975
C33   C     C_1   0.500000 0.888486 0.999999 0.001977
C34   C     C_3   0.224917 0.716159 0.984498 -0.020096
C35   C     C_3   0.234500 0.739666 0.933730 -0.020449
C36   C     C_3   0.775072 0.283843 0.015479 -0.020088
C37   C     C_3   0.775083 0.716159 0.015501 -0.020096
C38   C     C_3   0.224963 0.283851 0.984592 -0.020074
C39   C     C_3   0.724928 0.216157 0.984521 -0.020089
C40   C     C_3   0.275083 0.783840 0.015502 -0.020095
C41   C     C_3   0.275037 0.216149 0.015407 -0.020073
C42   C     C_3   0.724917 0.783840 0.984499 -0.020095
C43   C     C_R   0.721196 0.226886 0.861525 0.041757
C44   C     C_R   0.680574 0.246924 0.796383 -0.088699
C45   C     C_R   0.670000 0.235069 0.730140 -0.104937
C46   C     C_3   0.765496 0.260345 0.066263 -0.020455
C47   C     C_R   0.699798 0.203202 0.728510 -0.091835
C48   C     C_R   0.740168 0.183096 0.793102 -0.114260
C49   C     C_R   0.750832 0.194846 0.859393 -0.083889
C50   C     C_R   0.278805 0.773086 0.138488 0.041762
C51   C     C_R   0.319382 0.753021 0.203604 -0.088682
C52   C     C_R   0.329945 0.764857 0.269852 -0.104896
C53   C     C_R   0.300180 0.796733 0.271512 -0.091820
C54   C     C_R   0.259856 0.816866 0.206946 -0.114280
C55   C     C_R   0.249202 0.805135 0.140651 -0.083897
C56   C     C_R   0.278779 0.226809 0.138422 0.041732
C57   C     C_3   0.765500 0.739665 0.066270 -0.020450
C58   C     C_R   0.319412 0.246814 0.203605 -0.088672
C59   C     C_R   0.329984 0.234916 0.269824 -0.105012
C60   C     C_R   0.300173 0.203037 0.271387 -0.091897
C61   C     C_R   0.259790 0.182965 0.206751 -0.114241
C62   C     C_R   0.249126 0.194759 0.140485 -0.083914
C63   C     C_R   0.721193 0.773089 0.861512 0.041761
C64   C     C_R   0.680610 0.753028 0.796393 -0.088682
C65   C     C_R   0.670043 0.764866 0.730145 -0.104906
C66   C     C_R   0.699810 0.796742 0.728487 -0.091825
C67   C     C_R   0.740141 0.816871 0.793057 -0.114275
C68   C     C_3   0.234515 0.260380 0.933759 -0.020466
C69   C     C_R   0.750799 0.805138 0.859352 -0.083897
C70   C     C_R   0.221195 0.726913 0.861512 0.041775
C71   C     C_R   0.180616 0.746977 0.796395 -0.088688
C72   C     C_R   0.170053 0.735141 0.730147 -0.104901
C73   C     C_R   0.199820 0.703266 0.728488 -0.091816
C74   C     C_R   0.240146 0.683134 0.793056 -0.114308
C75   C     C_R   0.250800 0.694865 0.859350 -0.083912
C76   C     C_R   0.778800 0.273112 0.138473 0.041764
C77   C     C_R   0.819389 0.253061 0.203605 -0.088683
C78   C     C_R   0.829955 0.264912 0.269847 -0.104932
C79   C     C_3   0.801485 0.249689 0.000619 0.035790
C80   C     C_R   0.800181 0.296790 0.271484 -0.091840
C81   C     C_R   0.759844 0.316909 0.206901 -0.114300
C82   C     C_R   0.749187 0.305162 0.140612 -0.083919
C83   C     C_R   0.778806 0.726910 0.138488 0.041773
C84   C     C_R   0.819388 0.746972 0.203606 -0.088686
C85   C     C_R   0.829955 0.735133 0.269854 -0.104911
C86   C     C_R   0.800189 0.703257 0.271512 -0.091822
C87   C     C_R   0.759860 0.683127 0.206943 -0.114304
C88   C     C_R   0.749202 0.694861 0.140648 -0.083914
C89   C     C_R   0.221221 0.273192 0.861579 0.041744
C90   C     C_3   0.198515 0.750310 0.999380 0.035792
C91   C     C_R   0.180586 0.253189 0.796394 -0.088677
C92   C     C_R   0.170014 0.265087 0.730175 -0.105018
C93   C     C_R   0.199827 0.296965 0.728614 -0.091893
C94   C     C_R   0.240212 0.317035 0.793251 -0.114268
C95   C     C_R   0.250876 0.305241 0.859517 -0.083930
C96   C     C_R   0.192530 0.679155 0.964937 0.043681
C97   C     C_R   0.223158 0.648292 0.010171 -0.084932
C98   C     C_R   0.191483 0.614430 0.992411 -0.107882
C99   C     C_R   0.129189 0.611161 0.929528 -0.099575
C100  C     C_R   0.098544 0.641721 0.884086 -0.109845
C101  C     C_3   0.198514 0.249689 0.999379 0.035786
C102  C     C_R   0.130068 0.675597 0.901603 -0.082155
C103  C     C_R   0.807449 0.320850 0.035017 0.043691
C104  C     C_R   0.776813 0.351706 0.989763 -0.084927
C105  C     C_R   0.808479 0.385570 0.007502 -0.107877
C106  C     C_R   0.870772 0.388848 0.070384 -0.099567
C107  C     C_R   0.901425 0.358296 0.115845 -0.109842
C108  C     C_R   0.869909 0.324418 0.098349 -0.082148
C109  C     C_R   0.807472 0.679156 0.035061 0.043682
C110  C     C_R   0.776846 0.648293 0.989825 -0.084930
C111  C     C_R   0.808523 0.614432 0.007583 -0.107880
C112  C     C_R   0.141658 0.249900 0.999812 0.509797
C113  C     C_3   0.801485 0.750311 0.000619 0.035792
C114  C     C_R   0.870817 0.611164 0.070467 -0.099574
C115  C     C_R   0.901459 0.641723 0.115911 -0.109845
C116  C     C_R   0.869932 0.675598 0.098395 -0.082154
C117  C     C_R   0.192625 0.320868 0.965127 0.043724
C118  C     C_R   0.223296 0.351702 0.010436 -0.084930
C119  C     C_R   0.191668 0.385577 0.992760 -0.107871
C120  C     C_R   0.129378 0.388887 0.929887 -0.099547
C121  C     C_R   0.098689 0.358356 0.884372 -0.109819
C122  C     C_R   0.130167 0.324468 0.901805 -0.082110
C123  C     C_R   0.692551 0.179150 0.964982 0.043708
C124  C     C_3   0.301485 0.749689 0.000619 0.035791
C125  C     C_R   0.723187 0.148294 0.010236 -0.084923
C126  C     C_R   0.691522 0.114429 0.992496 -0.107850
C127  C     C_R   0.629229 0.111151 0.929614 -0.099520
C128  C     C_R   0.598576 0.141704 0.884154 -0.109826
C129  C     C_R   0.630091 0.175582 0.901650 -0.082141
C130  C     C_R   0.307470 0.820844 0.035062 0.043689
C131  C     C_R   0.276842 0.851707 0.989827 -0.084930
C132  C     C_R   0.308517 0.885569 0.007587 -0.107854
C133  C     C_R   0.370810 0.888838 0.070471 -0.099529
C134  C     C_R   0.401455 0.858279 0.115914 -0.109831
C135  C     C_3   0.698515 0.250311 0.999380 0.035787
C136  C     C_R   0.369930 0.824403 0.098397 -0.082154
C137  C     C_R   0.307375 0.179132 0.034873 0.043732
C138  C     C_R   0.276703 0.148298 0.989564 -0.084930
C139  C     C_R   0.308331 0.114423 0.007241 -0.107844
C140  C     C_R   0.370622 0.111113 0.070114 -0.099501
C141  C     C_R   0.401310 0.141645 0.115629 -0.109805
C142  C     C_R   0.369832 0.175533 0.098196 -0.082107
C143  C     C_R   0.692529 0.820844 0.964939 0.043691
C144  C     C_R   0.723154 0.851707 0.010175 -0.084929
C145  C     C_R   0.691477 0.885568 0.992416 -0.107854
C146  C     C_3   0.698515 0.749689 0.999381 0.035791
C147  C     C_R   0.629184 0.888836 0.929531 -0.099527
C148  C     C_R   0.598541 0.858277 0.884088 -0.109831
C149  C     C_R   0.630068 0.824402 0.901604 -0.082151
C150  C     C_3   0.301486 0.250311 0.000620 0.035785
C151  C     C_3   0.792742 0.225878 0.052090 -0.147150
C152  C     C_3   0.207266 0.774131 0.947926 -0.147149
C153  C     C_3   0.207233 0.225905 0.947858 -0.147151
C154  C     C_3   0.792734 0.774131 0.052075 -0.147149
C155  C     C_3   0.292734 0.725869 0.052074 -0.147149
C156  C     C_R   0.141658 0.750100 0.999812 0.509807
C157  C     C_3   0.707258 0.274122 0.947909 -0.147147
C158  C     C_3   0.707266 0.725869 0.947925 -0.147149
C159  C     C_3   0.292767 0.274095 0.052141 -0.147152
C160  C     C_R   0.683664 0.751288 0.461116 -0.119929
C161  C     C_R   0.316321 0.248477 0.538883 -0.119931
C162  C     C_R   0.316337 0.751272 0.538883 -0.119927
C163  C     C_R   0.683663 0.248669 0.461116 -0.119929
C164  C     C_R   0.183678 0.251523 0.461117 -0.119940
C165  C     C_R   0.816336 0.748711 0.538884 -0.119937
C166  C     C_R   0.816335 0.251329 0.538885 -0.119935
C167  C     C_R   0.858342 0.249900 0.000187 0.509794
C168  C     C_R   0.183663 0.748728 0.461117 -0.119936
C169  C     C_R   0.711933 0.749927 0.422697 0.042782
C170  C     C_R   0.288069 0.250075 0.577303 0.042803
C171  C     C_R   0.288067 0.749928 0.577303 0.042779
C172  C     C_R   0.711932 0.250071 0.422697 0.042779
C173  C     C_R   0.211931 0.249926 0.422697 0.042803
C174  C     C_R   0.788067 0.750072 0.577303 0.042782
C175  C     C_R   0.788065 0.249926 0.577303 0.042778
C176  C     C_R   0.211932 0.750072 0.422697 0.042779
C177  C     C_R   0.778655 0.748704 0.461457 0.116857
C178  C     C_R   0.358342 0.250100 0.000188 0.509794
C179  C     C_R   0.221361 0.251534 0.538544 0.116913
C180  C     C_R   0.221345 0.748721 0.538544 0.116852
C181  C     C_R   0.778654 0.251336 0.461457 0.116873
C182  C     C_R   0.278639 0.248466 0.461456 0.116917
C183  C     C_R   0.721345 0.751296 0.538543 0.116860
C184  C     C_R   0.721344 0.248661 0.538543 0.116873
C185  C     C_R   0.278654 0.751278 0.461455 0.116856
C186  C     C_1   0.671855 0.749793 0.343305 -0.031059
C187  C     C_1   0.328148 0.250207 0.656695 -0.031006
C188  C     C_1   0.328147 0.749793 0.656695 -0.031064
C189  C     C_R   0.641658 0.749900 0.999813 0.509804
C190  C     C_1   0.671854 0.250206 0.343305 -0.031049
C191  C     C_1   0.171852 0.249793 0.343305 -0.031011
C192  C     C_1   0.828145 0.750207 0.656695 -0.031065
C193  C     C_1   0.828145 0.249793 0.656696 -0.031053
C194  C     C_1   0.171853 0.750206 0.343305 -0.031069
C195  C     C_1   0.861524 0.750212 0.723070 0.005034
C196  C     C_1   0.138474 0.249789 0.276930 0.005068
C197  C     C_1   0.138475 0.750212 0.276930 0.005032
C198  C     C_1   0.861524 0.249788 0.723070 0.005046
C199  C     C_1   0.361526 0.250211 0.723070 0.005075
C200  C     C_R   0.641658 0.250100 0.999813 0.509802
C201  C     C_1   0.638476 0.749788 0.276930 0.005042
C202  C     C_1   0.638475 0.250211 0.276930 0.005052
C203  C     C_1   0.361525 0.749788 0.723070 0.005040
C204  C     C_R   0.954594 0.019274 0.003664 -0.107080
C205  C     C_R   0.045407 0.980726 0.996337 -0.107081
C206  C     C_R   0.045407 0.019274 0.996337 -0.107082
C207  C     C_R   0.954594 0.980726 0.003664 -0.107081
C208  C     C_R   0.452619 0.519274 0.999822 -0.107034
C209  C     C_R   0.547378 0.480726 0.000175 -0.107033
C210  C     C_R   0.547378 0.519274 0.000175 -0.107034
C211  C     C_R   0.358342 0.749900 0.000188 0.509805
C212  C     C_R   0.452619 0.480726 0.999822 -0.107035
C213  C     C_R   0.000000 0.038613 0.000001 0.036500
C214  C     C_R   0.000000 0.961387 0.000000 0.036499
C215  C     C_R   0.499999 0.538612 0.999999 0.036577
C216  C     C_R   0.499999 0.461387 0.999999 0.036578
C217  C     C_R   0.098972 0.750072 0.197983 0.504905
C218  C     C_R   0.901028 0.249928 0.802017 0.504905
C219  C     C_R   0.901028 0.750072 0.802017 0.504905
C220  C     C_R   0.098971 0.249928 0.197983 0.504918
C221  C     C_R   0.598971 0.250072 0.197983 0.504906
C222  C     C_3   0.734503 0.239655 0.933736 -0.020455
C223  C     C_R   0.401028 0.749928 0.802017 0.504902
C224  C     C_R   0.401029 0.250072 0.802017 0.504914
C225  C     C_R   0.598972 0.749928 0.197983 0.504904
C226  C     C_1   0.000000 0.078253 0.000001 -0.061306
C227  C     C_1   0.000000 0.921747 0.000000 -0.061308
C228  C     C_1   0.499999 0.578253 1.000000 -0.061270
C229  C     C_1   0.499999 0.421747 0.999999 -0.061269
C230  C     C_1   0.000000 0.888535 1.000000 -0.004835
C231  C     C_1   0.000000 0.111465 0.000000 -0.004835
C232  C     C_1   0.499999 0.388535 0.999999 -0.004822
H1    H     H_    0.922737 0.533981 0.012753 0.100616
H2    H     H_    0.170785 0.793469 0.906154 0.110328
H3    H     H_    0.395322 0.915030 0.083957 0.102334
H4    H     H_    0.449710 0.860806 0.164586 0.106008
H5    H     H_    0.394321 0.800857 0.133811 0.104744
H6    H     H_    0.228690 0.150357 0.940378 0.098103
H7    H     H_    0.284621 0.090754 0.972018 0.103340
H8    H     H_    0.395098 0.084912 0.083538 0.102291
H9    H     H_    0.449563 0.139086 0.164293 0.105994
H10   H     H_    0.394256 0.199057 0.133666 0.104700
H11   H     H_    0.771168 0.849680 0.059369 0.098097
H12   H     H_    0.715152 0.909258 0.027583 0.103324
H13   H     H_    0.170727 0.206595 0.906032 0.110326
H14   H     H_    0.604670 0.915027 0.916046 0.102332
H15   H     H_    0.550285 0.860804 0.835416 0.106008
H16   H     H_    0.605678 0.800856 0.866189 0.104745
H17   H     H_    0.700836 0.727566 0.604889 0.231290
H18   H     H_    0.642962 0.755459 0.541372 0.214824
H19   H     H_    0.299381 0.271931 0.395112 0.231230
H20   H     H_    0.356976 0.243906 0.458625 0.214818
H21   H     H_    0.299143 0.727529 0.395107 0.231295
H22   H     H_    0.357040 0.755412 0.458625 0.214825
H23   H     H_    0.700791 0.272344 0.604889 0.231285
H24   H     H_    0.829215 0.793469 0.093847 0.110328
H25   H     H_    0.642964 0.244426 0.541372 0.214812
H26   H     H_    0.200620 0.228069 0.604889 0.231221
H27   H     H_    0.143024 0.256094 0.541375 0.214810
H28   H     H_    0.799164 0.772434 0.395111 0.231281
H29   H     H_    0.857038 0.744541 0.458628 0.214815
H30   H     H_    0.799206 0.227653 0.395111 0.231267
H31   H     H_    0.857034 0.255570 0.458628 0.214804
H32   H     H_    0.200857 0.772470 0.604893 0.231285
H33   H     H_    0.142960 0.744588 0.541375 0.214815
H34   H     H_    0.329215 0.706531 0.093846 0.110351
H35   H     H_    0.670772 0.293455 0.906125 0.110355
H36   H     H_    0.670785 0.706531 0.906153 0.110351
H37   H     H_    0.329273 0.293405 0.093967 0.110349
H38   H     H_    0.632228 0.752251 0.430684 0.103161
H39   H     H_    0.367746 0.247333 0.569313 0.103139
H40   H     H_    0.367773 0.752222 0.569314 0.103162
H41   H     H_    0.077266 0.466020 0.987258 0.100587
H42   H     H_    0.632227 0.247673 0.430684 0.103152
H43   H     H_    0.132253 0.252667 0.430687 0.103129
H44   H     H_    0.867772 0.747748 0.569315 0.103148
H45   H     H_    0.867771 0.252324 0.569316 0.103140
H46   H     H_    0.132226 0.747778 0.430687 0.103150
H47   H     H_    0.919280 0.966027 0.006515 0.107996
H48   H     H_    0.080721 0.033973 0.993486 0.107996
H49   H     H_    0.080721 0.966027 0.993485 0.107996
H50   H     H_    0.919280 0.033973 0.006516 0.107997
H51   H     H_    0.415770 0.466027 0.999686 0.107866
H52   H     H_    0.077264 0.533981 0.987255 0.100619
H53   H     H_    0.584228 0.533973 0.000312 0.107866
H54   H     H_    0.584227 0.466027 0.000311 0.107867
H55   H     H_    0.415770 0.533973 0.999686 0.107866
H56   H     H_    0.657330 0.271751 0.796592 0.097688
H57   H     H_    0.638796 0.250638 0.680066 0.108618
H58   H     H_    0.691609 0.194078 0.677232 0.139682
H59   H     H_    0.763289 0.158440 0.791840 0.109059
H60   H     H_    0.782421 0.179104 0.909162 0.108596
H61   H     H_    0.342596 0.728187 0.203371 0.097679
H62   H     H_    0.361113 0.749266 0.319904 0.108664
H63   H     H_    0.922737 0.466019 0.012753 0.100609
H64   H     H_    0.308360 0.805842 0.322793 0.139708
H65   H     H_    0.236762 0.841529 0.208232 0.109056
H66   H     H_    0.217645 0.820897 0.090901 0.108594
H67   H     H_    0.342666 0.271647 0.203449 0.097687
H68   H     H_    0.361198 0.250459 0.319931 0.108494
H69   H     H_    0.308364 0.193878 0.322646 0.139696
H70   H     H_    0.236660 0.158301 0.207962 0.109085
H71   H     H_    0.217529 0.179042 0.090682 0.108636
H72   H     H_    0.657394 0.728193 0.796624 0.097679
H73   H     H_    0.638871 0.749278 0.680090 0.108649
H74   H     H_    0.422779 0.033980 0.012821 0.100579
H75   H     H_    0.691627 0.805854 0.677206 0.139711
H76   H     H_    0.763237 0.841534 0.791772 0.109057
H77   H     H_    0.782360 0.820897 0.909104 0.108593
H78   H     H_    0.157400 0.771811 0.796627 0.097657
H79   H     H_    0.138884 0.750731 0.680094 0.108648
H80   H     H_    0.191641 0.694157 0.677208 0.139696
H81   H     H_    0.263243 0.658472 0.791770 0.108967
H82   H     H_    0.282359 0.679104 0.909101 0.108563
H83   H     H_    0.842611 0.228226 0.203390 0.097667
H84   H     H_    0.861133 0.249332 0.319912 0.108611
H85   H     H_    0.577218 0.966019 0.987168 0.100609
H86   H     H_    0.808364 0.305911 0.322760 0.139686
H87   H     H_    0.736743 0.341573 0.208169 0.108972
H88   H     H_    0.717621 0.320913 0.090849 0.108573
H89   H     H_    0.842604 0.771807 0.203375 0.097658
H90   H     H_    0.861126 0.750722 0.319909 0.108633
H91   H     H_    0.808372 0.694145 0.322793 0.139699
H92   H     H_    0.736764 0.658464 0.208227 0.108969
H93   H     H_    0.717641 0.679102 0.090896 0.108563
H94   H     H_    0.157330 0.228355 0.796549 0.097666
H95   H     H_    0.138799 0.249545 0.680067 0.108478
H96   H     H_    0.577218 0.033981 0.987168 0.100602
H97   H     H_    0.191637 0.306125 0.677355 0.139683
H98   H     H_    0.263344 0.341700 0.792041 0.108995
H99   H     H_    0.282475 0.320957 0.909320 0.108605
H100  H     H_    0.271173 0.650319 0.059364 0.098150
H101  H     H_    0.215161 0.590739 0.027577 0.103375
H102  H     H_    0.104677 0.584970 0.916041 0.102325
H103  H     H_    0.050288 0.639194 0.835415 0.106003
H104  H     H_    0.105678 0.699143 0.866190 0.104740
H105  H     H_    0.728800 0.349671 0.940570 0.098158
H106  H     H_    0.784796 0.409256 0.972321 0.103380
H107  H     H_    0.422781 0.966019 0.012823 0.100611
H108  H     H_    0.895277 0.415042 0.083854 0.102314
H109  H     H_    0.949680 0.360830 0.164516 0.105993
H110  H     H_    0.894306 0.300877 0.133778 0.104728
H111  H     H_    0.728832 0.650320 0.940630 0.098150
H112  H     H_    0.784848 0.590742 0.972415 0.103375
H113  H     H_    0.895331 0.584973 0.083952 0.102324
H114  H     H_    0.949715 0.639196 0.164583 0.106003
H115  H     H_    0.894321 0.699144 0.133811 0.104742
H116  H     H_    0.271309 0.349643 0.059622 0.098156
H117  H     H_    0.215379 0.409246 0.027983 0.103392
H118  H     H_    0.829228 0.206546 0.093875 0.110331
H119  H     H_    0.104902 0.415088 0.916464 0.102283
H120  H     H_    0.050436 0.360914 0.835708 0.105989
H121  H     H_    0.105744 0.300943 0.866333 0.104697
H122  H     H_    0.771201 0.150328 0.059428 0.098101
H123  H     H_    0.715206 0.090744 0.027677 0.103328
H124  H     H_    0.604724 0.084958 0.916143 0.102322
H125  H     H_    0.550321 0.139170 0.835483 0.105997
H126  H     H_    0.605693 0.199123 0.866222 0.104726
H127  H     H_    0.228828 0.849680 0.940633 0.098098
H128  H     H_    0.284840 0.909260 0.972420 0.103323
N1    N     N_3   0.692373 0.752825 0.578013 -0.641086
N2    N     N_3   0.307593 0.246696 0.421985 -0.641045
N3    N     N_3   0.307627 0.752790 0.421984 -0.641088
N4    N     N_3   0.692372 0.247088 0.578013 -0.641047
N5    N     N_3   0.192407 0.253304 0.578015 -0.641048
N6    N     N_3   0.807627 0.747175 0.421987 -0.641091
N7    N     N_3   0.807626 0.252908 0.421987 -0.641069
N8    N     N_3   0.192373 0.747210 0.578016 -0.641091
O1    O     O_3   0.000000 0.750010 0.000000 -0.437462
O2    O     O_R   0.638650 0.771350 0.042690 -0.525291
O3    O     O_R   0.638650 0.228650 0.042690 -0.525292
O4    O     O_R   0.361350 0.771350 0.957310 -0.525290
O5    O     O_R   0.050700 0.771350 0.162940 -0.541915
O6    O     O_R   0.949300 0.228650 0.837060 -0.541911
O7    O     O_R   0.949300 0.771350 0.837060 -0.541914
O8    O     O_R   0.050700 0.228650 0.162940 -0.541883
O9    O     O_R   0.550700 0.271350 0.162940 -0.541893
O10   O     O_R   0.449300 0.728650 0.837060 -0.541899
O11   O     O_R   0.449300 0.271350 0.837060 -0.541869
O12   O     O_3   0.000000 0.249990 0.000000 -0.437464
O13   O     O_R   0.550700 0.728650 0.162940 -0.541898
O14   O     O_R   0.990570 0.831470 0.042720 -0.538054
O15   O     O_R   0.009430 0.168530 0.957280 -0.538056
O16   O     O_R   0.009430 0.831470 0.957280 -0.538055
O17   O     O_R   0.990570 0.168530 0.042720 -0.538047
O18   O     O_R   0.490570 0.331470 0.042720 -0.538017
O19   O     O_R   0.509430 0.668530 0.957280 -0.538016
O20   O     O_R   0.509430 0.331470 0.957280 -0.538007
O21   O     O_R   0.490570 0.668530 0.042720 -0.538017
O22   O     O_R   0.947900 0.668550 0.957290 -0.534787
O23   O     O_3   0.500000 0.250010 0.000000 -0.437475
O24   O     O_R   0.052100 0.331450 0.042710 -0.534781
O25   O     O_R   0.052100 0.668550 0.042710 -0.534788
O26   O     O_R   0.947900 0.331450 0.957290 -0.534787
O27   O     O_R   0.447900 0.168550 0.957290 -0.534784
O28   O     O_R   0.552100 0.831450 0.042710 -0.534791
O29   O     O_R   0.552100 0.168550 0.042710 -0.534793
O30   O     O_R   0.447900 0.831450 0.957290 -0.534792
O31   O     O_R   0.112210 0.728640 0.162920 -0.531660
O32   O     O_R   0.887790 0.271360 0.837080 -0.531667
O33   O     O_R   0.887790 0.728640 0.837080 -0.531662
O34   O     O_3   0.500000 0.749990 0.000000 -0.437473
O35   O     O_R   0.112210 0.271360 0.162920 -0.531691
O36   O     O_R   0.612210 0.228640 0.162920 -0.531676
O37   O     O_R   0.387790 0.771360 0.837080 -0.531668
O38   O     O_R   0.387790 0.228640 0.837080 -0.531698
O39   O     O_R   0.612210 0.771360 0.162920 -0.531670
O40   O     O_R   0.904050 0.771360 0.042740 -0.556822
O41   O     O_R   0.095950 0.228640 0.957260 -0.556824
O42   O     O_R   0.095950 0.771360 0.957260 -0.556822
O43   O     O_R   0.904050 0.228640 0.042740 -0.556827
O44   O     O_R   0.404050 0.271360 0.042740 -0.556812
O45   O     O_R   0.861350 0.728650 0.957310 -0.525285
O46   O     O_R   0.595950 0.728640 0.957260 -0.556810
O47   O     O_R   0.595950 0.271360 0.957260 -0.556812
O48   O     O_R   0.404050 0.728640 0.042740 -0.556810
O49   O     O_R   0.138650 0.271350 0.042690 -0.525289
O50   O     O_R   0.138650 0.728650 0.042690 -0.525284
O51   O     O_R   0.861350 0.271350 0.957310 -0.525283
O52   O     O_R   0.361350 0.228650 0.957310 -0.525295
Zn1   Zn    Zn3+2 0.074440 0.719490 0.061020 0.952468
Zn2   Zn    Zn3+2 0.013440 0.219480 0.938960 0.931039
Zn3   Zn    Zn3+2 0.013440 0.780520 0.938960 0.931039
Zn4   Zn    Zn3+2 0.986560 0.219480 0.061040 0.931063
Zn5   Zn    Zn3+2 0.486560 0.280520 0.061040 0.931079
Zn6   Zn    Zn3+2 0.513440 0.719480 0.938960 0.931074
Zn7   Zn    Zn3+2 0.513440 0.280520 0.938960 0.931103
Zn8   Zn    Zn3+2 0.486560 0.719480 0.061040 0.931075
Zn9   Zn    Zn3+2 0.925560 0.280510 0.938980 0.952459
Zn10  Zn    Zn3+2 0.925560 0.719490 0.938980 0.952467
Zn11  Zn    Zn3+2 0.074440 0.280510 0.061020 0.952460
Zn12  Zn    Zn3+2 0.574440 0.219490 0.061020 0.952443
Zn13  Zn    Zn3+2 0.425560 0.780510 0.938980 0.952452
Zn14  Zn    Zn3+2 0.425560 0.219490 0.938980 0.952443
Zn15  Zn    Zn3+2 0.574440 0.780510 0.061020 0.952452
Zn16  Zn    Zn3+2 0.986560 0.780520 0.061040 0.931038

loop_
_geom_bond_atom_site_label_1
_geom_bond_atom_site_label_2
_ccdc_geom_bond_type
O9    Zn5   S    
C21   C26   S    
C115  H114  S    
C126  C127  A    
C96   C102  A    
C151  H118  S    
C11   O28   A    
C114  C115  A    
C168  H46   S    
C34   C155  S    
C201  C225  S    
C62   H71   S    
C132  H128  S    
C35   C124  S    
C34   C96   S    
C38   C159  S    
O34   Zn8   S    
H32   N8    S    
O49   Zn11  S    
C212  H51   S    
O35   Zn11  S    
C194  C197  T    
C152  H2    S    
C106  C107  A    
C143  C144  A    
C140  H8    S    
C215  C228  S    
C73   C74   A    
C161  C182  A    
C2    C90   S    
C191  C196  T    
C213  C226  S    
C162  C171  A    
C12   C16   A    
C167  O43   A    
O32   Zn9   S    
O16   Zn3   S    
C5    C231  S    
C86   H91   S    
C37   C109  S    
C126  H123  S    
C4    O14   A    
O38   Zn14  S    
C83   C88   A    
O24   Zn11  S    
C59   C60   A    
C200  O3    A    
C198  C218  S    
C18   C25   A    
C1    C113  S    
C157  H35   S    
C104  C105  A    
C221  O9    A    
C120  H119  S    
C45   C47   A    
C25   C29   S    
C77   H83   S    
C218  O32   A    
C78   H84   S    
C150  C159  S    
C180  N8    S    
C51   C52   A    
C192  C195  T    
C219  O33   A    
C43   C222  S    
C140  C141  A    
C90   C152  S    
C81   H87   S    
C208  H55   S    
C39   C135  S    
O12   Zn9   S    
C82   H88   S    
C168  C180  A    
C173  C191  S    
O34   Zn13  S    
C19   C23   A    
C43   C44   A    
O3    Zn12  S    
C55   H66   S    
O43   Zn4   S    
C208  C212  A    
C181  N7    S    
O26   Zn9   S    
C164  C173  A    
C179  N5    S    
C148  C149  A    
C112  O49   A    
C164  C179  A    
O12   Zn2   S    
C100  H103  S    
C28   C33   T    
C24   C63   S    
C22   C27   S    
O34   Zn6   S    
C56   C62   A    
C35   C152  S    
C79   C222  S    
C209  H54   S    
C184  N4    S    
C72   C73   A    
C139  C140  A    
C124  C211  S    
C38   C101  S    
C57   C154  S    
C7    O19   A    
C144  C145  A    
C5    O17   A    
C130  C131  A    
C156  O50   A    
C48   H59   S    
C64   C65   A    
C16   H1    S    
H27   N5    S    
O15   Zn2   S    
C58   H67   S    
C204  C213  A    
C217  O5    A    
C148  H15   S    
C4    O16   A    
C59   H68   S    
C2    C40   S    
C143  C149  A    
C98   C99   A    
C10   O27   A    
C42   C143  S    
C45   H57   S    
C199  C224  S    
C224  O11   A    
C79   C167  S    
C3    C228  T    
C175  C193  S    
C37   C57   S    
C211  O48   A    
C178  O44   A    
C17   H107  S    
C163  H42   S    
C159  H37   S    
C137  C142  A    
C98   H101  S    
C135  C157  S    
C6    C232  S    
O41   Zn2   S    
H19   N2    S    
C165  C177  A    
C164  H43   S    
C147  C148  A    
C128  C129  A    
C5    O15   A    
C195  C219  S    
C97   C98   A    
O12   Zn11  S    
C85   C86   A    
C101  C112  S    
C156  O42   A    
C17   C23   A    
C42   C154  S    
C121  H120  S    
C34   C35   S    
C229  C232  T    
C78   C80   A    
O30   Zn13  S    
C99   H102  S    
C210  C215  A    
C39   C151  S    
O44   Zn5   S    
O28   Zn15  S    
C40   C152  S    
C189  O2    A    
C15   H41   S    
O13   Zn8   S    
C2    C50   S    
O12   Zn4   S    
C38   C117  S    
C172  C181  A    
C63   C69   A    
O10   Zn6   S    
C107  C108  A    
C39   C222  S    
C36   C46   S    
O20   Zn7   S    
C89   C91   A    
O5    Zn16  S    
C13   C56   S    
C224  O38   A    
C12   H63   S    
C1    O45   A    
C46   C151  S    
C116  H115  S    
C202  C221  S    
C169  C177  A    
C216  C229  S    
C41   C153  S    
C127  H124  S    
C40   C124  S    
C11   O30   A    
C43   C49   A    
C167  O51   A    
C9    O24   A    
C11   C33   S    
C68   C153  S    
C76   C82   A    
C91   C92   A    
C134  H4    S    
C190  C202  T    
C165  C174  A    
C142  H10   S    
O6    Zn2   S    
C207  C214  A    
O40   Zn16  S    
C117  C122  A    
H21   N3    S    
O29   Zn12  S    
O50   Zn1   S    
O39   Zn15  S    
C83   C84   A    
C57   C83   S    
C209  C210  A    
O48   Zn8   S    
C206  H48   S    
C23   C28   S    
C214  C227  S    
H23   N4    S    
C36   C157  S    
C208  C215  A    
C9    O26   A    
O42   Zn3   S    
C182  N2    S    
C90   C156  S    
C120  C121  A    
C225  O13   A    
C168  C176  A    
C54   C55   A    
C20   H74   S    
C160  C183  A    
C102  H104  S    
C69   H77   S    
C162  C185  A    
C146  C158  S    
C149  H16   S    
C170  C179  A    
C14   C22   A    
C71   C72   A    
O27   Zn14  S    
C117  C118  A    
C56   C58   A    
C61   C62   A    
C170  C187  S    
C219  O7    A    
C68   C150  S    
H25   N4    S    
C95   H99   S    
C63   C64   A    
C119  H117  S    
C124  C155  S    
C70   C75   A    
C14   C15   A    
O1    Zn10  S    
C49   H60   S    
C57   C146  S    
C13   C159  S    
C72   H79   S    
C174  C192  S    
C10   O29   A    
C87   C88   A    
C24   C42   S    
H30   N7    S    
C113  C154  S    
C13   C41   S    
C220  O8    A    
C176  C185  A    
O19   Zn6   S    
C154  H24   S    
C77   C78   A    
C52   C53   A    
C220  O35   A    
C166  C175  A    
C93   C94   A    
C171  C188  S    
C36   C103  S    
C223  O37   A    
C79   C151  S    
C169  C186  S    
C29   C32   T    
C3    C7    S    
C112  O41   A    
H29   N6    S    
C123  C125  A    
C37   C113  S    
C20   C25   A    
C178  O52   A    
C193  C198  T    
C17   C20   A    
C39   C123  S    
C18   C19   A    
C109  C116  A    
C46   C135  S    
C147  H14   S    
C177  N6    S    
C153  H13   S    
C160  C169  A    
C146  C189  S    
O14   Zn16  S    
C70   C71   A    
O22   Zn10  S    
C166  H45   S    
C41   C137  S    
C8    C30   S    
C136  H5    S    
C19   H85   S    
C197  C217  S    
C218  O6    A    
C46   C76   S    
C145  C147  A    
C87   H92   S    
C110  H111  S    
C130  C136  A    
C84   C85   A    
C135  C200  S    
C86   C87   A    
C41   C150  S    
C14   H52   S    
C58   C59   A    
C53   C54   A    
C141  H9    S    
C61   H70   S    
C110  C111  A    
C145  H12   S    
C187  C199  T    
C60   C61   A    
C89   C95   A    
C53   H64   S    
O1    Zn3   S    
C92   H95   S    
C93   H97   S    
C66   H75   S    
C204  C207  A    
C68   C89   S    
C203  C223  S    
C189  O46   A    
C71   H78   S    
C121  C122  A    
C104  H105  S    
C206  C213  A    
C48   C49   A    
C38   C68   S    
C7    O21   A    
H17   N1    S    
C26   C31   T    
C125  C126  A    
C131  C132  A    
C42   C146  S    
O7    Zn3   S    
C44   C45   A    
O8    Zn4   S    
C1    O40   A    
C40   C130  S    
C16   C22   A    
O17   Zn4   S    
C163  C184  A    
C36   C79   S    
C174  C183  A    
C119  C120  A    
C128  H125  S    
C105  C106  A    
C84   H89   S    
C172  C190  S    
O23   Zn12  S    
C109  C110  A    
C200  O47   A    
C163  C172  A    
C204  H50   S    
C92   C93   A    
C111  C114  A    
C165  H44   S    
C94   C95   A    
C85   H90   S    
C155  H34   S    
C138  C139  A    
C114  H113  S    
C8    O22   A    
C125  H122  S    
H18   N1    S    
O33   Zn10  S    
C186  C201  T    
C6    O20   A    
C103  C104  A    
C210  H53   S    
C176  C194  S    
C47   H58   S    
C80   H86   S    
C115  C116  A    
C175  C184  A    
H26   N5    S    
C2    C155  S    
C94   H98   S    
C64   H72   S    
C74   H81   S    
O25   Zn1   S    
C81   C82   A    
C205  C206  A    
C161  H39   S    
C60   H69   S    
C162  H40   S    
O36   Zn12  S    
O47   Zn7   S    
O21   Zn8   S    
O1    Zn1   S    
C24   C158  S    
C173  C182  A    
O18   Zn5   S    
C226  C231  T    
C144  H11   S    
C111  H112  S    
C133  H3    S    
C73   H80   S    
C118  C119  A    
O31   Zn1   S    
C129  H126  S    
C212  C216  A    
C35   C70   S    
C132  C133  A    
C138  H6    S    
C103  C108  A    
O23   Zn7   S    
C107  H109  S    
O45   Zn10  S    
C150  C178  S    
H33   N8    S    
C225  O39   A    
C24   C113  S    
C217  O31   A    
O4    Zn13  S    
C123  C129  A    
C27   C30   T    
C18   H96   S    
C166  C181  A    
C183  N1    S    
C196  C220  S    
C50   C51   A    
C67   H76   S    
C44   H56   S    
C209  C216  A    
C158  H36   S    
C74   C75   A    
C139  H7    S    
C47   C48   A    
C76   C77   A    
O46   Zn6   S    
C134  C136  A    
C12   C21   A    
O37   Zn13  S    
C67   C69   A    
C4    C230  S    
C37   C158  S    
C34   C90   S    
H22   N3    S    
C99   C100  A    
C101  C153  S    
C6    O18   A    
C96   C97   A    
O1    Zn16  S    
C100  C102  A    
C54   H65   S    
C65   H73   S    
C161  C170  A    
O2    Zn15  S    
C157  C222  S    
C171  C180  A    
C13   C101  S    
O51   Zn9   S    
O52   Zn14  S    
C207  H47   S    
H28   N6    S    
C205  H49   S    
C122  H121  S    
C108  H110  S    
C105  H106  S    
O23   Zn14  S    
C80   C81   A    
C88   H93   S    
C205  C214  A    
C137  C138  A    
C188  C203  T    
C160  H38   S    
C50   C55   A    
H20   N2    S    
C141  C142  A    
C133  C134  A    
C223  O10   A    
C185  N3    S    
H31   N7    S    
O34   Zn15  S    
C66   C67   A    
O23   Zn5   S    
C118  H116  S    
C51   H61   S    
C75   H82   S    
C9    C31   S    
C97   H100  S    
C10   C32   S    
C15   C21   A    
C227  C230  T    
C106  H108  S    
C221  O36   A    
C65   C66   A    
C131  H127  S    
C52   H62   S    
C91   H94   S    
C211  O4    A    
O11   Zn7   S    
C127  C128  A    
C8    O25   A    
