data_mof_unit_54279.cif
_audit_creation_date              2012-12-10T20:21:38-0500
_audit_creation_method            fapswitch 2.2
_symmetry_space_group_name_H-M    P1
_symmetry_Int_Tables_number       1
_space_group_crystal_system       triclinic
_cell_length_a                    19.298661
_cell_length_b                    18.578579
_cell_length_c                    8.915606
_cell_angle_alpha                 90.009748
_cell_angle_beta                  91.85572
_cell_angle_gamma                 90.027444
_cell_volume                      3194.93959737

loop_
_atom_site_label
_atom_site_type_symbol
_atom_type_description
_atom_site_fract_x
_atom_site_fract_y
_atom_site_fract_z
_atom_type_partial_charge
C1    C     C_R   0.365747 0.499997 0.499099 0.924180
C2    C     C_R   0.555422 0.196969 0.566397 0.340899
C3    C     C_R   0.500000 0.842244 0.499696 -0.306837
C4    C     C_R   0.500000 0.157756 0.500305 -0.306837
C5    C     C_R   0.511403 0.962123 0.633894 -0.168793
C6    C     C_R   0.488598 0.037876 0.366107 -0.168790
C7    C     C_R   0.488578 0.962219 0.365934 -0.169437
C8    C     C_R   0.511422 0.037781 0.634066 -0.169434
C9    C     C_R   0.500020 0.076773 0.500173 0.210026
C10   C     C_R   0.499980 0.923227 0.499827 0.210028
C11   C     C_R   0.499803 0.499996 0.218609 0.931920
C12   C     C_R   0.634253 0.500003 0.500900 0.924181
C13   C     C_R   0.500197 0.500004 0.781391 0.931921
C14   C     C_1   0.499927 0.499994 0.065362 -0.181960
C15   C     C_1   0.500073 0.500006 0.934638 -0.181962
C16   C     C_R   0.745165 0.435761 0.478438 -0.300117
C17   C     C_R   0.254835 0.564239 0.521561 -0.300105
C18   C     C_R   0.254207 0.435945 0.469517 -0.326318
C19   C     C_R   0.745793 0.564056 0.530473 -0.326320
C20   C     C_R   0.817511 0.434756 0.483693 0.429991
C21   C     C_R   0.182489 0.565244 0.516301 0.429987
C22   C     C_R   0.181812 0.434811 0.472023 0.440308
C23   C     C_R   0.552734 0.727302 0.572267 0.369511
C24   C     C_R   0.818187 0.565191 0.527962 0.440307
C25   C     C_R   0.853332 0.499994 0.505652 -0.098544
C26   C     C_R   0.146668 0.500007 0.494336 -0.098550
C27   C     C_R   0.709508 0.499962 0.503092 -0.138520
C28   C     C_R   0.290492 0.500038 0.496904 -0.138524
C29   C     C_R   0.961623 0.539992 0.393354 -0.140048
C30   C     C_R   0.038377 0.460010 0.606633 -0.140052
C31   C     C_R   0.033318 0.539784 0.390054 -0.139493
C32   C     C_R   0.966681 0.460217 0.609934 -0.139488
C33   C     C_R   0.071567 0.499818 0.496740 0.221429
C34   C     C_R   0.447267 0.272697 0.427729 0.369512
C35   C     C_R   0.928433 0.500183 0.503248 0.221425
C36   C     C_3   0.834157 0.315235 0.546542 0.108430
C37   C     C_3   0.891889 0.259585 0.555378 -0.819647
C38   C     C_3   0.165838 0.684763 0.453442 0.108427
C39   C     C_3   0.108109 0.740416 0.444628 -0.819642
C40   C     C_3   0.170316 0.312316 0.517655 0.093488
C41   C     C_3   0.113267 0.256399 0.530489 -0.812590
C42   C     C_3   0.829680 0.687686 0.482332 0.093490
C43   C     C_3   0.886727 0.743604 0.469483 -0.812597
C44   C     C_3   0.662701 0.847142 0.524893 0.155717
C45   C     C_R   0.447222 0.727163 0.427697 0.368542
C46   C     C_3   0.726877 0.880703 0.599514 -0.823013
C47   C     C_3   0.337299 0.152858 0.475095 0.155718
C48   C     C_3   0.273124 0.119296 0.400470 -0.823009
C49   C     C_3   0.337160 0.847002 0.472863 0.161685
C50   C     C_3   0.272641 0.878811 0.396321 -0.829520
C51   C     C_3   0.662840 0.152998 0.527147 0.161687
C52   C     C_3   0.727357 0.121187 0.603692 -0.829521
C53   C     C_R   0.552777 0.272837 0.572306 0.368544
C54   C     C_R   0.555440 0.803145 0.565819 0.343114
C55   C     C_R   0.444561 0.196855 0.434177 0.343118
C56   C     C_R   0.444577 0.803031 0.433607 0.340898
H1    H     H_    0.716809 0.386736 0.453155 0.187234
H2    H     H_    0.480472 0.066127 0.260791 0.172683
H3    H     H_    0.480451 0.934050 0.260495 0.172910
H4    H     H_    0.519549 0.065949 0.739506 0.172913
H5    H     H_    0.786903 0.288751 0.497985 0.154736
H6    H     H_    0.824277 0.333516 0.663191 0.141299
H7    H     H_    0.939703 0.284162 0.605532 0.251279
H8    H     H_    0.876185 0.213673 0.626432 0.206491
H9    H     H_    0.902776 0.239291 0.441352 0.264310
H10   H     H_    0.175705 0.666478 0.336790 0.141291
H11   H     H_    0.213098 0.711245 0.501975 0.154741
H12   H     H_    0.283191 0.613263 0.546849 0.187238
H13   H     H_    0.097236 0.760714 0.558659 0.264306
H14   H     H_    0.123808 0.786325 0.373561 0.206489
H15   H     H_    0.060289 0.715841 0.394502 0.251288
H16   H     H_    0.189437 0.326135 0.633583 0.131828
H17   H     H_    0.212955 0.287847 0.454079 0.165306
H18   H     H_    0.093186 0.240628 0.417030 0.266227
H19   H     H_    0.134053 0.207879 0.589077 0.201737
H20   H     H_    0.070161 0.278824 0.595470 0.250437
H21   H     H_    0.787044 0.712155 0.545921 0.165310
H22   H     H_    0.810552 0.673868 0.366409 0.131830
H23   H     H_    0.282212 0.387180 0.444940 0.202093
H24   H     H_    0.929829 0.721179 0.404486 0.250431
H25   H     H_    0.865938 0.792124 0.410903 0.201739
H26   H     H_    0.906816 0.759373 0.582937 0.266229
H27   H     H_    0.586624 0.647563 0.689589 0.377389
H28   H     H_    0.413376 0.352440 0.310416 0.377392
H29   H     H_    0.413251 0.647457 0.310290 0.378099
H30   H     H_    0.586749 0.352544 0.689710 0.378102
H31   H     H_    0.644020 0.883404 0.432661 0.129412
H32   H     H_    0.677920 0.794305 0.476585 0.138921
H33   H     H_    0.747823 0.844686 0.689464 0.265116
H34   H     H_    0.717788 0.612821 0.555048 0.202096
H35   H     H_    0.767248 0.888836 0.515172 0.198375
H36   H     H_    0.713590 0.933534 0.649133 0.255722
H37   H     H_    0.322078 0.205696 0.523398 0.138923
H38   H     H_    0.355978 0.116598 0.567331 0.129411
H39   H     H_    0.286413 0.066465 0.350856 0.255722
H40   H     H_    0.232751 0.111165 0.484809 0.198375
H41   H     H_    0.252180 0.155312 0.310515 0.265117
H42   H     H_    0.355189 0.884378 0.563732 0.129793
H43   H     H_    0.322568 0.794400 0.523187 0.141269
H44   H     H_    0.252587 0.841736 0.307302 0.261112
H45   H     H_    0.931950 0.570648 0.310257 0.137534
H46   H     H_    0.231870 0.886800 0.479813 0.201807
H47   H     H_    0.285180 0.931498 0.345106 0.256190
H48   H     H_    0.677433 0.205600 0.476826 0.141267
H49   H     H_    0.644811 0.115624 0.436275 0.129792
H50   H     H_    0.714817 0.068500 0.654903 0.256190
H51   H     H_    0.768130 0.113198 0.520202 0.201805
H52   H     H_    0.747411 0.158261 0.692715 0.261113
H53   H     H_    0.068050 0.429353 0.689730 0.137530
H54   H     H_    0.059030 0.570327 0.304534 0.136510
H55   H     H_    0.940970 0.429675 0.695454 0.136515
H56   H     H_    0.519529 0.933873 0.739209 0.172680
N1    N     N_R   0.500000 0.689440 0.500000 -0.237779
N2    N     N_R   0.500000 0.310560 0.500000 -0.237782
O1    O     O_R   0.398180 0.560840 0.499960 -0.618283
O2    O     O_3   0.145500 0.627452 0.546753 -0.601365
O3    O     O_3   0.143402 0.372949 0.439589 -0.596855
O4    O     O_3   0.856598 0.627053 0.560389 -0.596858
O5    O     O_3   0.605125 0.693258 0.652447 -0.745882
O6    O     O_3   0.394877 0.306740 0.347544 -0.745881
O7    O     O_3   0.394643 0.692927 0.348308 -0.740753
O8    O     O_3   0.605355 0.307073 0.651698 -0.740754
O9    O     O_3   0.611293 0.838702 0.632663 -0.563802
O10   O     O_3   0.388709 0.161297 0.367330 -0.563802
O11   O     O_3   0.388905 0.838466 0.365914 -0.565045
O12   O     O_R   0.601820 0.439160 0.500040 -0.618288
O13   O     O_3   0.611094 0.161534 0.634093 -0.565044
O14   O     O_R   0.601820 0.560840 0.500040 -0.620140
O15   O     O_R   0.398180 0.439160 0.499960 -0.620150
O16   O     O_R   0.500000 0.560800 0.285330 -0.636291
O17   O     O_R   0.500000 0.439200 0.714670 -0.636290
O18   O     O_R   0.500000 0.560800 0.714670 -0.636582
O19   O     O_R   0.500000 0.439200 0.285330 -0.636582
O20   O     O_3   0.854500 0.372549 0.453245 -0.601368
Zn1   Zn    Zn3+2 0.500000 0.581210 0.500000 0.942552
Zn2   Zn    Zn3+2 0.500000 0.418790 0.500000 0.942551

loop_
_geom_bond_atom_site_label_1
_geom_bond_atom_site_label_2
_ccdc_geom_bond_type
C8    C9    A    
C22   O3    S    
C54   O9    S    
C32   H55   S    
C7    C10   A    
C6    H2    S    
O16   Zn1   S    
C20   O20   S    
C21   C26   A    
C6    C9    A    
C46   H33   S    
C48   H41   S    
C36   C37   S    
C48   H39   S    
C1    O15   A    
C53   O8    S    
C11   O19   A    
C23   O5    S    
C38   C39   S    
C11   C14   S    
C46   H36   S    
C20   C25   A    
C48   H40   S    
C40   H17   S    
H27   O5    S    
C41   H18   S    
C39   H14   S    
C38   H10   S    
C45   C56   A    
C18   H23   S    
C37   H9    S    
H30   O8    S    
O19   Zn2   S    
C31   C33   A    
H29   O7    S    
C44   H31   S    
C19   C27   A    
H28   O6    S    
C2    O13   S    
C16   C27   A    
C40   O3    S    
C49   H42   S    
C52   H50   S    
C50   H47   S    
C40   H16   S    
C21   O2    S    
C36   H6    S    
C7    H3    S    
C37   H7    S    
C44   C46   S    
C34   O6    S    
C30   H53   S    
C51   C52   S    
C32   C35   A    
C18   C28   A    
C24   C25   A    
C52   H51   S    
O17   Zn2   S    
O14   Zn1   S    
C49   H43   S    
C42   O4    S    
C46   H35   S    
C12   C27   S    
C45   O7    S    
C43   H24   S    
C17   C21   A    
C2    C4    A    
C41   H19   S    
O15   Zn2   S    
C38   O2    S    
C3    C56   A    
C26   C33   S    
C47   C48   S    
C16   C20   A    
C39   H13   S    
C29   H45   S    
C1    C28   S    
C56   O11   S    
C25   C35   S    
C13   O17   A    
C40   C41   S    
C42   H22   S    
C13   C15   S    
C4    C55   A    
C22   C26   A    
C43   H25   S    
C42   C43   S    
C36   H5    S    
C11   O16   A    
C37   H8    S    
C53   N2    A    
C23   C54   A    
C55   O10   S    
C17   H12   S    
N2    Zn2   S    
C47   H37   S    
C30   C33   A    
C18   C22   A    
C17   C28   A    
C24   O4    S    
C2    C53   A    
C36   O20   S    
C5    C8    A    
C50   H46   S    
C6    C7    A    
C12   O14   A    
C5    H56   S    
C34   N2    A    
C49   O11   S    
C29   C35   A    
C44   O9    S    
C50   H44   S    
C13   O18   A    
C51   O13   S    
C19   C24   A    
C51   H48   S    
C5    C10   A    
C29   C31   A    
C3    C10   S    
C8    H4    S    
C41   H20   S    
C30   C32   A    
C47   O10   S    
O1    Zn1   S    
O18   Zn1   S    
C3    C54   A    
C31   H54   S    
C16   H1    S    
C51   H49   S    
O12   Zn2   S    
C45   N1    A    
C34   C55   A    
C12   O12   A    
C38   H11   S    
C52   H52   S    
C42   H21   S    
C49   C50   S    
N1    Zn1   S    
C19   H34   S    
C43   H26   S    
C39   H15   S    
C14   C15   T    
C1    O1    A    
C23   N1    A    
C4    C9    S    
C44   H32   S    
C47   H38   S    
