data_mof_unit_40396.cif
_audit_creation_date              2012-12-10T17:17:27-0500
_audit_creation_method            fapswitch 2.2
_symmetry_space_group_name_H-M    P1
_symmetry_Int_Tables_number       1
_space_group_crystal_system       triclinic
_cell_length_a                    10.231454
_cell_length_b                    10.551026
_cell_length_c                    12.23545
_cell_angle_alpha                 91.096532
_cell_angle_beta                  109.703604
_cell_angle_gamma                 95.337492
_cell_volume                      1236.31917934

loop_
_atom_site_label
_atom_site_type_symbol
_atom_type_description
_atom_site_fract_x
_atom_site_fract_y
_atom_site_fract_z
_atom_type_partial_charge
C1    C     C_R   0.047411 0.733514 0.486974 0.956043
C2    C     C_R   0.200250 0.496445 0.839881 -0.108244
C3    C     C_2   0.058003 0.865567 0.457243 -0.379527
C4    C     C_R   0.132717 0.505325 0.714637 0.896609
C5    C     C_2   0.939496 0.921255 0.417479 -0.162549
C6    C     C_2   0.909663 0.128046 0.489430 0.006720
C7    C     C_2   0.944494 0.058265 0.410606 0.207565
C8    C     C_2   0.432321 0.514350 0.509085 0.417709
C9    C     C_2   0.566420 0.488774 0.489885 -0.213982
C10   C     C_R   0.945740 0.265602 0.501263 0.907089
C11   C     C_R   0.866300 0.490270 0.285425 0.857648
C12   C     C_R   0.418032 0.478801 0.992746 0.046324
C13   C     C_R   0.733372 0.328879 0.991279 -0.172475
C14   C     C_R   0.790634 0.469460 0.161713 -0.065476
C15   C     C_R   0.153369 0.564598 0.916634 -0.187089
C16   C     C_R   0.233327 0.579303 0.033935 -0.146781
C17   C     C_R   0.366403 0.539173 0.071792 -0.171252
C18   C     C_3   0.845192 0.066594 0.572592 -0.947540
C19   C     C_3   0.529728 0.195200 0.785974 -0.896286
C20   C     C_3   0.660041 0.659987 0.151692 -0.913041
C21   C     C_3   0.235291 0.238139 0.744643 -0.860899
C22   C     C_3   0.993767 0.115137 0.316836 -0.875938
C23   C     C_R   0.322928 0.434631 0.883634 0.044093
C24   C     C_R   0.558632 0.455241 0.021103 0.017101
C25   C     C_R   0.594867 0.361285 0.954096 0.066803
C26   C     C_R   0.491370 0.297678 0.855481 0.170902
C27   C     C_R   0.352747 0.330046 0.824080 0.177837
C28   C     C_R   0.665566 0.523023 0.114241 0.167263
C29   C     C_R   0.828262 0.378252 0.097035 -0.266218
Cl1   Cl    Cl    0.437124 0.640937 0.607015 -0.616765
H1    H     H_    0.928558 0.341000 0.130427 0.168665
H2    H     H_    0.195617 0.627961 0.094275 0.149451
H3    H     H_    0.827858 0.138979 0.631991 0.248348
H4    H     H_    0.742859 0.012964 0.522983 0.256763
H5    H     H_    0.915500 0.000465 0.626808 0.260338
H6    H     H_    0.443316 0.155022 0.707767 0.250740
H7    H     H_    0.613628 0.236071 0.754359 0.238242
H8    H     H_    0.566537 0.114915 0.841742 0.241819
H9    H     H_    0.761368 0.716778 0.163444 0.230901
H10   H     H_    0.579700 0.706664 0.084332 0.256675
H11   H     H_    0.640441 0.665541 0.235363 0.248807
H12   H     H_    0.838098 0.869091 0.404270 0.178390
H13   H     H_    0.246215 0.140529 0.776636 0.236445
H14   H     H_    0.130721 0.260268 0.742545 0.211571
H15   H     H_    0.240085 0.237287 0.655787 0.267574
H16   H     H_    0.987484 0.040783 0.249184 0.236773
H17   H     H_    0.926030 0.188538 0.273498 0.225114
H18   H     H_    0.104222 0.156888 0.353978 0.248988
H19   H     H_    0.159238 0.917514 0.469730 0.175686
H20   H     H_    0.562499 0.413334 0.426969 0.146481
H21   H     H_    0.689036 0.624444 0.604830 0.224073
H22   H     H_    0.316105 0.373723 0.398463 0.106810
H23   H     H_    0.767214 0.258174 0.944552 0.160501
H24   H     H_    0.056785 0.608438 0.885681 0.162752
H25   H     H_    0.426994 0.553716 0.163122 0.153231
N1    N     N_2   0.313640 0.446500 0.454900 -0.215118
N2    N     N_2   0.686360 0.553430 0.545150 -0.178971
O1    O     O_R   0.936910 0.692950 0.509080 -0.610771
O2    O     O_R   0.138320 0.658600 0.480130 -0.544938
O3    O     O_R   0.002900 0.525670 0.675280 -0.617140
O4    O     O_R   0.204310 0.491320 0.646330 -0.534037
O5    O     O_R   0.861680 0.341400 0.519870 -0.599454
O6    O     O_R   0.063090 0.307050 0.490920 -0.625897
O7    O     O_R   0.795690 0.508680 0.353670 -0.603461
O8    O     O_R   0.997100 0.474330 0.324720 -0.619192
Zn1   Zn    Zn3+2 0.865520 0.522940 0.519330 0.936842
Zn2   Zn    Zn3+2 0.134480 0.477060 0.480670 0.971352

loop_
_geom_bond_atom_site_label_1
_geom_bond_atom_site_label_2
_ccdc_geom_bond_type
C12   C17   A    
C6    C10   S    
C22   H18   S    
C5    H12   S    
C13   H23   S    
C6    C7    D    
H21   N2    S    
C19   H8    S    
C23   C27   A    
C16   H2    S    
C21   H14   S    
C20   C28   S    
C18   H5    S    
C17   H25   S    
C2    C4    S    
C10   O6    A    
N2    Zn1   S    
C3    C5    D    
C8    Cl1   S    
C8    N1    D    
C22   H17   S    
C3    H19   S    
O3    Zn1   S    
C29   H1    S    
N1    Zn2   S    
C1    O1    A    
C2    C15   A    
C18   H4    S    
C12   C23   A    
C4    O3    A    
C26   C27   A    
C10   O5    A    
O4    Zn2   S    
C6    C18   S    
C1    C3    S    
C13   C29   A    
C22   H16   S    
C20   H11   S    
C21   H15   S    
C19   H6    S    
C1    O2    A    
C21   C27   S    
C20   H10   S    
C11   C14   S    
O6    Zn2   S    
O8    Zn2   S    
C18   H3    S    
O5    Zn1   S    
C14   C29   A    
C15   C16   A    
C7    C22   S    
C15   H24   S    
C24   C28   A    
O2    Zn2   S    
C24   C25   A    
C19   C26   S    
C9    N2    D    
C11   O7    A    
C2    C23   A    
C5    C7    S    
C20   H9    S    
C12   C24   A    
C16   C17   A    
C19   H7    S    
C14   C28   A    
C25   C26   A    
C21   H13   S    
C11   O8    A    
C4    O4    A    
O1    Zn1   S    
C9    H20   S    
H22   N1    S    
C8    C9    S    
C13   C25   A    
O7    Zn1   S    
