data_mof_unit_58328.cif
_audit_creation_date              2012-12-11T16:06:33-0500
_audit_creation_method            fapswitch 2.2
_symmetry_space_group_name_H-M    P1
_symmetry_Int_Tables_number       1
_space_group_crystal_system       triclinic
_cell_length_a                    7.297791
_cell_length_b                    14.992931
_cell_length_c                    15.428361
_cell_angle_alpha                 89.999962
_cell_angle_beta                  90.000074
_cell_angle_gamma                 90.670862
_cell_volume                      1687.98267769

loop_
_atom_site_label
_atom_site_type_symbol
_atom_type_description
_atom_site_fract_x
_atom_site_fract_y
_atom_site_fract_z
_atom_type_partial_charge
O1    O     O_R   0.388780 0.834790 0.412340 -0.531777
O2    O     O_R   0.111220 0.165210 0.912340 -0.531779
O3    O     O_R   0.888780 0.665210 0.587660 -0.530093
O4    O     O_R   0.611220 0.334790 0.087660 -0.530093
O5    O     O_R   0.059040 0.845930 0.587040 -0.518249
O6    O     O_R   0.440960 0.154070 0.087040 -0.518249
O7    O     O_R   0.559040 0.654070 0.412960 -0.526957
O8    O     O_R   0.940960 0.345930 0.912960 -0.526955
C1    C     C_R   0.228520 0.866895 0.615749 0.680099
C2    C     C_R   0.271480 0.133104 0.115748 0.680101
C3    C     C_R   0.727642 0.632119 0.385199 0.688716
C4    C     C_R   0.772358 0.367881 0.885199 0.688717
O9    O     O_R   0.059070 0.845930 0.412970 -0.542291
O10   O     O_R   0.440930 0.154070 0.912970 -0.542296
O11   O     O_R   0.559070 0.654070 0.587030 -0.542538
O12   O     O_R   0.940930 0.345930 0.087030 -0.542538
O13   O     O_R   0.888760 0.665210 0.412340 -0.543681
O14   O     O_R   0.611240 0.334790 0.912340 -0.543681
O15   O     O_R   0.388760 0.834790 0.587660 -0.542528
O16   O     O_R   0.111240 0.165210 0.087660 -0.542530
C5    C     C_R   0.226827 0.867733 0.384844 0.667805
C6    C     C_R   0.273172 0.132266 0.884845 0.667809
C7    C     C_R   0.725775 0.634819 0.617668 0.677655
C8    C     C_R   0.774225 0.365181 0.117668 0.677651
O17   O     O_3   0.222280 0.690700 0.500000 -0.378167
O18   O     O_3   0.277720 0.309300 0.000000 -0.378165
O19   O     O_3   0.722280 0.809300 0.500000 -0.373740
O20   O     O_3   0.777720 0.190700 0.000000 -0.373748
V1    V     V_3+5 0.947430 0.761000 0.500000 1.415088
V2    V     V_3+5 0.552570 0.239000 0.000000 1.415084
V3    V     V_3+5 0.447430 0.739000 0.500000 1.407250
V4    V     V_3+5 0.052570 0.261000 0.000000 1.407249
C9    C     C_3   0.898704 0.581335 0.750396 -0.388578
C10   C     C_3   0.601295 0.418666 0.250395 -0.388581
C11   C     C_3   0.357238 0.908452 0.238322 -0.358922
C12   C     C_3   0.142787 0.091550 0.738319 -0.358937
H1    H     H_    0.021051 0.591546 0.710807 0.180141
H2    H     H_    0.478949 0.408453 0.210806 0.180142
H3    H     H_    0.495831 0.891742 0.262891 0.179976
H4    H     H_    0.004196 0.108265 0.762882 0.179991
H5    H     H_    0.881951 0.643807 0.787165 0.185677
H6    H     H_    0.618049 0.356194 0.287166 0.185680
H7    H     H_    0.297202 0.847203 0.208963 0.178335
H8    H     H_    0.202839 0.152796 0.708965 0.178331
C13   C     C_3   0.924187 0.504953 0.817261 -0.332675
C14   C     C_3   0.575809 0.495050 0.317258 -0.332679
C15   C     C_3   0.376235 0.980752 0.166731 -0.322674
C16   C     C_3   0.123793 0.019251 0.666727 -0.322684
H9    H     H_    0.938667 0.533684 0.883477 0.139152
H10   H     H_    0.561320 0.466320 0.383475 0.139154
H11   H     H_    0.332985 0.952122 0.103282 0.135386
H12   H     H_    0.167067 0.047878 0.603281 0.135388
H13   H     H_    0.051533 0.468135 0.803199 0.192926
H14   H     H_    0.448468 0.531869 0.303192 0.192928
H15   H     H_    0.522812 0.000702 0.160231 0.181747
H16   H     H_    0.977216 0.999308 0.660216 0.181750
H17   H     H_    0.881534 0.468905 0.613787 0.154457
H18   H     H_    0.618467 0.531096 0.113788 0.154458
H19   H     H_    0.461027 0.013624 0.368775 0.166332
H20   H     H_    0.038940 0.986387 0.868758 0.166333
C17   C     C_3   0.751953 0.470139 0.650962 -0.308878
C18   C     C_3   0.748050 0.529861 0.150962 -0.308874
C19   C     C_3   0.318371 0.027555 0.348430 -0.321457
C20   C     C_3   0.181597 0.972448 0.848426 -0.321458
C21   C     C_3   0.563372 0.567709 0.755157 0.028312
C22   C     C_3   0.936627 0.432290 0.255158 0.028313
C23   C     C_3   0.037915 0.957064 0.270126 0.026381
C24   C     C_3   0.462081 0.042923 0.770140 0.026396
C25   C     C_3   0.730370 0.564802 0.690556 0.076190
C26   C     C_3   0.769630 0.435198 0.190556 0.076189
C27   C     C_3   0.231524 0.939371 0.313790 0.060150
C28   C     C_3   0.268472 0.060626 0.813792 0.060144
H21   H     H_    0.573003 0.633099 0.789467 0.109922
H22   H     H_    0.926996 0.366899 0.289467 0.109920
H23   H     H_    0.001503 0.894466 0.234738 0.107210
H24   H     H_    0.498517 0.105518 0.734755 0.107211
C29   C     C_3   0.759891 0.439023 0.814390 0.057343
C30   C     C_3   0.740110 0.560977 0.314390 0.057344
C31   C     C_3   0.258324 0.063314 0.188123 0.048756
C32   C     C_3   0.241676 0.936684 0.688125 0.048748
C33   C     C_3   0.751017 0.396726 0.722137 0.020240
C34   C     C_3   0.748993 0.603274 0.222137 0.020236
C35   C     C_3   0.318343 0.101881 0.277979 0.020732
C36   C     C_3   0.181630 0.898120 0.777978 0.020731
C37   C     C_3   0.582897 0.494509 0.826584 -0.364289
C38   C     C_3   0.917099 0.505489 0.326586 -0.364288
C39   C     C_3   0.056574 0.030380 0.199178 -0.365909
C40   C     C_3   0.443427 0.969608 0.699191 -0.365897
H25   H     H_    0.584880 0.526674 0.891659 0.128872
H26   H     H_    0.915109 0.473321 0.391661 0.128873
H27   H     H_    0.004115 0.003534 0.136460 0.139299
H28   H     H_    0.495910 0.996449 0.636477 0.139308
H29   H     H_    0.461561 0.448869 0.826018 0.169745
H30   H     H_    0.038438 0.551126 0.326025 0.169742
H31   H     H_    0.969858 0.088555 0.215622 0.187325
H32   H     H_    0.530123 0.911428 0.715640 0.187326
H33   H     H_    0.647916 0.454454 0.601256 0.127313
H34   H     H_    0.852085 0.545545 0.101256 0.127313
H35   H     H_    0.250492 0.051469 0.407950 0.124211
H36   H     H_    0.249443 0.948533 0.907952 0.124216
H37   H     H_    0.623630 0.355851 0.716746 0.118584
H38   H     H_    0.876384 0.644145 0.216748 0.118586
H39   H     H_    0.219111 0.153950 0.297496 0.114871
H40   H     H_    0.280852 0.846050 0.797501 0.114870
I1    I     I_    0.965941 0.304636 0.695516 -0.578856
I2    I     I_    0.534084 0.695371 0.195514 -0.578867
I3    I     I_    0.578197 0.170587 0.277906 -0.587560
I4    I     I_    0.921774 0.829416 0.777897 -0.587561
C41   C     C_3   0.367134 0.567683 0.718445 -0.345723
C42   C     C_3   0.320381 0.493299 0.653761 -0.677749
H41   H     H_    0.376404 0.508753 0.588733 0.221902
H42   H     H_    0.366265 0.427562 0.677142 0.228354
H43   H     H_    0.171616 0.487607 0.644814 0.216341
H44   H     H_    0.276698 0.561751 0.775540 0.163201
H45   H     H_    0.332139 0.633508 0.690587 0.195410
C43   C     C_3   0.132867 0.432316 0.218447 -0.345722
C44   C     C_3   0.179622 0.506702 0.153765 -0.677759
H46   H     H_    0.123600 0.491250 0.088737 0.221903
H47   H     H_    0.133740 0.572438 0.177148 0.228352
H48   H     H_    0.328387 0.512394 0.144819 0.216338
H49   H     H_    0.223302 0.438246 0.275542 0.163203
H50   H     H_    0.167860 0.366492 0.190587 0.195413
C45   C     C_3   0.864783 0.973307 0.327305 -0.321804
C46   C     C_3   0.889316 0.037635 0.403358 -0.663651
H51   H     H_    0.974705 0.007674 0.454850 0.207901
H52   H     H_    0.949369 0.101996 0.381252 0.231626
H53   H     H_    0.753859 0.051271 0.432842 0.217682
H54   H     H_    0.754829 0.998583 0.284838 0.188723
H55   H     H_    0.804628 0.909697 0.351200 0.201431
C47   C     C_3   0.635184 0.026672 0.827330 -0.321851
C48   C     C_3   0.610620 0.962335 0.903370 -0.663703
H56   H     H_    0.525221 0.992292 0.954860 0.207890
H57   H     H_    0.550569 0.897979 0.881252 0.231635
H58   H     H_    0.746063 0.948692 0.932863 0.217703
H59   H     H_    0.745146 0.001399 0.784867 0.188744
H60   H     H_    0.695335 0.090276 0.851239 0.201458

loop_
_geom_bond_atom_site_label_1
_geom_bond_atom_site_label_2
_ccdc_geom_bond_type
H18   C18   S    
C40   H32   S    
O1    C5    A    
C39   H27   S    
O19   V1    S    
C9    C13   S    
C7    C25   S    
O3    C7    A    
C47   H59   S    
C10   H6    S    
C15   C31   S    
C32   C36   S    
C48   H58   S    
O15   V3    S    
C31   C39   S    
C8    C26   S    
C45   C46   S    
C33   H37   S    
O7    C3    A    
C35   H39   S    
C5    C27   S    
O9    V1    S    
C43   H50   S    
C44   H47   S    
O4    C8    A    
C21   C25   S    
C22   H22   S    
O1    V3    S    
O13   V1    S    
C43   C44   S    
C18   C26   S    
O2    V4    S    
O3    V1    S    
C42   H41   S    
C20   C36   S    
C19   H35   S    
C38   H30   S    
C18   H34   S    
C37   H29   S    
C1    O15   A    
C40   H28   S    
C2    O16   A    
C39   H31   S    
O2    C6    A    
C10   C14   S    
C29   C33   S    
C11   H7    S    
C10   C26   S    
C9    C25   S    
C30   C38   S    
O11   C7    A    
C18   C34   S    
C15   H15   S    
C11   C15   S    
O12   C8    A    
C45   H55   S    
C47   H60   S    
O10   V2    S    
C6    C28   S    
O5    V1    S    
C33   I1    S    
O7    V3    S    
C43   H49   S    
O8    V4    S    
C12   H4    S    
C38   H26   S    
C21   H21   S    
C14   C30   S    
C37   H25   S    
O18   V4    S    
C15   H11   S    
O11   V3    S    
C13   H13   S    
C9    H1    S    
C19   C35   S    
C24   C28   S    
C1    C32   S    
C11   H3    S    
O5    C1    A    
C3    C30   S    
C30   C34   S    
C13   H9    S    
O8    C4    A    
C4    C29   S    
C14   H14   S    
C34   H38   S    
O9    C5    A    
C24   H24   S    
C24   C47   S    
C42   H43   S    
C21   C41   S    
C22   C43   S    
C41   H44   S    
C46   H53   S    
O14   V2    S    
O6    V2    S    
C19   C27   S    
C24   C40   S    
C44   H48   S    
C23   H23   S    
C48   H56   S    
C46   H52   S    
O16   V4    S    
C17   C25   S    
C16   H16   S    
C3    O13   A    
C10   H2    S    
C23   C39   S    
O17   V3    S    
C17   H33   S    
C48   H57   S    
C23   C45   S    
C22   C38   S    
C2    C31   S    
H17   C17   S    
O12   V4    S    
C14   H10   S    
H19   C19   S    
H20   C20   S    
C9    H5    S    
C16   C32   S    
O20   V2    S    
C47   C48   S    
C20   H36   S    
C32   C40   S    
C21   C37   S    
C17   C33   S    
C44   H46   S    
C31   C35   S    
O10   C6    A    
C45   H54   S    
C22   C26   S    
C29   C37   S    
C36   H40   S    
C36   I4    S    
C35   I3    S    
C12   C16   S    
C23   C27   S    
C34   I2    S    
C42   H42   S    
C12   H8    S    
O6    C2    A    
C41   H45   S    
C11   C27   S    
C16   H12   S    
C4    O14   A    
C13   C29   S    
C41   C42   S    
O4    V2    S    
C12   C28   S    
C20   C28   S    
C46   H51   S    
