data_mof_unit_54304.cif
_audit_creation_date              2012-12-10T20:46:49-0500
_audit_creation_method            fapswitch 2.2
_symmetry_space_group_name_H-M    P1
_symmetry_Int_Tables_number       1
_space_group_crystal_system       triclinic
_cell_length_a                    12.864275
_cell_length_b                    8.927176
_cell_length_c                    8.107818
_cell_angle_alpha                 90.000031
_cell_angle_beta                  97.291096
_cell_angle_gamma                 90.000046
_cell_volume                      923.586340495

loop_
_atom_site_label
_atom_site_type_symbol
_atom_type_description
_atom_site_fract_x
_atom_site_fract_y
_atom_site_fract_z
_atom_type_partial_charge
C1    C     C_R   0.500000 0.218006 0.500000 0.910828
C2    C     C_R   0.876133 0.516028 0.706030 0.450593
C3    C     C_R   0.137945 0.588007 0.587342 0.391838
C4    C     C_R   0.862055 0.588008 0.412659 0.391843
C5    C     C_R   0.030268 0.572652 0.578534 -0.098037
C6    C     C_R   0.969732 0.572653 0.421467 -0.098035
C7    C     C_1   0.500000 0.065195 0.500000 -0.153301
C8    C     C_1   0.500000 0.934789 0.500000 -0.103673
C9    C     C_3   0.846488 0.313414 0.861290 -0.212077
C10   C     C_3   0.153494 0.313427 0.138683 -0.212070
C11   C     C_R   0.500000 0.781998 0.500000 0.972250
C12   C     C_R   0.297511 0.510815 0.467884 0.938014
C13   C     C_R   0.702489 0.510814 0.532116 0.938005
C14   C     C_R   0.814346 0.540010 0.551423 -0.319460
C15   C     C_R   0.185654 0.540012 0.448577 -0.319457
C16   C     C_R   0.017444 0.547944 0.278467 -0.166272
C17   C     C_R   0.982556 0.547940 0.721533 -0.166270
C18   C     C_R   0.123868 0.516032 0.293969 0.450593
H1    H     H_    0.971306 0.536865 0.157658 0.224320
H2    H     H_    0.187462 0.276176 0.026443 0.216496
H3    H     H_    0.028694 0.536858 0.842342 0.224318
H4    H     H_    0.700844 0.645573 0.012252 0.390948
H5    H     H_    0.299160 0.645572 0.987745 0.390948
H6    H     H_    0.930957 0.282471 0.878660 0.137530
H7    H     H_    0.804666 0.252820 0.752494 0.153073
H8    H     H_    0.812541 0.276162 0.973548 0.216492
H9    H     H_    0.069020 0.282510 0.121265 0.137536
H10   H     H_    0.195287 0.252811 0.247489 0.153065
N1    N     N_1   0.500020 0.500000 0.073640 0.005961
N2    N     N_1   0.499980 0.500000 0.926360 0.005961
O1    O     O_R   0.499990 0.285340 0.636850 -0.618458
O2    O     O_2   0.870110 0.791341 0.166907 -0.282530
O3    O     O_3   0.733765 0.578664 0.101449 -0.508962
O4    O     O_2   0.285361 0.793823 0.688848 -0.315012
O5    O     O_2   0.129889 0.791336 0.833097 -0.282526
O6    O     O_3   0.266237 0.578662 0.898550 -0.508963
O7    O     O_3   0.832559 0.469558 0.844382 -0.560587
O8    O     O_3   0.167442 0.469566 0.155617 -0.560583
O9    O     O_R   0.500010 0.714660 0.363150 -0.603930
O10   O     O_R   0.500010 0.285340 0.363150 -0.618456
O11   O     O_R   0.499990 0.714660 0.636850 -0.603931
O12   O     O_R   0.346350 0.500000 0.614250 -0.558199
O13   O     O_R   0.653650 0.500000 0.385750 -0.558197
O14   O     O_R   0.346360 0.500000 0.340500 -0.591451
O15   O     O_R   0.653640 0.500000 0.659500 -0.591457
O16   O     O_2   0.714637 0.793821 0.311154 -0.315011
S1    S     S_3+6 0.794439 0.694533 0.245827 0.043529
S2    S     S_3+6 0.205561 0.694532 0.754175 0.043531
Zn1   Zn    Zn3+2 0.499990 0.500000 0.682780 1.069614
Zn2   Zn    Zn3+2 0.500010 0.500000 0.317220 1.069617

loop_
_geom_bond_atom_site_label_1
_geom_bond_atom_site_label_2
_ccdc_geom_bond_type
C10   H9    S    
C15   C18   A    
C13   O15   A    
C9    H6    S    
O6    S2    S    
N1    N2    T    
C12   C15   S    
O15   Zn1   S    
C10   O8    S    
C9    O7    S    
C18   O8    S    
C9    H7    S    
C7    C8    T    
C12   O14   A    
C13   C14   S    
C2    C17   A    
C11   O9    A    
C2    O7    S    
C12   O12   A    
O1    Zn1   S    
C8    C11   S    
O3    S1    S    
O5    S2    D    
C4    C6    A    
N2    Zn1   S    
C9    H8    S    
C11   O11   A    
N1    Zn2   S    
C16   H1    S    
C1    O1    A    
C4    C14   A    
C5    C6    A    
C2    C14   A    
O2    S1    D    
O10   Zn2   S    
O4    S2    D    
O12   Zn1   S    
C6    C16   A    
O13   Zn2   S    
C3    S2    S    
C13   O13   A    
O9    Zn2   S    
C5    C17   A    
C16   C18   A    
H5    O6    S    
C10   H10   S    
H4    O3    S    
O16   S1    D    
C3    C15   A    
O14   Zn2   S    
C1    O10   A    
C1    C7    S    
O11   Zn1   S    
C17   H3    S    
C10   H2    S    
C3    C5    A    
C4    S1    S    
