data_mof_unit_67563.cif
_audit_creation_date              2013-03-05T15:41:21-0500
_audit_creation_method            fapswitch 2.2
_symmetry_space_group_name_H-M    P1
_symmetry_Int_Tables_number       1
_space_group_crystal_system       triclinic
_cell_length_a                    10.669136
_cell_length_b                    8.792178
_cell_length_c                    7.520093
_cell_angle_alpha                 103.295648
_cell_angle_beta                  95.298143
_cell_angle_gamma                 93.799078
_cell_volume                      680.789001142

loop_
_atom_site_label
_atom_site_type_symbol
_atom_site_description
_atom_site_fract_x
_atom_site_fract_y
_atom_site_fract_z
_atom_type_partial_charge
O1    O     O_R   0.509190 0.286130 0.619780 -0.596290
O2    O     O_R   0.490810 0.713870 0.380220 -0.596290
O3    O     O_R   0.485310 0.256770 0.308360 -0.589883
O4    O     O_R   0.514690 0.743230 0.691640 -0.589883
C1    C     C_R   0.494952 0.200467 0.453726 0.828087
C2    C     C_R   0.505047 0.799532 0.546274 0.828087
O5    O     O_R   0.328790 0.514640 0.655680 -0.599198
O6    O     O_R   0.671210 0.485360 0.344320 -0.599199
O7    O     O_R   0.304910 0.485280 0.344260 -0.574998
O8    O     O_R   0.695090 0.514720 0.655740 -0.574998
C3    C     C_R   0.260182 0.502123 0.501107 0.809450
C4    C     C_R   0.739818 0.497877 0.498893 0.809450
Cu1   Cu    Cu3+1 0.514140 0.517380 0.684380 0.996997
Cu2   Cu    Cu3+1 0.485860 0.482620 0.315620 0.996997
N1    N     N_2   0.464560 0.456420 0.038510 -0.213407
N2    N     N_2   0.535440 0.543580 0.961490 -0.213406
C5    C     C_3   0.051275 0.503031 0.670216 -0.047588
C6    C     C_3   0.948725 0.496968 0.329784 -0.047588
C7    C     C_3   0.956321 0.371353 0.550388 -0.077018
C8    C     C_3   0.043679 0.628647 0.449612 -0.077018
C9    C     C_3   0.875878 0.496427 0.497248 -0.124305
C10   C     C_3   0.124122 0.503573 0.502752 -0.124305
C11   C     C_3   0.970704 0.628037 0.617003 -0.092559
C12   C     C_3   0.029296 0.371963 0.382997 -0.092559
C13   C     C_2   0.480471 0.033372 0.430258 -0.244203
C14   C     C_2   0.519529 0.966628 0.569742 -0.244203
C15   C     C_1   0.907681 0.228718 0.600065 0.293045
N3    N     N_1   0.869390 0.115621 0.638040 -0.255766
C16   C     C_1   0.092319 0.771282 0.399935 0.293045
N4    N     N_1   0.130610 0.884379 0.361960 -0.255766
C17   C     C_1   0.108813 0.514634 0.858200 0.304918
N5    N     N_1   0.154369 0.525826 0.006725 -0.270126
C18   C     C_1   0.891187 0.485366 0.141800 0.304919
N6    N     N_1   0.845631 0.474174 0.993275 -0.270126
C19   C     C_1   0.935876 0.765267 0.749266 0.298282
N7    N     N_1   0.908025 0.872166 0.854663 -0.214230
C20   C     C_1   0.064124 0.234733 0.250734 0.298282
N8    N     N_1   0.091974 0.127834 0.145337 -0.214230
C21   C     C_1   0.382249 0.337171 0.925777 0.590852
N9    N     N_1   0.312772 0.237028 0.833907 -0.333310
C22   C     C_1   0.617751 0.662829 0.074223 0.590852
N10   N     N_1   0.687228 0.762972 0.166093 -0.333310
C23   C     C_1   0.413305 0.946395 0.255018 0.347107
N11   N     N_1   0.360017 0.878263 0.115330 -0.235855
C24   C     C_1   0.586695 0.053604 0.744982 0.347107
N12   N     N_1   0.639983 0.121737 0.884670 -0.235855

loop_
_geom_bond_atom_site_label_1
_geom_bond_atom_site_label_2
_geom_bond_distance
_ccdc_geom_bond_type
O7    Cu2   1.963295 S    
C16   N4    1.155659 T    
C6    C12   1.539809 S    
C6    C9    1.540467 S    
C7    C15   1.465129 S    
C22   N10   1.158083 T    
C3    C10   1.453720 S    
C11   C19   1.469289 S    
C5    C10   1.540467 S    
C8    C11   1.540886 S    
O6    C4    1.293233 A    
C13   C23   1.457544 S    
C12   C20   1.469289 S    
C5    C11   1.539809 S    
C24   N12   1.157884 T    
O5    C3    1.293233 A    
O7    C3    1.293774 A    
N1    C21   1.385948 S    
C2    C14   1.434919 S    
O3    Cu2   1.973476 S    
O8    C4    1.293774 A    
O1    C1    1.291086 A    
C4    C9    1.453720 S    
C10   C12   1.539753 S    
C15   N3    1.155659 T    
C7    C9    1.539301 S    
C20   N8    1.156599 T    
C8    C10   1.539301 S    
C7    C12   1.540886 S    
C6    C8    1.541051 S    
C8    C16   1.465129 S    
C9    C11   1.539753 S    
C23   N11   1.157884 T    
O2    Cu2   1.974687 S    
C6    C18   1.466556 S    
C1    C13   1.434919 S    
O1    Cu1   1.974685 S    
N1    N2    1.304934 D    
O5    Cu1   1.967291 S    
C18   N6    1.155984 T    
O4    C2    1.298276 A    
Cu1   N2    2.032764 S    
C21   N9    1.158083 T    
Cu2   N1    2.032764 S    
O6    Cu2   1.967293 S    
C14   C24   1.457544 S    
C5    C7    1.541051 S    
C13   C14   1.361275 D    
Cu1   Cu2   2.705184 S    
N2    C22   1.385948 S    
O8    Cu1   1.963295 S    
C17   N5    1.155984 T    
C5    C17   1.466556 S    
O2    C2    1.291086 A    
O4    Cu1   1.973476 S    
O3    C1    1.298276 A    
C19   N7    1.156599 T    
