data_mof_unit_7844.cif
_audit_creation_date              2012-12-10T18:18:27-0500
_audit_creation_method            fapswitch 2.2
_symmetry_space_group_name_H-M    P1
_symmetry_Int_Tables_number       1
_space_group_crystal_system       triclinic
_cell_length_a                    14.231045
_cell_length_b                    14.807155
_cell_length_c                    15.561198
_cell_angle_alpha                 86.892207
_cell_angle_beta                  68.209553
_cell_angle_gamma                 90.012165
_cell_volume                      3039.56888889

loop_
_atom_site_label
_atom_site_type_symbol
_atom_type_description
_atom_site_fract_x
_atom_site_fract_y
_atom_site_fract_z
_atom_type_partial_charge
Br1   Br    Br    0.217374 0.343021 0.621395 -0.328427
Br2   Br    Br    0.876522 0.474052 0.993592 -0.309212
Br3   Br    Br    0.326256 0.420289 0.220182 -0.442182
Br4   Br    Br    0.665095 0.613150 0.779259 -0.481082
Br5   Br    Br    0.406402 0.245463 0.699984 -0.490307
Br6   Br    Br    0.567256 0.767997 0.302102 -0.481049
Br7   Br    Br    0.533897 0.255756 0.310919 -0.518262
Br8   Br    Br    0.459062 0.731745 0.696869 -0.524355
Br9   Br    Br    0.782137 0.643343 0.364609 -0.396434
Br10  Br    Br    0.330123 0.638974 0.358787 -0.476606
Br11  Br    Br    0.668077 0.355062 0.631345 -0.534026
Br12  Br    Br    0.016154 0.637773 0.246055 -0.380292
Br13  Br    Br    0.003648 0.391723 0.766033 -0.376317
Br14  Br    Br    0.802167 0.438781 0.220876 -0.331908
Br15  Br    Br    0.197239 0.562829 0.772702 -0.328724
Br16  Br    Br    0.123162 0.556043 0.000481 -0.277052
C1    C     C_R   0.500373 0.673084 0.499542 1.008679
C2    C     C_R   0.501914 0.769313 0.501774 -0.148198
C3    C     C_R   0.543769 0.189794 0.418351 0.137467
C4    C     C_R   0.472894 0.808175 0.587595 0.130824
C5    C     C_R   0.571556 0.098609 0.418509 0.023236
C6    C     C_R   0.474244 0.902617 0.589396 0.018566
C7    C     C_R   0.533568 0.047714 0.504830 -0.044290
C8    C     C_R   0.528681 0.953549 0.505599 -0.050507
C9    C     C_R   0.496039 0.090240 0.590078 -0.001123
C10   C     C_R   0.574736 0.910970 0.421819 0.017821
C11   C     C_R   0.637663 0.055631 0.338803 0.079956
C12   C     C_R   0.499997 0.327069 0.500722 1.009933
C13   C     C_R   0.430828 0.947999 0.672349 0.099221
C14   C     C_R   0.647023 0.960365 0.345956 0.143694
C15   C     C_R   0.466295 0.035932 0.673532 0.095134
C16   C     C_R   0.435986 0.501676 0.675725 0.997661
C17   C     C_R   0.563952 0.498886 0.324270 0.988901
C18   C     C_R   0.176215 0.443912 0.561741 0.388101
C19   C     C_R   0.823642 0.556198 0.438811 0.378370
C20   C     C_R   0.223637 0.563913 0.445483 0.328008
C21   C     C_R   0.772917 0.441040 0.561188 0.332818
C22   C     C_R   0.121859 0.568619 0.447161 -0.061921
C23   C     C_R   0.378642 0.489160 0.102352 0.239257
C24   C     C_R   0.871012 0.443225 0.569619 -0.059036
C25   C     C_R   0.047649 0.506253 0.506906 -0.022374
C26   C     C_R   0.946837 0.502933 0.505989 -0.019266
C27   C     C_R   0.072762 0.451330 0.571399 -0.117799
C28   C     C_R   0.924566 0.555976 0.437409 -0.116462
C29   C     C_R   0.090006 0.631781 0.391326 0.077561
C30   C     C_R   0.897649 0.392239 0.639366 0.047612
C31   C     C_R   0.003377 0.611057 0.373045 0.271096
C32   C     C_R   0.993438 0.406991 0.644963 0.276086
C33   C     C_R   0.395455 0.510281 0.776629 -0.152869
C34   C     C_R   0.617566 0.545794 0.897881 0.220772
C35   C     C_R   0.604132 0.497493 0.222708 -0.165260
C36   C     C_R   0.263147 0.535180 0.926321 0.256795
C37   C     C_R   0.736054 0.487422 0.070079 0.243033
C38   C     C_R   0.294096 0.532674 0.829321 0.273227
C39   C     C_R   0.705380 0.478349 0.167376 0.261608
C40   C     C_R   0.464891 0.502203 0.820023 -0.171446
C41   C     C_R   0.535040 0.514367 0.180378 -0.160030
C42   C     C_R   0.439128 0.520686 0.912183 0.064649
C43   C     C_R   0.559462 0.505137 0.086847 0.056797
C44   C     C_R   0.335438 0.524239 0.968159 -0.042461
C45   C     C_R   0.306448 0.508096 0.063780 -0.145576
C46   C     C_R   0.663063 0.504600 0.029820 -0.027008
C47   C     C_R   0.513825 0.524516 0.951530 0.005966
C48   C     C_R   0.483542 0.506523 0.048427 -0.008689
C49   C     C_3   0.131218 0.728611 0.363655 -0.354383
C50   C     C_3   0.130767 0.779273 0.447566 -0.356620
C51   C     C_3   0.177201 0.874206 0.417937 -0.787340
C52   C     C_3   0.832733 0.318104 0.707703 -0.343465
C53   C     C_3   0.754244 0.356219 0.795053 -0.271284
C54   C     C_3   0.678398 0.283606 0.854332 -0.843005
C55   C     C_3   0.705673 0.109036 0.250965 -0.382540
C56   C     C_R   0.690867 0.528993 0.935655 -0.212802
C57   C     C_3   0.669477 0.097781 0.170415 -0.315496
C58   C     C_3   0.726733 0.162363 0.087437 -0.768923
C59   C     C_3   0.337061 0.912315 0.753161 -0.389340
C60   C     C_3   0.248217 0.977188 0.771205 -0.372562
C61   C     C_3   0.153454 0.939283 0.849792 -0.777369
C62   C     C_3   0.746336 0.915380 0.290642 -0.367073
C63   C     C_3   0.831787 0.937790 0.325157 -0.386323
C64   C     C_3   0.810208 0.899924 0.424229 -0.751466
C65   C     C_3   0.487942 0.062915 0.757498 -0.394468
C66   C     C_3   0.558853 0.995715 0.780577 -0.353378
C67   C     C_R   0.480704 0.183568 0.588518 0.182501
C68   C     C_3   0.582431 0.023671 0.863487 -0.825856
C69   C     C_R   0.549696 0.820247 0.418482 0.164528
C70   C     C_R   0.502645 0.230803 0.502828 -0.129825
H1    H     H_    0.227447 0.499162 0.107877 0.229970
H2    H     H_    0.205489 0.731569 0.305741 0.259215
H3    H     H_    0.081829 0.767975 0.334965 0.216298
H4    H     H_    0.633745 0.257051 0.815603 0.289618
H5    H     H_    0.718559 0.227186 0.874799 0.255167
H6    H     H_    0.625487 0.313146 0.918037 0.261338
H7    H     H_    0.793131 0.383875 0.838016 0.259086
H8    H     H_    0.713091 0.412519 0.776316 0.256207
H9    H     H_    0.801594 0.269909 0.672950 0.228305
H10   H     H_    0.880995 0.271680 0.731083 0.215501
H11   H     H_    0.713225 0.233743 0.106608 0.292597
H12   H     H_    0.769384 0.541763 0.891826 0.222846
H13   H     H_    0.809216 0.149656 0.062604 0.265375
H14   H     H_    0.699870 0.151573 0.030234 0.239077
H15   H     H_    0.681311 0.027317 0.148182 0.218519
H16   H     H_    0.587203 0.110367 0.192585 0.271087
H17   H     H_    0.712317 0.181119 0.263540 0.252158
H18   H     H_    0.785008 0.087199 0.228891 0.187831
H19   H     H_    0.129611 0.873721 0.831911 0.277763
H20   H     H_    0.168202 0.929148 0.914889 0.268412
H21   H     H_    0.090856 0.987605 0.861379 0.257501
H22   H     H_    0.267578 0.043988 0.790063 0.256636
H23   H     H_    0.461532 0.538455 0.220369 0.241382
H24   H     H_    0.231187 0.987763 0.707217 0.243083
H25   H     H_    0.309674 0.847506 0.737682 0.255929
H26   H     H_    0.354522 0.901249 0.816738 0.227122
H27   H     H_    0.746911 0.936186 0.474346 0.255356
H28   H     H_    0.790820 0.826651 0.431536 0.289225
H29   H     H_    0.878466 0.909381 0.441499 0.238594
H30   H     H_    0.902803 0.907821 0.278494 0.242088
H31   H     H_    0.845518 0.011772 0.322318 0.222343
H32   H     H_    0.739209 0.840864 0.295940 0.271048
H33   H     H_    0.770405 0.934800 0.215675 0.185276
H34   H     H_    0.539963 0.478757 0.782004 0.220412
H35   H     H_    0.622567 0.090314 0.847538 0.257433
H36   H     H_    0.511505 0.027676 0.925354 0.271365
H37   H     H_    0.631874 0.972891 0.879524 0.266362
H38   H     H_    0.524020 0.926727 0.797067 0.255883
H39   H     H_    0.630948 0.992719 0.719583 0.237633
H40   H     H_    0.527818 0.129623 0.743189 0.253119
H41   H     H_    0.416168 0.067047 0.818367 0.227026
H42   H     H_    0.257316 0.870474 0.369809 0.289193
H43   H     H_    0.133952 0.914102 0.383129 0.255337
H44   H     H_    0.175040 0.909292 0.479910 0.253085
H45   H     H_    0.051418 0.784633 0.497163 0.226653
H46   H     H_    0.173579 0.742485 0.484716 0.257982
N1    N     N_R   0.249980 0.499930 0.499960 -0.148172
N2    N     N_R   0.750020 0.500070 0.500040 -0.140930
O1    O     O_R   0.419720 0.632140 0.499980 -0.581314
O2    O     O_R   0.580280 0.367860 0.500020 -0.581423
O3    O     O_R   0.580270 0.632160 0.499970 -0.572364
O4    O     O_R   0.419730 0.367840 0.500030 -0.554464
O5    O     O_R   0.373870 0.499980 0.632250 -0.568703
O6    O     O_R   0.626130 0.500020 0.367750 -0.562874
O7    O     O_R   0.534420 0.500000 0.632240 -0.573087
O8    O     O_R   0.465580 0.500000 0.367760 -0.570607
Zn1   Zn    Zn3+2 0.392800 0.499980 0.500010 1.097486
Zn2   Zn    Zn3+2 0.607200 0.500020 0.499990 1.087211

loop_
_geom_bond_atom_site_label_1
_geom_bond_atom_site_label_2
_ccdc_geom_bond_type
C9    C15   A    
C55   H18   S    
C6    C13   A    
C65   H40   S    
C40   H34   S    
C25   C26   A    
C54   H5    S    
C3    C70   A    
C20   N1    A    
C65   C66   S    
C56   H12   S    
C68   H37   S    
C24   C30   A    
C23   C48   A    
C59   H26   S    
Br8   C4    S    
Br6   C69   S    
C61   H20   S    
C3    C5    A    
C8    C10   A    
C21   C24   A    
C53   H7    S    
O4    Zn1   S    
Br5   C67   S    
C41   C43   A    
C17   O6    A    
C42   C44   A    
C33   C38   A    
Br7   C3    S    
C57   C58   S    
C29   C31   A    
Br11  C21   S    
C34   C56   A    
C22   C29   A    
C45   H1    S    
O5    Zn1   S    
C41   H23   S    
C52   C53   S    
C1    O1    A    
C7    C8    A    
C35   C41   A    
C36   C44   A    
C27   C32   A    
C2    C4    A    
C28   C31   A    
O1    Zn1   S    
C50   C51   S    
C5    C11   A    
Br3   C23   S    
C60   H22   S    
C63   H30   S    
C65   H41   S    
C11   C14   A    
C34   C47   A    
C25   C27   A    
C54   H4    S    
C26   C28   A    
Br12  C31   S    
C19   N2    A    
C66   H38   S    
C36   C38   A    
Br1   C18   S    
C58   H11   S    
C50   H46   S    
C37   C39   A    
C23   C45   A    
C30   C32   A    
N1    Zn1   S    
C2    C69   A    
O8    Zn1   S    
C52   H9    S    
Br15  C38   S    
Br16  C36   S    
C61   H21   S    
C12   O4    A    
C60   C61   S    
C16   O5    A    
C53   H8    S    
O7    Zn2   S    
C55   C57   S    
C62   C63   S    
C58   H14   S    
C18   N1    A    
C68   H35   S    
C63   C64   S    
Br4   C34   S    
C44   C45   A    
C49   H3    S    
C59   C60   S    
C66   H39   S    
C30   C52   S    
C37   C46   A    
C64   H29   S    
C1    C2    S    
C43   C48   A    
C46   C56   A    
C52   H10   S    
C19   C28   A    
C16   O7    A    
C22   C25   A    
C60   H24   S    
C57   H16   S    
O3    Zn2   S    
C4    C6    A    
C10   C14   A    
C66   C68   S    
C5    C7    A    
C12   C70   S    
C6    C8    A    
C51   H44   S    
C20   C22   A    
C11   C55   S    
C49   H2    S    
Br9   C19   S    
C50   H45   S    
C42   C47   A    
C55   H17   S    
C43   C46   A    
C57   H15   S    
C62   H32   S    
C12   O2    A    
C54   H6    S    
C18   C27   A    
O6    Zn2   S    
C51   H43   S    
C64   H28   S    
Br2   C37   S    
Br13  C32   S    
C1    O3    A    
C58   H13   S    
C13   C59   S    
C17   O8    A    
C17   C35   S    
C33   C40   A    
C59   H25   S    
C15   C65   S    
C61   H19   S    
C62   H33   S    
C13   C15   A    
C51   H42   S    
C29   C49   S    
C10   C69   A    
C63   H31   S    
C24   C26   A    
C40   C42   A    
Br14  C39   S    
C35   C39   A    
C7    C9    A    
C53   C54   S    
C16   C33   S    
N2    Zn2   S    
C47   C48   A    
C14   C62   S    
C67   C70   A    
C64   H27   S    
O2    Zn2   S    
C49   C50   S    
C9    C67   A    
C21   N2    A    
Br10  C20   S    
C68   H36   S    
