data_mof_unit_54824.cif
_audit_creation_date              2012-12-11T14:27:06-0500
_audit_creation_method            fapswitch 2.2
_symmetry_space_group_name_H-M    P1
_symmetry_Int_Tables_number       1
_space_group_crystal_system       triclinic
_cell_length_a                    15.025448
_cell_length_b                    14.860891
_cell_length_c                    14.964678
_cell_angle_alpha                 109.515128
_cell_angle_beta                  109.547611
_cell_angle_gamma                 109.321324
_cell_volume                      2573.20757789

loop_
_atom_site_label
_atom_site_type_symbol
_atom_type_description
_atom_site_fract_x
_atom_site_fract_y
_atom_site_fract_z
_atom_type_partial_charge
C1    C     C_R   0.927785 0.743095 0.020833 -0.121079
C2    C     C_R   0.211429 0.803445 0.299796 0.649834
C3    C     C_R   0.953433 0.406301 0.220824 -0.112088
C4    C     C_R   0.778695 0.236938 0.685668 -0.144388
C5    C     C_R   0.313760 0.592814 0.065962 0.024358
C6    C     C_R   0.013069 0.497740 0.323988 0.119710
C7    C     C_R   0.326404 0.501310 0.046845 0.076105
C8    C     C_R   0.300099 0.868941 0.296241 0.012047
C9    C     C_R   0.955685 0.142605 0.953251 0.137501
C10   C     C_3   0.528359 0.480375 0.954140 -0.463151
C11   C     C_3   0.425903 0.482585 0.948382 0.273989
C12   C     C_R   0.675984 0.204061 0.674108 0.188910
C13   C     C_3   0.541952 0.410874 0.088630 -0.400412
C14   C     C_3   0.633949 0.614629 0.158251 -0.469378
C15   C     C_3   0.603209 0.501506 0.067951 0.263499
C16   C     C_R   0.097204 0.590695 0.794054 -0.135864
C17   C     C_3   0.428229 0.503105 0.059009 0.098631
C18   C     C_3   0.436194 0.409274 0.079669 -0.417144
C19   C     C_3   0.531114 0.615398 0.154917 0.362163
C20   C     C_2   0.382116 0.060024 0.447343 0.693525
C21   C     C_2   0.382237 0.985952 0.365917 -0.315604
C22   C     C_2   0.490631 0.147715 0.546230 -0.364629
C23   C     C_R   0.070264 0.499310 0.703304 0.134544
C24   C     C_2   0.575137 0.129294 0.571788 -0.242335
C25   C     C_2   0.070573 0.410328 0.535393 -0.121348
C26   C     C_2   0.113125 0.501374 0.630024 -0.120210
C27   C     C_2   0.057797 0.417506 0.437402 -0.103456
C28   C     C_R   0.699936 0.408707 0.002759 -0.149088
C29   C     C_2   0.043159 0.498187 0.426133 -0.200003
C30   C     C_2   0.924285 0.959457 0.842714 -0.105497
C31   C     C_2   0.928518 0.031152 0.929538 -0.194412
C32   C     C_2   0.923552 0.858511 0.836119 -0.095947
C33   C     C_2   0.887370 0.814229 0.890082 -0.177694
C34   C     C_R   0.699330 0.500404 0.065398 0.057965
C35   C     C_R   0.006022 0.408207 0.702991 -0.115553
C36   C     C_R   0.791600 0.591494 0.095785 -0.147907
C37   C     C_R   0.686328 0.240123 0.776991 -0.132679
C38   C     C_R   0.020738 0.743564 0.930929 -0.109046
C39   C     C_R   0.941405 0.766026 0.942410 0.118561
C40   C     C_3   0.255406 0.849172 0.474852 -0.261540
C41   C     C_3   0.291482 0.118447 0.534071 -0.185027
C42   C     C_R   0.036768 0.590067 0.313041 -0.148414
C43   C     C_R   0.224440 0.408517 0.971868 -0.142816
C44   C     C_R   0.296686 0.802699 0.204574 -0.252192
C45   C     C_R   0.919563 0.202891 0.008010 -0.146044
C46   C     C_R   0.008540 0.201423 0.914778 -0.121509
Cl1   Cl    Cl    0.411713 0.581628 0.909582 -0.714102
Cl2   Cl    Cl    0.538586 0.646791 0.284927 -0.689609
H1    H     H_    0.871540 0.751065 0.048419 0.103601
H2    H     H_    0.798943 0.219024 0.621330 0.105315
H3    H     H_    0.354324 0.400919 0.880837 0.095551
H4    H     H_    0.520571 0.328279 0.027862 0.150396
H5    H     H_    0.366117 0.327464 0.011241 0.143235
H6    H     H_    0.691688 0.632479 0.239927 0.207766
H7    H     H_    0.675314 0.681837 0.144554 0.145553
H8    H     H_    0.529651 0.684045 0.141378 0.105270
H9    H     H_    0.594673 0.426981 0.171377 0.189254
H10   H     H_    0.433817 0.417986 0.155439 0.231080
H11   H     H_    0.159003 0.674294 0.826846 0.104452
H12   H     H_    0.204880 0.323729 0.932768 0.089928
H13   H     H_    0.454628 0.007764 0.357973 0.119815
H14   H     H_    0.500211 0.223285 0.603083 0.158641
H15   H     H_    0.570617 0.054778 0.519826 0.148371
H16   H     H_    0.025339 0.328968 0.522641 0.118556
H17   H     H_    0.164148 0.581844 0.643949 0.132550
H18   H     H_    0.045890 0.348794 0.369063 0.129606
H19   H     H_    0.051279 0.565900 0.492167 0.129409
H20   H     H_    0.938330 0.982277 0.784946 0.124039
H21   H     H_    0.917662 0.011137 0.989860 0.135790
H22   H     H_    0.972319 0.835001 0.804405 0.116270
H23   H     H_    0.345453 0.830284 0.169932 0.145973
H24   H     H_    0.643594 0.323475 0.971158 0.087352
H25   H     H_    0.832096 0.832119 0.914568 0.137902
H26   H     H_    0.984061 0.324000 0.653421 0.085478
H27   H     H_    0.823154 0.676592 0.153151 0.106693
H28   H     H_    0.621665 0.223996 0.796420 0.098089
H29   H     H_    0.050561 0.751045 0.875989 0.091644
H30   H     H_    0.070118 0.672484 0.376287 0.153361
H31   H     H_    0.338805 0.918015 0.512695 0.150803
H32   H     H_    0.259382 0.772524 0.461310 0.122483
H33   H     H_    0.227150 0.867913 0.534861 0.164221
H34   H     H_    0.862200 0.173224 0.033725 0.095732
H35   H     H_    0.329761 0.204816 0.551361 0.128043
H36   H     H_    0.336247 0.110714 0.604675 0.111754
H37   H     H_    0.208434 0.095022 0.521968 0.172475
H38   H     H_    0.033985 0.172031 0.856835 0.083767
H39   H     H_    0.915556 0.320774 0.199031 0.091674
H40   H     H_    0.375516 0.678584 0.115096 0.110715
H41   H     H_    0.504170 0.398574 0.888774 0.140883
H42   H     H_    0.573519 0.543108 0.937494 0.215982
N1    N     N_R   0.993980 0.704500 0.053430 -0.047585
N2    N     N_R   0.053690 0.556380 0.849240 -0.044303
N3    N     N_R   0.790390 0.443640 0.997160 -0.037818
N4    N     N_R   0.998260 0.443670 0.792970 -0.044844
N5    N     N_R   0.845830 0.556350 0.053430 -0.038224
N6    N     N_R   0.792820 0.295510 0.849240 -0.047220
N7    N     N_R   0.051260 0.704510 0.997160 -0.049243
N8    N     N_R   0.001740 0.556330 0.207030 -0.040950
N9    N     N_R   0.154170 0.443650 0.946570 -0.039188
N10   N     N_R   0.207180 0.704490 0.150760 -0.077656
N11   N     N_R   0.948740 0.295490 0.002840 -0.042019
N12   N     N_R   0.006020 0.295500 0.946570 -0.042936
N13   N     N_R   0.149890 0.704480 0.207030 -0.109640
N14   N     N_R   0.946310 0.443620 0.150760 -0.045602
N15   N     N_R   0.209610 0.556360 0.002840 -0.043428
N16   N     N_R   0.850110 0.295520 0.792970 -0.047112
Ni1   Ni    Ni4+2 0.997880 0.629240 0.129060 0.252024
Ni2   Ni    Ni4+2 0.002120 0.370760 0.870940 0.215543
Ni3   Ni    Ni4+2 0.129260 0.629260 0.000000 0.224187
Ni4   Ni    Ni4+2 0.870740 0.370740 0.000000 0.209337
O1    O     O_3   0.181311 0.836451 0.376974 -0.599627
O2    O     O_3   0.282036 0.046790 0.437198 -0.574350

loop_
_geom_bond_atom_site_label_1
_geom_bond_atom_site_label_2
_ccdc_geom_bond_type
C3    N14   A    
C19   H8    S    
N14   Ni4   S    
C35   H26   S    
C9    C45   A    
N11   N12   A    
C27   C29   D    
C11   Cl1   S    
C45   H34   S    
C3    C6    A    
C5    N15   A    
N9    Ni2   S    
C46   N12   A    
N4    Ni2   S    
C33   C39   S    
C13   C18   S    
C43   N9    A    
C10   C15   S    
C42   N8    A    
C30   C31   D    
N2    Ni3   S    
C13   H9    S    
C41   H35   S    
C44   H23   S    
C23   C26   S    
C12   C37   A    
N15   Ni3   S    
C18   H5    S    
C20   O2    S    
C5    H40   S    
C18   H10   S    
C10   H41   S    
C7    C17   S    
C41   O2    S    
C40   H32   S    
N12   Ni2   S    
C7    C43   A    
C4    C12   A    
C15   C34   S    
C21   H13   S    
N3    Ni4   S    
C16   C23   A    
C14   H7    S    
C28   C34   A    
N10   Ni3   S    
C1    N1    A    
C29   H19   S    
C28   H24   S    
C38   N7    A    
C40   H33   S    
C8    C21   S    
C40   O1    S    
N9    N15   A    
C2    O1    S    
C3    H39   S    
N1    Ni1   S    
C5    C7    A    
C1    C39   A    
C19   Cl2   S    
C45   N11   A    
C32   H22   S    
C25   C26   D    
C41   H36   S    
C4    N16   A    
N10   N13   A    
N8    Ni1   S    
C37   N6    A    
C4    H2    S    
C28   N3    A    
C25   H16   S    
C36   H27   S    
C22   H14   S    
C13   H4    S    
N7    Ni3   S    
C31   H21   S    
N2    N4    A    
C17   C18   S    
C40   H31   S    
N1    N7    A    
N5    Ni1   S    
C43   H12   S    
C33   H25   S    
C14   H6    S    
C37   H28   S    
C20   C22   S    
C16   N2    A    
C24   H15   S    
C23   C35   A    
C13   C15   S    
C22   C24   D    
C35   N4    A    
N6    N16   A    
C11   C17   S    
C26   H17   S    
C14   C19   S    
C2    C8    A    
C8    C44   A    
C42   H30   S    
C38   H29   S    
C25   C27   S    
C41   H37   S    
C12   C24   S    
C32   C33   D    
N11   Ni4   S    
C27   H18   S    
C30   C32   S    
C44   N10   A    
C36   N5    A    
C38   C39   A    
N16   Ni2   S    
C2    N13   A    
N8    N14   A    
C17   C19   S    
C34   C36   A    
C11   H3    S    
C10   C11   S    
C9    C31   S    
C9    C46   A    
C6    C29   S    
C20   C21   D    
C10   H42   S    
N3    N5    A    
C6    C42   A    
N6    Ni4   S    
C14   C15   S    
N13   Ni1   S    
C1    H1    S    
C16   H11   S    
C30   H20   S    
C46   H38   S    
