data_mof_unit_43888.cif
_audit_creation_date              2012-12-11T16:44:22-0500
_audit_creation_method            fapswitch 2.2
_symmetry_space_group_name_H-M    P1
_symmetry_Int_Tables_number       1
_space_group_crystal_system       triclinic
_cell_length_a                    27.222138
_cell_length_b                    7.2043
_cell_length_c                    22.805636
_cell_angle_alpha                 89.997007
_cell_angle_beta                  101.411663
_cell_angle_gamma                 89.996806
_cell_volume                      4384.14192393

loop_
_atom_site_label
_atom_site_type_symbol
_atom_type_description
_atom_site_fract_x
_atom_site_fract_y
_atom_site_fract_z
_atom_type_partial_charge
O1    O     O_R   0.707300 0.594030 0.176840 -0.533480
O2    O     O_R   0.292700 0.405970 0.823160 -0.533480
O3    O     O_R   0.792700 0.094030 0.323160 -0.533485
O4    O     O_R   0.207300 0.905970 0.676840 -0.533485
O5    O     O_R   0.697330 0.262360 0.295660 -0.540390
O6    O     O_R   0.302670 0.737640 0.704340 -0.540389
O7    O     O_R   0.802670 0.762360 0.204340 -0.540387
O8    O     O_R   0.197330 0.237640 0.795660 -0.540387
C1    C     C_R   0.684697 0.432533 0.311633 0.706885
C2    C     C_R   0.315303 0.567467 0.688367 0.706885
C3    C     C_R   0.815303 0.932532 0.188367 0.706907
C4    C     C_R   0.184697 0.067468 0.811633 0.706906
O9    O     O_R   0.701410 0.264250 0.175600 -0.534665
O10   O     O_R   0.298590 0.735750 0.824400 -0.534665
O11   O     O_R   0.798590 0.764250 0.324400 -0.534673
O12   O     O_R   0.201410 0.235750 0.675600 -0.534673
O13   O     O_R   0.796800 0.094950 0.202240 -0.539074
O14   O     O_R   0.203200 0.905050 0.797760 -0.539073
O15   O     O_R   0.703200 0.594950 0.297760 -0.539072
O16   O     O_R   0.296800 0.405050 0.702240 -0.539073
C5    C     C_R   0.689752 0.432531 0.153502 0.685361
C6    C     C_R   0.310248 0.567469 0.846498 0.685361
C7    C     C_R   0.810249 0.932513 0.346499 0.685358
C8    C     C_R   0.189751 0.067487 0.653501 0.685358
O17   O     O_3   0.781290 0.427390 0.258880 -0.373681
O18   O     O_3   0.218710 0.572610 0.741120 -0.373681
O19   O     O_3   0.718710 0.927390 0.241120 -0.373672
O20   O     O_3   0.281290 0.072610 0.758880 -0.373672
V1    V     V_3+5 0.744190 0.152150 0.248350 1.417072
V2    V     V_3+5 0.255810 0.847850 0.751650 1.417073
V3    V     V_3+5 0.755810 0.652150 0.251650 1.417081
V4    V     V_3+5 0.244190 0.347850 0.748350 1.417081
C9    C     C_R   0.154724 0.062503 0.595208 -0.037812
C10   C     C_R   0.845275 0.937497 0.404792 -0.037812
C11   C     C_R   0.345272 0.562392 0.904789 -0.037735
C12   C     C_R   0.654728 0.437608 0.095211 -0.037736
C13   C     C_R   0.138911 0.124701 0.488992 -0.158857
C14   C     C_R   0.861089 0.875299 0.511008 -0.158857
C15   C     C_R   0.361028 0.623630 0.011059 -0.158827
C16   C     C_R   0.638972 0.376371 0.988941 -0.158828
C17   C     C_R   0.171852 0.115939 0.543977 -0.164098
C18   C     C_R   0.828148 0.884061 0.456023 -0.164097
C19   C     C_R   0.328103 0.615172 0.956057 -0.164155
C20   C     C_R   0.671896 0.384828 0.043943 -0.164154
C21   C     C_R   0.103793 0.018322 0.591116 -0.210866
C22   C     C_R   0.896207 0.981678 0.408884 -0.210866
C23   C     C_R   0.396224 0.518578 0.908860 -0.210838
C24   C     C_R   0.603775 0.481421 0.091140 -0.210838
C25   C     C_R   0.068993 0.029441 0.535496 0.085644
C26   C     C_R   0.931006 0.970559 0.464504 0.085644
C27   C     C_R   0.431004 0.529371 0.964502 0.085659
C28   C     C_R   0.568996 0.470629 0.035498 0.085659
C29   C     C_R   0.087893 0.083368 0.484327 0.135986
C30   C     C_R   0.912107 0.916632 0.515673 0.135986
C31   C     C_R   0.412065 0.582614 0.015708 0.135988
C32   C     C_R   0.587935 0.417386 0.984292 0.135987
C33   C     C_R   0.016286 0.991602 0.528835 0.056720
C34   C     C_R   0.983713 0.008398 0.471165 0.056720
C35   C     C_R   0.483726 0.491817 0.971151 0.056723
C36   C     C_R   0.516274 0.508183 0.028849 0.056724
C37   C     C_R   0.004968 0.061858 0.422111 -0.182471
C38   C     C_R   0.995032 0.938141 0.577889 -0.182471
C39   C     C_R   0.494981 0.560947 0.077940 -0.182468
C40   C     C_R   0.505019 0.439053 0.922060 -0.182467
C41   C     C_R   0.055844 0.098037 0.428711 -0.195376
C42   C     C_R   0.944156 0.901963 0.571289 -0.195376
C43   C     C_R   0.444091 0.596877 0.071350 -0.195382
C44   C     C_R   0.555909 0.403123 0.928650 -0.195382
H1    H     H_    0.070269 0.139247 0.389615 0.128961
H2    H     H_    0.929731 0.860753 0.610385 0.128960
H3    H     H_    0.429636 0.637545 0.110476 0.128948
H4    H     H_    0.570364 0.362455 0.889524 0.128949
H5    H     H_    0.907394 0.019547 0.367755 0.097644
H6    H     H_    0.092606 0.980453 0.632245 0.097644
H7    H     H_    0.592562 0.518826 0.132293 0.097584
H8    H     H_    0.407438 0.481173 0.867707 0.097584
H9    H     H_    0.789129 0.847823 0.453321 0.109961
H10   H     H_    0.210870 0.152177 0.546679 0.109959
H11   H     H_    0.710935 0.348899 0.046628 0.109921
H12   H     H_    0.289065 0.651101 0.953372 0.109922
H13   H     H_    0.153301 0.166584 0.449957 0.117480
H14   H     H_    0.846699 0.833416 0.550043 0.117480
H15   H     H_    0.346608 0.664989 0.050124 0.117471
H16   H     H_    0.653392 0.335012 0.949876 0.117471
H17   H     H_    0.983217 0.077774 0.377555 0.128232
H18   H     H_    0.016782 0.922227 0.622445 0.128232
H19   H     H_    0.516710 0.576480 0.122520 0.128230
H20   H     H_    0.483290 0.423521 0.877480 0.128231
C45   C     C_R   0.874935 0.117305 0.139912 -0.235873
C46   C     C_R   0.125065 0.882695 0.860087 -0.235872
C47   C     C_R   0.625078 0.617323 0.360107 -0.235867
C48   C     C_R   0.374926 0.382678 0.639898 -0.235872
H21   H     H_    0.863624 0.243045 0.159644 0.152506
H22   H     H_    0.136376 0.756955 0.840356 0.152506
H23   H     H_    0.636400 0.743075 0.340390 0.152503
H24   H     H_    0.363607 0.256928 0.659619 0.152504
C49   C     C_R   0.910759 0.131411 0.103776 0.621336
C50   C     C_R   0.089241 0.868590 0.896224 0.621341
C51   C     C_R   0.589255 0.631427 0.396245 0.621338
C52   C     C_R   0.410749 0.368574 0.603761 0.621343
C53   C     C_R   0.926803 0.972322 0.077015 -0.043039
C54   C     C_R   0.073197 0.027677 0.922985 -0.043037
C55   C     C_R   0.573198 0.472325 0.422987 -0.043049
C56   C     C_R   0.426803 0.527675 0.577015 -0.043052
C57   C     C_R   0.906774 0.798950 0.088445 -0.203090
C58   C     C_R   0.093225 0.201049 0.911555 -0.203094
C59   C     C_R   0.593212 0.298941 0.411538 -0.203115
C60   C     C_R   0.406785 0.701057 0.588459 -0.203111
H25   H     H_    0.918172 0.674200 0.068268 0.197532
H26   H     H_    0.081828 0.325797 0.931731 0.197533
H27   H     H_    0.581804 0.174181 0.431700 0.197602
H28   H     H_    0.418190 0.825816 0.568293 0.197590
C61   C     C_R   0.871057 0.784921 0.124924 -0.139491
C62   C     C_R   0.128942 0.215078 0.875076 -0.139492
C63   C     C_R   0.628929 0.284914 0.375058 -0.139498
C64   C     C_R   0.371067 0.715085 0.624938 -0.139497
H29   H     H_    0.856109 0.649355 0.132108 0.155979
H30   H     H_    0.143891 0.350643 0.867892 0.155980
H31   H     H_    0.643867 0.149337 0.367858 0.156007
H32   H     H_    0.356127 0.850660 0.632133 0.156000
C65   C     C_R   0.854339 0.944277 0.150840 -0.145049
C66   C     C_R   0.145661 0.055723 0.849160 -0.145050
C67   C     C_R   0.645661 0.444281 0.349160 -0.145065
C68   C     C_R   0.354339 0.555719 0.650841 -0.145061
C69   C     C_R   0.004279 0.859973 0.043168 -0.174319
C70   C     C_R   0.995720 0.140026 0.956832 -0.174319
C71   C     C_R   0.495708 0.360044 0.456813 -0.174305
C72   C     C_R   0.504292 0.639956 0.543188 -0.174305
H33   H     H_    0.008662 0.751974 0.076837 0.142335
H34   H     H_    0.991337 0.248025 0.923163 0.142334
H35   H     H_    0.491315 0.252102 0.423129 0.142303
H36   H     H_    0.508685 0.747897 0.576872 0.142310
C73   C     C_R   0.039670 0.873873 0.006360 -0.071306
C74   C     C_R   0.960329 0.126127 0.993639 -0.071307
C75   C     C_R   0.460317 0.373942 0.493621 -0.071294
C76   C     C_R   0.539683 0.626056 0.506381 -0.071295
H37   H     H_    0.070591 0.776596 0.012781 0.150294
H38   H     H_    0.929408 0.223405 0.987219 0.150291
H39   H     H_    0.429387 0.276720 0.487186 0.150283
H40   H     H_    0.570614 0.723278 0.512816 0.150294
C77   C     C_R   0.035735 0.013635 0.962549 0.117129
C78   C     C_R   0.964264 0.986364 0.037450 0.117129
C79   C     C_R   0.464264 0.513634 0.537451 0.117134
C80   C     C_R   0.535736 0.486365 0.462551 0.117132
F1    F     F_    0.930652 0.300521 0.096388 -0.724129
F2    F     F_    0.069349 0.699480 0.903613 -0.724132
F3    F     F_    0.569377 0.800554 0.403653 -0.724151
F4    F     F_    0.430630 0.199451 0.596356 -0.724141

loop_
_geom_bond_atom_site_label_1
_geom_bond_atom_site_label_2
_ccdc_geom_bond_type
O17   V3    S    
C51   C55   A    
O1    C5    A    
O19   V1    S    
C9    C21   A    
C16   H16   S    
O3    C7    A    
C10   C18   A    
O1    V3    S    
C73   H37   S    
C76   H40   S    
O15   V3    S    
C55   C80   S    
C25   C33   A    
C33   C38   A    
C5    C12   S    
C75   H39   S    
C6    C11   S    
C38   H18   S    
C35   C40   A    
C26   C30   A    
C58   C62   A    
C36   C39   A    
C40   C44   A    
C57   C61   A    
C71   C75   A    
C23   H8    S    
C14   C18   A    
C2    C68   S    
C72   C76   A    
C58   H26   S    
O4    C8    A    
C25   C29   A    
C70   H34   S    
C48   H24   S    
O13   V1    S    
O2    V4    S    
O3    V1    S    
C57   H25   S    
C28   C36   A    
C1    O15   A    
C52   C56   A    
C15   C31   A    
C2    O16   A    
C16   C32   A    
O2    C6    A    
C54   C58   A    
C10   C22   A    
C54   C77   S    
C11   C19   A    
C16   C20   A    
C43   H3    S    
C44   H4    S    
C13   C29   A    
C34   C37   A    
O11   C7    A    
C11   C23   A    
C35   C36   A    
O12   C8    A    
C47   C67   A    
C14   H14   S    
C45   H21   S    
C46   C66   A    
C24   H7    S    
C13   H13   S    
C3    C65   S    
C59   H27   S    
O10   V2    S    
C72   H36   S    
C46   H22   S    
O5    V1    S    
C53   C57   A    
C39   C43   A    
O7    V3    S    
C38   C42   A    
C26   C34   A    
C63   C67   A    
C4    C66   S    
C17   H10   S    
O18   V4    S    
C15   C19   A    
C50   F2    S    
C19   H12   S    
C50   C54   A    
O4    V2    S    
C64   H32   S    
C45   C49   A    
C21   H6    S    
O8    V4    S    
O7    C3    A    
O5    C1    A    
C37   C41   A    
C74   C78   A    
C53   C78   S    
C31   C43   A    
C14   C30   A    
C21   C25   A    
C69   C78   A    
O8    C4    A    
C7    C10   S    
C56   C79   S    
O9    C5    A    
C59   C63   A    
C62   H30   S    
C37   H17   S    
C61   H29   S    
O6    V2    S    
C63   H31   S    
C69   H33   S    
O14   V2    S    
C12   C20   A    
C27   C35   A    
O9    V1    S    
C56   C60   A    
C29   C41   A    
C48   C52   A    
O16   V4    S    
C69   C73   A    
C51   F3    S    
C3    O13   A    
C64   C68   A    
C39   H19   S    
C49   F1    S    
C20   H11   S    
C74   H38   S    
C23   C27   A    
O11   V3    S    
C30   C42   A    
O12   V4    S    
C22   C26   A    
C70   C77   A    
C73   C77   A    
C8    C9    S    
C9    C17   A    
O10   C6    A    
C48   C68   A    
C15   H15   S    
C76   C80   A    
C32   C44   A    
C60   C64   A    
C33   C34   A    
C42   H2    S    
C45   C65   A    
C52   F4    S    
C41   H1    S    
O20   V2    S    
C75   C79   A    
C1    C67   S    
C46   C50   A    
C12   C24   A    
C27   C31   A    
C71   C80   A    
C13   C17   A    
C72   C79   A    
C71   H35   S    
O6    C2    A    
C47   H23   S    
C62   C66   A    
C60   H28   S    
C24   C28   A    
C61   C65   A    
C70   C74   A    
C18   H9    S    
C4    O14   A    
C55   C59   A    
C47   C51   A    
C40   H20   S    
C22   H5    S    
C49   C53   A    
C28   C32   A    
