data_mof_unit_26086.cif
_audit_creation_date              2012-12-10T18:55:56-0500
_audit_creation_method            fapswitch 2.2
_symmetry_space_group_name_H-M    P1
_symmetry_Int_Tables_number       1
_space_group_crystal_system       triclinic
_cell_length_a                    10.789232
_cell_length_b                    10.016973
_cell_length_c                    14.969309
_cell_angle_alpha                 89.929737
_cell_angle_beta                  93.890721
_cell_angle_gamma                 90.656281
_cell_volume                      1613.98008569

loop_
_atom_site_label
_atom_site_type_symbol
_atom_type_description
_atom_site_fract_x
_atom_site_fract_y
_atom_site_fract_z
_atom_type_partial_charge
C1    C     C_R   0.260485 0.500064 0.498575 0.969673
C2    C     C_R   0.739606 0.500706 0.498870 0.960858
C3    C     C_R   0.499420 0.499934 0.328715 0.939078
C4    C     C_R   0.501728 0.499488 0.671422 0.937831
C5    C     C_R   0.569448 0.073029 0.564474 0.193417
C6    C     C_R   0.425073 0.927588 0.438941 0.222702
C7    C     C_R   0.428180 0.070663 0.437173 0.188131
C8    C     C_R   0.573615 0.929749 0.561980 0.183287
C9    C     C_R   0.059401 0.394419 0.457913 0.390480
C10   C     C_R   0.939878 0.620682 0.515650 0.361499
C11   C     C_R   0.933008 0.386747 0.468913 0.367202
C12   C     C_R   0.067764 0.615839 0.526674 0.367058
C13   C     C_R   0.606920 0.452011 0.100436 0.542186
C14   C     C_R   0.409760 0.435552 0.902843 0.543237
C15   C     C_R   0.603432 0.567306 0.909391 0.540327
C16   C     C_R   0.403508 0.560566 0.089220 0.541798
C17   C     C_R   0.607060 0.454460 0.193647 -0.024103
C18   C     C_R   0.406199 0.436514 0.809504 -0.007690
C19   C     C_R   0.608457 0.553973 0.817207 -0.007087
C20   C     C_R   0.396282 0.547773 0.181272 0.001627
C21   C     C_R   0.500277 0.499740 0.233099 -0.185321
C22   C     C_R   0.505565 0.497048 0.767395 -0.192289
C23   C     C_R   0.506468 0.508059 0.048928 -0.153255
C24   C     C_R   0.505854 0.505200 0.951999 -0.154442
C25   C     C_R   0.872316 0.502383 0.495131 -0.420942
C26   C     C_R   0.127737 0.502312 0.495829 -0.415602
N1    N     N_R   0.500000 0.857200 0.500000 -0.115686
N2    N     N_R   0.500000 0.142800 0.500000 -0.114010
O1    O     O_R   0.316770 0.614620 0.499990 -0.582693
O2    O     O_R   0.683230 0.385380 0.500010 -0.583743
O3    O     O_R   0.683230 0.614620 0.500010 -0.597507
O4    O     O_R   0.316770 0.385380 0.499990 -0.594379
O5    O     O_R   0.499990 0.614660 0.369060 -0.636737
O6    O     O_R   0.500010 0.385340 0.630940 -0.633003
O7    O     O_R   0.500010 0.614660 0.630940 -0.624614
O8    O     O_R   0.499990 0.385340 0.369060 -0.631475
Zn1   Zn    Zn3+2 0.500000 0.653120 0.500000 0.947792
Zn2   Zn    Zn3+2 0.500000 0.346880 0.500000 0.943447
C27   C     C_3   0.634252 0.148182 0.642354 -0.828061
H1    H     H_    0.677778 0.240950 0.620370 0.277158
H2    H     H_    0.566025 0.169422 0.692524 0.241444
H3    H     H_    0.711651 0.094461 0.677821 0.195714
C28   C     C_3   0.334861 0.856159 0.373472 -0.807693
H4    H     H_    0.336097 0.748627 0.379259 0.292327
H5    H     H_    0.238183 0.883960 0.385654 0.224645
H6    H     H_    0.355323 0.881617 0.303742 0.203631
C29   C     C_3   0.351360 0.141222 0.364263 -0.771507
H7    H     H_    0.337176 0.245697 0.379297 0.315541
H8    H     H_    0.396034 0.133019 0.299869 0.201554
H9    H     H_    0.256091 0.099011 0.356362 0.233670
C30   C     C_3   0.659080 0.859859 0.629773 -0.791788
H10   H     H_    0.665419 0.753717 0.617888 0.308155
H11   H     H_    0.755497 0.898215 0.626380 0.232589
H12   H     H_    0.627052 0.874911 0.697943 0.208774
O9    O     O_3   0.708791 0.403190 0.059824 -0.545012
C31   C     C_3   0.689274 0.266386 0.040991 -0.353020
H13   H     H_    0.623262 0.253031 0.981428 0.153280
H14   H     H_    0.656718 0.209757 0.099289 0.148799
H15   H     H_    0.778940 0.222806 0.024465 0.199229
O10   O     O_3   0.314398 0.374545 0.945872 -0.547663
C32   C     C_3   0.348202 0.242447 0.968116 -0.361097
H16   H     H_    0.415080 0.241212 0.027801 0.154197
H17   H     H_    0.386487 0.188481 0.911200 0.148168
H18   H     H_    0.263838 0.186997 0.986032 0.196366
O11   O     O_3   0.701005 0.629725 0.958514 -0.536266
C33   C     C_3   0.669447 0.763585 0.973745 -0.338343
H19   H     H_    0.603488 0.769700 0.027328 0.150522
H20   H     H_    0.630917 0.814221 0.911739 0.136883
H21   H     H_    0.754941 0.819017 0.997528 0.196792
O12   O     O_3   0.303190 0.611592 0.037895 -0.538854
C34   C     C_3   0.327010 0.747083 0.019150 -0.340702
H22   H     H_    0.392436 0.756430 0.965321 0.149526
H23   H     H_    0.362492 0.803971 0.079738 0.137733
H24   H     H_    0.238567 0.793637 0.994071 0.198137
C35   C     C_3   0.720477 0.409705 0.250775 -0.773385
H25   H     H_    0.697601 0.318885 0.289148 0.264247
H26   H     H_    0.800211 0.385886 0.210837 0.259270
H27   H     H_    0.751779 0.490501 0.298050 0.212119
C36   C     C_3   0.298424 0.370570 0.755373 -0.803430
H28   H     H_    0.261003 0.438872 0.702120 0.208628
H29   H     H_    0.330378 0.277898 0.723979 0.240936
H30   H     H_    0.220243 0.343392 0.796513 0.268182
C37   C     C_3   0.727390 0.594271 0.775668 -0.798877
H31   H     H_    0.743248 0.703387 0.782801 0.242013
H32   H     H_    0.806849 0.542302 0.810985 0.261648
H33   H     H_    0.728435 0.566441 0.704145 0.204441
C38   C     C_3   0.275256 0.582155 0.220908 -0.815131
H34   H     H_    0.272830 0.554551 0.292447 0.205023
H35   H     H_    0.257867 0.690656 0.213561 0.241105
H36   H     H_    0.197759 0.526705 0.184500 0.262088
O13   O     O_3   0.115696 0.299027 0.408110 -0.593350
C39   C     C_3   0.073306 0.312752 0.316947 -0.318609
H37   H     H_    0.142716 0.269680 0.274311 0.177297
H38   H     H_    0.061261 0.418895 0.295812 0.147356
H39   H     H_    0.984942 0.256415 0.302945 0.213686
O14   O     O_3   0.882067 0.741305 0.526640 -0.589190
C40   C     C_3   0.876428 0.809242 0.443698 -0.218019
H40   H     H_    0.804065 0.886539 0.444582 0.168523
H41   H     H_    0.848802 0.742865 0.385735 0.140445
H42   H     H_    0.966907 0.859094 0.433345 0.174020
O15   O     O_3   0.867412 0.271174 0.445051 -0.582284
C41   C     C_3   0.898442 0.171088 0.508930 -0.224554
H43   H     H_    0.904961 0.209436 0.579048 0.129917
H44   H     H_    0.986477 0.122001 0.493980 0.198154
H45   H     H_    0.823642 0.094585 0.504985 0.175303
O16   O     O_3   0.133507 0.728932 0.556126 -0.558738
C42   C     C_3   0.130321 0.738220 0.649920 -0.219394
H46   H     H_    0.188025 0.825307 0.673377 0.175426
H47   H     H_    0.170308 0.648228 0.683819 0.136497
H48   H     H_    0.034400 0.754791 0.670167 0.176760

loop_
_geom_bond_atom_site_label_1
_geom_bond_atom_site_label_2
_ccdc_geom_bond_type
C33   H20   S    
C38   H34   S    
O15   C41   S    
C14   C18   A    
O9    C31   S    
C9    O13   S    
C40   H40   S    
C29   H8    S    
C15   C19   A    
O2    Zn2   S    
C28   H6    S    
O7    Zn1   S    
C33   H21   S    
O16   C42   S    
C11   C25   A    
C15   O11   S    
C20   C38   S    
C31   H13   S    
C13   C23   A    
C41   H45   S    
C32   H17   S    
C14   C24   A    
C35   H26   S    
C29   H7    S    
C18   C36   S    
C42   H46   S    
O12   C34   S    
C10   O14   S    
C27   H3    S    
C6    N1    A    
C33   H19   S    
C4    O7    A    
O6    Zn2   S    
C42   H47   S    
C32   H16   S    
C19   C37   S    
C1    O1    A    
C40   H41   S    
C9    C26   A    
C29   H9    S    
C4    O6    A    
C30   H10   S    
C19   C22   A    
C16   O12   S    
C27   H2    S    
O13   C39   S    
C36   H29   S    
C39   H39   S    
C17   C21   A    
C7    N2    A    
O3    Zn1   S    
C12   C26   A    
O10   C32   S    
C30   H11   S    
C7    C29   S    
C32   H18   S    
C35   H25   S    
C36   H30   S    
C5    N2    A    
C4    C22   S    
C37   H31   S    
N2    Zn2   S    
C16   C20   A    
O14   C40   S    
C39   H38   S    
C11   O15   S    
C41   H44   S    
C28   H5    S    
C8    C30   S    
C10   C12   A    
C10   C25   A    
C15   C24   A    
C37   H32   S    
C16   C23   A    
O4    Zn2   S    
C6    C28   S    
C9    C11   A    
C28   H4    S    
C1    C26   S    
C42   H48   S    
C3    C21   S    
C5    C8    A    
C27   H1    S    
C40   H42   S    
C34   H23   S    
C8    N1    A    
C18   C22   A    
C34   H24   S    
C6    C7    A    
C14   O10   S    
C31   H15   S    
C13   C17   A    
C2    O2    A    
C30   H12   S    
C5    C27   S    
C34   H22   S    
C12   O16   S    
C3    O8    A    
N1    Zn1   S    
O8    Zn2   S    
C39   H37   S    
C31   H14   S    
C2    C25   S    
C1    O4    A    
C41   H43   S    
C35   H27   S    
O5    Zn1   S    
C23   C24   S    
C36   H28   S    
C37   H33   S    
C20   C21   A    
O11   C33   S    
C38   H36   S    
O1    Zn1   S    
C17   C35   S    
C38   H35   S    
C3    O5    A    
C2    O3    A    
C13   O9    S    
