data_mof_unit_50008.cif
_audit_creation_date              2012-12-10T20:55:43-0500
_audit_creation_method            fapswitch 2.2
_symmetry_space_group_name_H-M    P1
_symmetry_Int_Tables_number       1
_space_group_crystal_system       triclinic
_cell_length_a                    15.837419
_cell_length_b                    15.099959
_cell_length_c                    10.6692
_cell_angle_alpha                 89.857475
_cell_angle_beta                  89.96058
_cell_angle_gamma                 89.931504
_cell_volume                      2551.46887718

loop_
_atom_site_label
_atom_site_type_symbol
_atom_type_description
_atom_site_fract_x
_atom_site_fract_y
_atom_site_fract_z
_atom_type_partial_charge
C1    C     C_1   0.250528 0.500127 0.500043 -0.150693
C2    C     C_1   0.749472 0.499913 0.499950 -0.148732
C3    C     C_R   0.500042 0.499708 0.871738 -0.150540
C4    C     C_R   0.499980 0.500225 0.128258 -0.150338
C5    C     C_R   0.499897 0.905238 0.499539 -0.319601
C6    C     C_R   0.499800 0.094770 0.500002 -0.320763
C7    C     C_R   0.456081 0.953265 0.404972 0.252216
C8    C     C_R   0.533627 0.046695 0.603091 0.242827
C9    C     C_R   0.543609 0.952655 0.594281 0.303424
C10   C     C_R   0.465778 0.047427 0.396757 0.306740
C11   C     C_R   0.956159 0.502479 0.614050 -0.156729
C12   C     C_R   0.043841 0.497749 0.385927 -0.156832
C13   C     C_R   0.043706 0.502471 0.614070 -0.164588
C14   C     C_R   0.956294 0.497756 0.385907 -0.162882
C15   C     C_R   0.338916 0.500051 0.500058 0.861919
C16   C     C_R   0.661084 0.499955 0.499943 0.861956
C17   C     C_R   0.500004 0.500087 0.260298 0.855902
C18   C     C_R   0.500004 0.499903 0.739701 0.854793
C19   C     C_R   0.913119 0.500095 0.499971 0.168642
C20   C     C_R   0.086881 0.500111 0.500008 0.168265
C21   C     C_1   0.499941 0.807013 0.499716 0.412440
C22   C     C_1   0.499931 0.192991 0.500108 0.405732
C23   C     C_1   0.824324 0.499987 0.499958 -0.049836
C24   C     C_1   0.175676 0.500127 0.500026 -0.051645
C25   C     C_R   0.653933 0.529019 0.129993 -0.118872
C26   C     C_R   0.346124 0.470708 0.870002 -0.119667
C27   C     C_R   0.653976 0.528606 0.869408 -0.099644
C28   C     C_R   0.346060 0.471244 0.130585 -0.099798
C29   C     C_R   0.729048 0.542713 0.064679 -0.116017
C30   C     C_R   0.271018 0.456968 0.935315 -0.117913
C31   C     C_R   0.729065 0.542524 0.934428 -0.106540
C32   C     C_R   0.270987 0.457230 0.065565 -0.105678
C33   C     C_R   0.576934 0.514689 0.934424 0.077991
C34   C     C_R   0.423098 0.485185 0.065571 0.078814
C35   C     C_R   0.576907 0.514931 0.065274 0.076904
C36   C     C_R   0.423132 0.484907 0.934723 0.077791
N1    N     N_1   0.500000 0.270550 0.500000 -0.063597
N2    N     N_1   0.500000 0.729450 0.500000 -0.062520
O1    O     O_R   0.378020 0.573650 0.500040 -0.590978
O2    O     O_R   0.621980 0.426350 0.499960 -0.599888
O3    O     O_R   0.621980 0.573650 0.499960 -0.602261
O4    O     O_R   0.378020 0.426350 0.500040 -0.613725
O5    O     O_R   0.499990 0.573670 0.316780 -0.600747
O6    O     O_R   0.500010 0.426330 0.683220 -0.590735
O7    O     O_R   0.500010 0.573670 0.683220 -0.602060
O8    O     O_R   0.499990 0.426330 0.316780 -0.590884
Zn1   Zn    Zn3+2 0.500000 0.598370 0.500000 1.061954
Zn2   Zn    Zn3+2 0.500000 0.401630 0.500000 1.060808
H1    H     H_    0.077614 0.504281 0.702249 0.139054
H2    H     H_    0.922385 0.495935 0.297729 0.139419
H3    H     H_    0.922147 0.504309 0.702213 0.139519
H4    H     H_    0.077854 0.495907 0.297765 0.139740
H5    H     H_    0.212658 0.446772 0.116441 0.137877
H6    H     H_    0.787398 0.552962 0.883550 0.138076
H7    H     H_    0.212710 0.446307 0.884663 0.137684
H8    H     H_    0.787369 0.553292 0.115331 0.138180
S1    S     S_3+6 0.437849 0.107473 0.258017 0.095702
O9    O     O_2   0.350068 0.143792 0.273642 -0.293893
O10   O     O_2   0.497743 0.183338 0.237642 -0.277017
O11   O     O_3   0.441815 0.043241 0.129717 -0.421881
H9    H     H_    0.412588 0.077811 0.063684 0.393352
S2    S     S_3+6 0.612385 0.893073 0.697408 0.082067
O12   O     O_2   0.561247 0.855809 0.803875 -0.263855
O13   O     O_2   0.654038 0.817913 0.628803 -0.307796
O14   O     O_3   0.689273 0.958205 0.754403 -0.434482
H10   H     H_    0.718199 0.921615 0.818529 0.393904
S3    S     S_3+6 0.559462 0.105124 0.743543 0.108815
O15   O     O_2   0.648095 0.139734 0.732973 -0.193395
O16   O     O_2   0.500777 0.182293 0.762506 -0.313057
O17   O     O_3   0.552095 0.039746 0.870789 -0.406301
H11   H     H_    0.492555 0.019762 0.871936 0.366903
S4    S     S_3+6 0.387393 0.894576 0.301314 0.101226
O18   O     O_2   0.437746 0.861991 0.191242 -0.182165
O19   O     O_2   0.348606 0.815978 0.366105 -0.318974
O20   O     O_3   0.308109 0.959086 0.249497 -0.442534
H12   H     H_    0.274941 0.973763 0.325427 0.363629
H13   H     H_    0.656994 0.529338 0.231193 0.123004
H14   H     H_    0.343070 0.470338 0.768803 0.122826
H15   H     H_    0.657074 0.528578 0.768206 0.125512
H16   H     H_    0.342952 0.471321 0.231786 0.124445

loop_
_geom_bond_atom_site_label_1
_geom_bond_atom_site_label_2
_ccdc_geom_bond_type
C7    C10   A    
C27   C33   A    
C11   C19   A    
C26   H14   S    
C25   H13   S    
C27   H15   S    
S1    O10   D    
C3    C33   A    
C6    C22   S    
C3    C18   S    
S2    O13   D    
C21   N2    T    
C20   C24   S    
C8    C9    A    
O17   H11   S    
C1    C15   S    
C2    C16   S    
C13   C20   A    
C4    C35   A    
C28   C34   A    
S4    O20   S    
C12   H4    S    
O8    Zn2   S    
O7    Zn1   S    
C25   C29   A    
C4    C34   A    
C27   C31   A    
S3    O15   D    
C28   C32   A    
C10   S1    S    
C17   O8    A    
S4    O19   D    
C7    S4    S    
C25   C35   A    
S1    O11   S    
C6    C8    A    
C22   N1    T    
C9    S2    S    
O11   H9    S    
S3    O16   D    
C19   C23   S    
O20   H12   S    
C17   O5    A    
C5    C9    A    
S2    O12   D    
C18   O6    A    
C5    C7    A    
C12   C20   A    
O3    Zn1   S    
O4    Zn2   S    
N1    Zn2   S    
C15   O1    A    
N2    Zn1   S    
C8    S3    S    
C13   H1    S    
C4    C17   S    
C26   C36   A    
C16   O2    A    
C26   C30   A    
C18   O7    A    
C32   H5    S    
O1    Zn1   S    
O2    Zn2   S    
S2    O14   S    
C14   C19   A    
C15   O4    A    
C12   C14   A    
S4    O18   D    
C6    C10   A    
C29   H8    S    
C30   H7    S    
S3    O17   S    
C29   C31   A    
C30   C32   A    
C11   C13   A    
S1    O9    D    
C14   H2    S    
C3    C36   A    
C33   C35   A    
C34   C36   A    
C31   H6    S    
C28   H16   S    
C11   H3    S    
C5    C21   S    
C1    C24   T    
O14   H10   S    
C2    C23   T    
O5    Zn1   S    
C16   O3    A    
O6    Zn2   S    
