data_mof_unit_24738.cif
_audit_creation_date              2012-12-10T17:02:12-0500
_audit_creation_method            fapswitch 2.2
_symmetry_space_group_name_H-M    P1
_symmetry_Int_Tables_number       1
_space_group_crystal_system       triclinic
_cell_length_a                    10.701911
_cell_length_b                    10.61065
_cell_length_c                    10.083771
_cell_angle_alpha                 93.745461
_cell_angle_beta                  91.999546
_cell_angle_gamma                 90.096803
_cell_volume                      1141.90437638

loop_
_atom_site_label
_atom_site_type_symbol
_atom_type_description
_atom_site_fract_x
_atom_site_fract_y
_atom_site_fract_z
_atom_type_partial_charge
C1    C     C_R   0.515792 0.263718 0.496657 0.959094
C2    C     C_2   0.559399 0.135499 0.485362 -0.361703
C3    C     C_2   0.496129 0.600725 0.934362 0.204504
C4    C     C_R   0.260341 0.507841 0.498487 0.908614
C5    C     C_2   0.532285 0.593584 0.078400 -0.074891
C6    C     C_R   0.498622 0.737906 0.504374 0.953708
C7    C     C_R   0.739797 0.489061 0.502708 0.930026
C8    C     C_R   0.123884 0.648769 0.704955 -0.042029
C9    C     C_R   0.070971 0.675897 0.827561 -0.069137
C10   C     C_R   0.959637 0.617691 0.855519 -0.111271
C11   C     C_R   0.896043 0.542389 0.756488 -0.085742
C12   C     C_R   0.065016 0.564417 0.607958 0.099530
C13   C     C_R   0.942660 0.525571 0.625880 0.110220
C14   C     C_3   0.455381 0.725993 0.885616 -0.362274
C15   C     C_3   0.403254 0.818616 0.992475 -0.838900
C16   C     C_3   0.873829 0.338601 0.287914 -0.385020
C17   C     C_3   0.860624 0.404948 0.157997 -0.781195
C18   C     C_3   0.623707 0.129531 0.729019 -0.313805
C19   C     C_3   0.688293 0.044721 0.826759 -0.754770
C20   C     C_R   0.126720 0.513976 0.495744 -0.137307
C21   C     C_R   0.062906 0.443963 0.393130 -0.177406
C22   C     C_R   0.935915 0.423479 0.398489 0.132058
C23   C     C_R   0.873717 0.472469 0.511996 -0.161911
C24   C     C_2   0.603638 0.934429 0.558143 0.226805
C25   C     C_2   0.496393 0.872164 0.518940 0.112188
C26   C     C_2   0.599967 0.070410 0.588014 0.121010
H1    H     H_    0.112826 0.400858 0.310357 0.202448
H2    H     H_    0.478818 0.855026 0.063020 0.263035
H3    H     H_    0.361247 0.900563 0.944440 0.285603
H4    H     H_    0.536071 0.770269 0.840940 0.225609
H5    H     H_    0.379977 0.708429 0.809680 0.240268
H6    H     H_    0.267491 0.251171 0.157851 0.370426
H7    H     H_    0.809713 0.342391 0.081606 0.236824
H8    H     H_    0.807718 0.494365 0.172511 0.272062
H9    H     H_    0.954180 0.426480 0.120604 0.256149
H10   H     H_    0.931477 0.252384 0.270541 0.206122
H11   H     H_    0.781193 0.303663 0.315822 0.201162
H12   H     H_    0.554284 0.089058 0.385659 0.175156
H13   H     H_    0.853305 0.018144 0.477690 0.349576
H14   H     H_    0.245073 0.081474 0.633815 0.398442
H15   H     H_    0.634423 0.956571 0.833539 0.261457
H16   H     H_    0.785032 0.022865 0.797165 0.308593
H17   H     H_    0.693740 0.094688 0.927088 0.241008
H18   H     H_    0.683484 0.214901 0.724709 0.188725
H19   H     H_    0.532797 0.158005 0.771265 0.283983
H20   H     H_    0.555655 0.429406 0.885426 0.197216
H21   H     H_    0.578814 0.674385 0.129878 0.136721
H22   H     H_    0.210995 0.693494 0.685939 0.163146
H23   H     H_    0.118618 0.738160 0.902288 0.149698
H24   H     H_    0.921700 0.631750 0.953509 0.139527
H25   H     H_    0.814500 0.494088 0.787532 0.144070
H26   H     H_    0.329651 0.772394 0.047570 0.278231
N1    N     N_2   0.501340 0.501330 0.852150 -0.167836
N2    N     N_2   0.501380 0.501360 0.147810 0.051041
O1    O     O_R   0.499980 0.319060 0.613040 -0.621697
O2    O     O_2   0.467118 0.279202 0.010875 -0.353438
O3    O     O_3   0.320827 0.317974 0.203957 -0.491397
O4    O     O_2   0.769819 0.780772 0.667243 -0.298608
O5    O     O_2   0.762874 0.780112 0.424444 -0.320438
O6    O     O_3   0.866793 0.971606 0.558978 -0.513472
O7    O     O_2   0.328037 0.014320 0.391539 -0.301532
O8    O     O_2   0.246173 0.839718 0.507715 -0.318613
O9    O     O_3   0.325727 0.038448 0.650000 -0.559362
O10   O     O_R   0.500020 0.319100 0.386900 -0.555725
O11   O     O_R   0.316750 0.499980 0.613090 -0.615915
O12   O     O_R   0.316790 0.500020 0.386950 -0.545978
O13   O     O_R   0.499980 0.680900 0.613100 -0.649742
O14   O     O_R   0.500020 0.680940 0.386960 -0.606892
O15   O     O_R   0.683210 0.499980 0.613050 -0.649360
O16   O     O_R   0.683250 0.500020 0.386910 -0.604192
O17   O     O_2   0.299678 0.436561 0.990631 -0.311787
S1    S     S_3+6 0.396763 0.383650 0.082977 0.103318
S2    S     S_3+6 0.752959 0.861570 0.551264 -0.001291
S3    S     S_3+6 0.344505 0.941250 0.513682 -0.005262
Zn1   Zn    Zn3+2 0.499970 0.499970 0.650990 0.973839
Zn2   Zn    Zn3+2 0.500030 0.500030 0.349010 1.088684

loop_
_geom_bond_atom_site_label_1
_geom_bond_atom_site_label_2
_ccdc_geom_bond_type
C16   H11   S    
C7    O15   A    
C24   C25   D    
C8    H22   S    
C15   H3    S    
O9    S3    S    
C18   H18   S    
O7    S3    D    
O14   Zn2   S    
C3    N1    D    
C9    C10   A    
O5    S2    D    
O11   Zn1   S    
C19   H16   S    
C14   H5    S    
C8    C12   A    
O1    Zn1   S    
C12   C20   A    
C7    O16   A    
C6    O14   A    
C1    O1    A    
O13   Zn1   S    
N2    S1    S    
O17   S1    D    
C2    C26   D    
C10   H24   S    
C21   C22   A    
C12   C13   A    
C4    O12   A    
C5    H21   S    
C15   H2    S    
N1    Zn1   S    
H14   O9    S    
C17   H7    S    
H6    O3    S    
C14   H4    S    
C7    C23   S    
H13   O6    S    
C1    C2    S    
H20   N1    S    
C6    O13   A    
C24   C26   S    
O15   Zn1   S    
O6    S2    S    
C22   C23   A    
O3    S1    S    
O10   Zn2   S    
C4    O11   A    
C21   H1    S    
C16   C17   S    
N2    Zn2   S    
C24   S2    S    
C6    C25   S    
C11   H25   S    
C17   H8    S    
O16   Zn2   S    
C4    C20   S    
C18   H19   S    
C5    N2    D    
C11   C13   A    
C9    H23   S    
C20   C21   A    
C13   C23   A    
C25   S3    S    
C10   C11   A    
C18   C19   S    
C2    H12   S    
C14   C15   S    
O8    S3    D    
C16   C22   S    
C17   H9    S    
O2    S1    D    
C15   H26   S    
C1    O10   A    
C3    C14   S    
C16   H10   S    
O12   Zn2   S    
C19   H15   S    
O4    S2    D    
C19   H17   S    
C8    C9    A    
C3    C5    S    
C18   C26   S    
