data_mof_unit_50427.cif
_audit_creation_date              2012-12-10T18:57:13-0500
_audit_creation_method            fapswitch 2.2
_symmetry_space_group_name_H-M    P1
_symmetry_Int_Tables_number       1
_space_group_crystal_system       triclinic
_cell_length_a                    8.778482
_cell_length_b                    10.858388
_cell_length_c                    9.570908
_cell_angle_alpha                 90.311101
_cell_angle_beta                  98.054455
_cell_angle_gamma                 90.755644
_cell_volume                      903.198030792

loop_
_atom_site_label
_atom_site_type_symbol
_atom_type_description
_atom_site_fract_x
_atom_site_fract_y
_atom_site_fract_z
_atom_type_partial_charge
C1    C     C_R   0.500607 0.262782 0.499714 0.799824
C2    C     C_R   0.561353 0.597326 0.934828 0.232123
C3    C     C_3   0.723512 0.643344 0.949735 -0.476175
C4    C     C_R   0.204067 0.498079 0.464314 0.901934
C5    C     C_3   0.723447 0.643700 0.108245 -0.486305
C6    C     C_R   0.501301 0.737241 0.500268 0.803218
C7    C     C_R   0.795773 0.495624 0.536674 0.757719
C8    C     C_2   0.038385 0.498139 0.447539 -0.394186
C9    C     C_2   0.961692 0.484892 0.559035 0.234004
C10   C     C_R   0.487688 0.062552 0.618143 0.120845
C11   C     C_R   0.505617 0.130208 0.498870 -0.098446
C12   C     C_R   0.530023 0.935036 0.376876 -0.219126
C13   C     C_R   0.529487 0.064313 0.376448 -0.193855
C14   C     C_R   0.506691 0.869946 0.499751 -0.101816
C15   C     C_R   0.488450 0.938573 0.618683 0.123131
C16   C     C_3   0.447728 0.930249 0.764346 -0.456553
C17   C     C_3   0.446936 0.072037 0.763711 -0.453701
C18   C     C_R   0.561294 0.597452 0.082009 0.196256
C19   C     C_R   0.425048 0.409613 0.061749 0.441379
C20   C     C_R   0.427366 0.409839 0.914268 -0.035142
Cu1   Cu    Cu3+1 0.499990 0.499980 0.640670 0.965048
Cu2   Cu    Cu3+1 0.500010 0.500020 0.359330 0.945917
H1    H     H_    0.979040 0.512323 0.341994 0.121799
H2    H     H_    0.541846 0.891498 0.840278 0.193655
H3    H     H_    0.330623 0.110852 0.765080 0.205560
H4    H     H_    0.540745 0.115114 0.838962 0.204866
H5    H     H_    0.964763 0.442083 0.758761 0.327738
H6    H     H_    0.299422 0.345144 0.193167 0.367224
H7    H     H_    0.369447 0.336556 0.849744 0.170647
H8    H     H_    0.803299 0.574853 0.914443 0.216360
H9    H     H_    0.733101 0.737009 0.905523 0.189536
H10   H     H_    0.802946 0.575239 0.162520 0.213662
H11   H     H_    0.732715 0.737614 0.155714 0.191541
H12   H     H_    0.546289 0.111850 0.280470 0.192714
H13   H     H_    0.547030 0.886818 0.281038 0.165465
H14   H     H_    0.332014 0.887987 0.766188 0.205645
N1    N     N_R   0.500980 0.500930 0.148050 -0.235729
N2    N     N_R   0.500990 0.500890 0.852140 -0.226146
O1    O     O_R   0.500000 0.319640 0.618810 -0.593342
O2    O     O_3   0.347182 0.313524 0.113608 -0.749107
O3    O     O_R   0.500020 0.319680 0.381230 -0.576442
O4    O     O_R   0.274830 0.499980 0.591380 -0.500971
O5    O     O_R   0.274850 0.500020 0.353800 -0.627433
O6    O     O_R   0.499980 0.680320 0.618770 -0.578630
O7    O     O_R   0.500000 0.680360 0.381190 -0.584291
O8    O     O_R   0.725150 0.499980 0.646200 -0.594642
O9    O     O_R   0.725170 0.500020 0.408620 -0.593886
O10   O     O_3   0.038999 0.459705 0.692383 -0.711886

loop_
_geom_bond_atom_site_label_1
_geom_bond_atom_site_label_2
_ccdc_geom_bond_type
H5    O10   S    
C3    H8    S    
C6    O7    A    
C2    C18   A    
Cu1   O6    S    
C20   N2    A    
C2    N2    A    
C19   C20   A    
Cu1   O1    S    
C4    C8    S    
C5    H10   S    
C17   H3    S    
C8    H1    S    
C2    C3    S    
C13   H12   S    
C16   H2    S    
C6    O6    A    
Cu1   Cu2   S    
C16   H14   S    
C12   H13   S    
C3    H9    S    
C11   C13   A    
C5    H11   S    
C4    O4    A    
C17   H4    S    
C1    O3    A    
C4    O5    A    
C18   N1    A    
C12   C14   A    
Cu2   O9    S    
C20   H7    S    
Cu2   O3    S    
C6    C14   S    
C10   C11   A    
H6    O2    S    
C10   C17   S    
Cu1   O4    S    
C7    O8    A    
Cu2   O7    S    
C12   C13   A    
C9    O10   S    
Cu1   O8    S    
C19   O2    S    
C7    C9    S    
C1    O1    A    
C14   C15   A    
C16   C17   S    
C5    C18   S    
C19   N1    A    
C10   C15   A    
Cu2   N1    S    
Cu2   O5    S    
Cu1   N2    S    
C15   C16   S    
C7    O9    A    
C8    C9    D    
C3    C5    S    
C1    C11   S    
