data_mof_unit_24980.cif
_audit_creation_date              2013-03-05T15:41:38-0500
_audit_creation_method            fapswitch 2.2
_symmetry_space_group_name_H-M    P1
_symmetry_Int_Tables_number       1
_space_group_crystal_system       triclinic
_cell_length_a                    7.980752
_cell_length_b                    8.626402
_cell_length_c                    15.695288
_cell_angle_alpha                 91.494876
_cell_angle_beta                  87.914323
_cell_angle_gamma                 92.535225
_cell_volume                      1078.44780402

loop_
_atom_site_label
_atom_site_type_symbol
_atom_site_description
_atom_site_fract_x
_atom_site_fract_y
_atom_site_fract_z
_atom_type_partial_charge
O1    O     O_R   0.389240 0.738570 0.505550 -0.628774
O2    O     O_R   0.678400 0.711630 0.491050 -0.621479
C1    C     C_R   0.544919 0.793330 0.505054 0.898614
O3    O     O_R   0.355360 0.513470 0.630110 -0.571656
O4    O     O_R   0.644510 0.486530 0.615610 -0.632151
C2    C     C_R   0.505308 0.502947 0.660777 0.856367
Zn1   Zn    Zn3+2 0.306930 0.517990 0.509680 0.991840
Zn2   Zn    Zn3+2 0.693070 0.482010 0.490320 0.965779
O5    O     O_R   0.321600 0.288370 0.508950 -0.614652
O6    O     O_R   0.610760 0.261430 0.494450 -0.587694
O7    O     O_R   0.355490 0.513470 0.384390 -0.595418
O8    O     O_R   0.644640 0.486530 0.369890 -0.623363
C3    C     C_R   0.456539 0.206684 0.503833 0.933202
C4    C     C_R   0.494744 0.496570 0.339222 0.877676
C5    C     C_3   0.369885 0.618341 0.952652 0.406949
C6    C     C_3   0.679233 0.546162 0.955221 -0.333121
C7    C     C_3   0.662482 0.551649 0.054245 -0.102433
H1    H     H_    0.771521 0.460255 0.932510 0.278377
H2    H     H_    0.733186 0.658436 0.931489 0.245810
H3    H     H_    0.663035 0.675719 0.074911 0.193418
C8    C     C_1   0.481618 0.483656 0.250756 -0.120821
C9    C     C_3   0.506229 0.503512 0.916427 -0.114881
C10   C     C_3   0.347555 0.586777 0.053513 0.233776
C11   C     C_3   0.490113 0.474790 0.082416 -0.107231
C12   C     C_3   0.469930 0.304764 0.037511 0.513166
C13   C     C_3   0.456314 0.332613 0.939678 -0.467331
C14   C     C_1   0.480253 0.473658 0.175137 0.109327
C15   C     C_1   0.521656 0.510246 0.824721 0.110411
C16   C     C_1   0.518517 0.508612 0.749316 -0.066033
H4    H     H_    0.327995 0.303950 0.918344 0.272835
H5    H     H_    0.534264 0.250778 0.901254 0.238369
C17   C     C_2   0.565604 0.956664 0.523944 0.051282
C18   C     C_2   0.437348 0.042680 0.503109 -0.423152
H6    H     H_    0.323177 0.992967 0.475689 0.168363
N1    N     N_2   0.950340 0.457950 0.477370 -0.168627
H7    H     H_    0.009987 0.383146 0.435373 0.206143
N2    N     N_2   0.049660 0.542050 0.522630 -0.171340
H8    H     H_    0.990003 0.615896 0.565084 0.197015
N3    N     N_2   0.355650 0.736502 0.101800 -0.288145
H9    H     H_    0.439572 0.752106 0.149938 0.229253
C19   C     C_3   0.204986 0.822292 0.118131 -0.459449
H10   H     H_    0.240507 0.936136 0.146821 0.277260
H11   H     H_    0.119167 0.765566 0.166013 0.211662
H12   H     H_    0.138599 0.839040 0.058760 0.288649
N4    N     N_R   0.206333 0.596024 0.910032 0.244768
O9    O     O_R   0.181163 0.494294 0.848586 -0.373818
O10   O     O_R   0.086764 0.689894 0.929363 -0.368800
N5    N     N_R   0.187786 0.506309 0.077174 0.188606
O11   O     O_R   0.108953 0.412562 0.024266 -0.331748
O12   O     O_R   0.150603 0.496101 0.158297 -0.442502
N6    N     N_R   0.614106 0.206200 0.050903 0.219198
O13   O     O_R   0.599125 0.094773 0.105545 -0.349743
O14   O     O_R   0.746976 0.210339 0.000199 -0.317179
N7    N     N_2   0.702161 0.022137 0.573003 -0.280918
H13   H     H_    0.666273 0.099612 0.620770 0.248506
C20   C     C_3   0.839623 0.929248 0.595650 -0.675456
H14   H     H_    0.928978 0.001293 0.634217 0.245447
H15   H     H_    0.909702 0.889547 0.537319 0.247115
H16   H     H_    0.792416 0.829483 0.634408 0.234524
N8    N     N_R   0.431027 0.780322 0.934361 0.214635
O15   O     O_R   0.387503 0.844469 0.864742 -0.324717
O16   O     O_R   0.543578 0.854688 0.979479 -0.347975
N9    N     N_2   0.812045 0.490089 0.089289 -0.215003
H17   H     H_    0.903833 0.577208 0.086575 0.286067
C21   C     C_3   0.821812 0.403263 0.167683 -0.434190
H18   H     H_    0.926525 0.323599 0.161389 0.309355
H19   H     H_    0.718199 0.319460 0.180747 0.212703
H20   H     H_    0.838616 0.483964 0.223304 0.199604
N10   N     N_R   0.318342 0.216854 0.069485 0.254347
O17   O     O_R   0.284403 0.210054 0.151082 -0.384030
O18   O     O_R   0.241239 0.116603 0.019425 -0.316589

loop_
_geom_bond_atom_site_label_1
_geom_bond_atom_site_label_2
_geom_bond_distance
_ccdc_geom_bond_type
O4    Zn2   1.990112 S    
N6    O14   1.302211 A    
C10   C11   1.609688 S    
N9    C21   1.463293 S    
C11   C12   1.614727 S    
C3    C18   1.416076 S    
N2    H8    1.028626 S    
C19   H10   1.099630 S    
C1    C17   1.435819 S    
N1    H7    1.029381 S    
C20   H16   1.111125 S    
Zn2   O8    1.944751 S    
C11   C14   1.454812 S    
C17   C18   1.345148 D    
C21   H20   1.110525 S    
C5    C10   1.615431 S    
O2    C1    1.311919 A    
Zn1   N2    2.074892 S    
N10   O18   1.302511 A    
C13   H5    1.112830 S    
N3    C19   1.451059 S    
C6    H1    1.110913 S    
C9    C15   1.442606 S    
N4    O9    1.301888 A    
C7    N9    1.458898 S    
C21   H18   1.105282 S    
Zn1   O7    1.990112 S    
C19   H11   1.106979 S    
O4    C2    1.306963 A    
C6    H2    1.110150 S    
C10   N3    1.480493 S    
C4    C8    1.397427 S    
N5    O12   1.301151 A    
N5    O11   1.302835 A    
N1    N2    1.273757 D    
C20   H15   1.109772 S    
C13   H4    1.104640 S    
O3    Zn1   1.944753 S    
C8    C14   1.188159 T    
N10   O17   1.301623 A    
Zn2   O6    1.987250 S    
O7    C4    1.307870 A    
N7    C20   1.446699 S    
C12   N6    1.484766 S    
C7    C11   1.554925 S    
C12   N10   1.478183 S    
C19   H12   1.104372 S    
C5    N4    1.490926 S    
C5    N8    1.491114 S    
N9    H17   1.026598 S    
C2    C16   1.396885 S    
C18   H6    1.087979 S    
C20   H14   1.110761 S    
N8    O16   1.300566 A    
O3    C2    1.313702 A    
C9    C13   1.559098 S    
N4    O10   1.301092 A    
C17   N7    1.443458 S    
N3    H9    1.030084 S    
Zn1   O5    1.989125 S    
O5    C3    1.311723 A    
N7    H13   1.032446 S    
C15   C16   1.184383 T    
C6    C9    1.554664 S    
C10   N5    1.465014 S    
C21   H19   1.091308 S    
C12   C13   1.568770 S    
O1    Zn1   1.987250 S    
C7    H3    1.110094 S    
Zn2   N1    2.074892 S    
C5    C9    1.584112 S    
O2    Zn2   1.989126 S    
N6    O13   1.303511 A    
C6    C7    1.554754 S    
O8    C4    1.312832 A    
N8    O15   1.302698 A    
O1    C1    1.309360 A    
O6    C3    1.303303 A    
