data_mof_unit_38501.cif
_audit_creation_date              2012-12-10T17:20:53-0500
_audit_creation_method            fapswitch 2.2
_symmetry_space_group_name_H-M    P1
_symmetry_Int_Tables_number       1
_space_group_crystal_system       triclinic
_cell_length_a                    14.340804
_cell_length_b                    10.80536
_cell_length_c                    9.612656
_cell_angle_alpha                 89.922267
_cell_angle_beta                  89.920616
_cell_angle_gamma                 92.078051
_cell_volume                      1488.57112487

loop_
_atom_site_label
_atom_site_type_symbol
_atom_type_description
_atom_site_fract_x
_atom_site_fract_y
_atom_site_fract_z
_atom_type_partial_charge
C1    C     C_R   0.497985 0.262767 0.500124 0.798165
C2    C     C_1   0.771138 0.500212 0.499786 -0.147533
C3    C     C_R   0.342019 0.125834 0.627343 -0.272473
C4    C     C_R   0.267767 0.060325 0.689269 -0.317129
C5    C     C_R   0.265139 0.931810 0.688962 0.636551
C6    C     C_R   0.336938 0.867514 0.627022 0.521794
C7    C     C_R   0.414796 0.931955 0.565579 -0.176951
C8    C     C_R   0.416571 0.063315 0.565785 0.038031
C9    C     C_R   0.491583 0.129004 0.500541 -0.129724
C10   C     C_R   0.562376 0.067029 0.434056 -0.234641
C11   C     C_R   0.562107 0.939351 0.435030 0.581592
C12   C     C_R   0.331182 0.498214 0.500046 0.861259
C13   C     C_R   0.489787 0.871054 0.500565 -0.200514
C14   C     C_R   0.624463 0.662957 0.142955 -0.205376
C15   C     C_R   0.685568 0.742182 0.070537 0.672347
C16   C     C_R   0.685086 0.742711 0.927315 -0.297024
C17   C     C_R   0.623958 0.663660 0.855581 -0.239303
C18   C     C_R   0.560766 0.580512 0.924911 0.222700
C19   C     C_R   0.560865 0.580332 0.074368 0.104443
C20   C     C_R   0.442173 0.423364 0.074060 -0.022683
C21   C     C_R   0.442222 0.423353 0.926293 -0.020817
C22   C     C_R   0.496128 0.737214 0.500116 0.946443
C23   C     C_R   0.668781 0.500257 0.499900 0.800568
C24   C     C_1   0.228802 0.498167 0.500156 -0.111982
C25   C     C_1   0.143372 0.498494 0.500195 0.036562
C26   C     C_1   0.042694 0.499053 0.500123 0.046473
C27   C     C_1   0.957258 0.499528 0.499999 0.045555
C28   C     C_1   0.856574 0.499988 0.499845 0.032205
Cu1   Cu    Cu3+1 0.499990 0.499990 0.640660 0.984226
Cu2   Cu    Cu3+1 0.500010 0.500010 0.359340 0.967465
H1    H     H_    0.732652 0.804711 0.870870 0.199037
H2    H     H_    0.630039 0.672077 0.746025 0.222396
H3    H     H_    0.339372 0.225681 0.626651 0.166655
H4    H     H_    0.211320 0.109658 0.736015 0.196527
H5    H     H_    0.394782 0.360444 0.129255 0.135517
H6    H     H_    0.630515 0.670534 0.252398 0.248144
N1    N     N_R   0.500820 0.501210 0.147910 -0.178511
N2    N     N_R   0.500850 0.501290 0.852040 -0.176604
O1    O     O_R   0.499990 0.319640 0.618810 -0.579287
O2    O     O_R   0.500000 0.319660 0.381240 -0.576577
O3    O     O_R   0.376050 0.499990 0.618810 -0.521392
O4    O     O_R   0.376060 0.500010 0.381240 -0.573798
O5    O     O_R   0.500000 0.680340 0.618760 -0.558616
O6    O     O_R   0.500010 0.680360 0.381190 -0.575898
O7    O     O_R   0.623940 0.499990 0.618760 -0.581905
O8    O     O_R   0.623950 0.500010 0.381190 -0.577680
H7    H     H_    0.619645 0.118223 0.384158 0.182166
H8    H     H_    0.394882 0.360396 0.871408 0.130953
F1    F     F_    0.191438 0.868694 0.747134 -0.611271
F2    F     F_    0.327049 0.742796 0.624805 -0.651564
F3    F     F_    0.634903 0.882096 0.375992 -0.645043
F4    F     F_    0.746031 0.818914 0.140298 -0.593483

loop_
_geom_bond_atom_site_label_1
_geom_bond_atom_site_label_2
_ccdc_geom_bond_type
Cu1   N2    S    
C12   O4    A    
C6    C7    A    
C23   O7    A    
C9    C10   A    
C12   C24   S    
C22   O5    A    
C21   H8    S    
C5    F1    S    
Cu1   O1    S    
C17   C18   A    
C18   N2    A    
Cu2   O2    S    
C7    C8    A    
C23   O8    A    
C15   F4    S    
Cu1   O5    S    
C16   H1    S    
C20   N1    A    
C11   C13   A    
Cu2   O6    S    
C26   C27   T    
Cu1   Cu2   S    
C22   O6    A    
C4    C5    A    
C13   C22   S    
C3    C8    A    
C14   H6    S    
C5    C6    A    
C4    H4    S    
C10   H7    S    
C11   F3    S    
C10   C11   A    
C3    H3    S    
C3    C4    A    
C7    C13   A    
C1    C9    S    
C24   C25   T    
Cu2   N1    S    
C12   O3    A    
C20   C21   A    
C18   C19   A    
C2    C23   S    
C17   H2    S    
C1    O1    A    
C14   C15   A    
Cu2   O4    S    
C2    C28   T    
C19   N1    A    
C1    O2    A    
Cu1   O3    S    
C25   C26   S    
C20   H5    S    
C14   C19   A    
Cu2   O8    S    
C6    F2    S    
C21   N2    A    
C15   C16   A    
C16   C17   A    
Cu1   O7    S    
C8    C9    A    
C27   C28   S    
