data_mof_unit_19374.cif
_audit_creation_date              2012-10-26T18:50:26-0400
_audit_creation_method            fapswitch 2.2
_symmetry_space_group_name_H-M    P1
_symmetry_Int_Tables_number       1
_space_group_crystal_system       triclinic
_cell_length_a                    9.625164
_cell_length_b                    10.773023
_cell_length_c                    15.404369
_cell_angle_alpha                 86.336035
_cell_angle_beta                  74.579983
_cell_angle_gamma                 90.15325
_cell_volume                      1536.3439741

loop_
_atom_site_label
_atom_site_type_symbol
_atom_type_description
_atom_site_fract_x
_atom_site_fract_y
_atom_site_fract_z
_atom_type_partial_charge
C1    C     C_R   0.998544 0.262565 0.503163 0.531088
C2    C     C_R   0.234733 0.427185 0.047961 0.023453
C3    C     C_R   0.328289 0.478584 0.093791 0.037091
C4    C     C_R   0.918652 0.500269 0.672193 0.524606
C5    C     C_R   0.089129 0.403994 0.091570 -0.057382
C6    C     C_R   0.031766 0.428903 0.182000 0.033605
C7    C     C_R   0.268439 0.508694 0.183441 -0.106177
C8    C     C_R   0.081387 0.116238 0.647502 -0.077798
C9    C     C_R   0.123244 0.045231 0.714802 0.396891
C10   C     C_R   0.123649 0.916101 0.714592 -0.072512
C11   C     C_R   0.082377 0.857263 0.647094 -0.165701
C12   C     C_R   0.676583 0.492900 0.909630 -0.014463
C13   C     C_R   0.041744 0.927395 0.577283 0.009000
C14   C     C_R   0.041252 0.058673 0.577499 -0.028299
C15   C     C_R   0.995608 0.128170 0.509309 0.010364
C16   C     C_R   0.998940 0.736955 0.502763 0.575520
C17   C     C_R   0.945422 0.068994 0.445234 -0.121579
C18   C     C_R   0.945825 0.940949 0.445047 -0.111161
C19   C     C_R   0.996478 0.870226 0.508903 0.036475
C20   C     C_R   0.702752 0.661046 0.377238 -0.192852
C21   C     C_R   0.664417 0.739971 0.314079 -0.169596
C22   C     C_R   0.523500 0.744630 0.311862 0.410567
C23   C     C_R   0.774329 0.534093 0.956751 0.065948
C24   C     C_R   0.418607 0.670402 0.372789 0.397280
C25   C     C_R   0.453100 0.582120 0.438426 0.095726
C26   C     C_R   0.602603 0.580153 0.439197 0.082540
C27   C     C_R   0.548769 0.423550 0.557728 0.015028
C28   C     C_R   0.080712 0.496092 0.327733 0.569804
C29   C     C_R   0.401225 0.423494 0.557689 -0.000511
C30   C     C_R   0.873954 0.504837 0.770905 0.007313
C31   C     C_R   0.123729 0.481339 0.229201 -0.031575
C32   C     C_R   0.921004 0.554022 0.911523 -0.101213
C33   C     C_R   0.970666 0.538599 0.819309 -0.151518
C34   C     C_R   0.528871 0.469181 0.956331 0.021693
C35   C     C_R   0.729160 0.481155 0.816261 -0.112459
C36   C     C_2   0.877102 0.396504 0.223402 0.287906
C37   C     C_R   0.478037 0.496841 0.048599 -0.008680
C38   C     C_R   0.579129 0.539255 0.092751 -0.054032
C39   C     C_R   0.724128 0.556845 0.047834 0.387693
C40   C     C_R   0.430848 0.416831 0.914011 -0.101865
C41   C     C_R   0.287014 0.397001 0.958961 -0.116583
Cu1   Cu    Cu3+1 0.140660 0.499990 0.500010 1.013081
Cu2   Cu    Cu3+1 0.859340 0.500010 0.499990 0.941008
F1    F     F_    0.815066 0.600055 0.093507 -0.655953
F2    F     F_    0.161299 0.101994 0.781395 -0.631158
F3    F     F_    0.486554 0.824579 0.250298 -0.561314
F4    F     F_    0.287707 0.694875 0.362598 -0.578293
H1    H     H_    0.019579 0.364902 0.054742 0.167787
H2    H     H_    0.332903 0.552980 0.220190 0.168185
H3    H     H_    0.325860 0.360632 0.605082 0.125812
H4    H     H_    0.216161 0.356381 0.923722 0.143864
H5    H     H_    0.997251 0.583736 0.946990 0.174966
H6    H     H_    0.083332 0.557323 0.785464 0.126237
H7    H     H_    0.658383 0.458078 0.776019 0.124130
H8    H     H_    0.550827 0.558030 0.162983 0.140200
H9    H     H_    0.461803 0.386099 0.846574 0.114320
H10   H     H_    0.809459 0.452646 0.272769 0.155220
H11   H     H_    0.908854 0.122512 0.393771 0.152219
H12   H     H_    0.078105 0.215936 0.652158 0.143109
H13   H     H_    0.154267 0.861034 0.767593 0.146504
H14   H     H_    0.080173 0.756781 0.651495 0.138932
H15   H     H_    0.909392 0.896799 0.393495 0.130626
H16   H     H_    0.583140 0.360639 0.605211 0.121971
H17   H     H_    0.813511 0.667867 0.373913 0.210413
H18   H     H_    0.744962 0.799382 0.267119 0.189369
N1    N     N_R   0.648320 0.501210 0.499140 -0.229580
N2    N     N_R   0.352470 0.501290 0.499110 -0.236707
O1    O     O_R   0.118810 0.319640 0.500010 -0.505829
O2    O     O_R   0.881240 0.319660 0.500000 -0.501163
O3    O     O_R   0.055570 0.499980 0.629840 -0.526385
O4    O     O_R   0.818000 0.500010 0.629830 -0.507884
O5    O     O_R   0.118760 0.680340 0.500000 -0.422423
O6    O     O_R   0.881190 0.680360 0.499990 -0.526479
O7    O     O_R   0.182000 0.499990 0.370170 -0.426501
O8    O     O_R   0.944430 0.500020 0.370160 -0.549771
O9    O     O_2   0.821208 0.307365 0.199674 -0.492148

loop_
_geom_bond_atom_site_label_1
_geom_bond_atom_site_label_2
_ccdc_geom_bond_type
Cu2   O6    S    
C9    F2    S    
C27   C29   A    
C34   C37   A    
C25   N2    A    
C28   O7    A    
C4    O3    A    
C12   C23   A    
C30   C35   A    
C34   C40   A    
C3    C7    A    
C16   C19   S    
C8    H12   S    
C38   C39   A    
C2    C41   A    
Cu1   O3    S    
C1    O1    A    
C18   C19   A    
C32   H5    S    
C36   O9    D    
C29   N2    A    
C38   H8    S    
C8    C9    A    
C40   H9    S    
C16   O5    A    
C8    C14   A    
C1    C15   S    
C9    C10   A    
C17   H11   S    
C6    C31   A    
Cu2   O2    S    
C21   C22   A    
C35   H7    S    
Cu1   O1    S    
C29   H3    S    
C33   H6    S    
C5    H1    S    
Cu1   O7    S    
C7    C31   A    
C13   C19   A    
C16   O6    A    
C26   N1    A    
C24   C25   A    
C7    H2    S    
C36   H10   S    
C18   H15   S    
C25   C26   A    
C1    O2    A    
C20   H17   S    
C10   H13   S    
C37   C38   A    
Cu1   O5    S    
C17   C18   A    
C12   C35   A    
C27   H16   S    
C40   C41   A    
C22   F3    S    
Cu1   N2    S    
C22   C24   A    
C2    C5    A    
Cu1   Cu2   S    
C12   C34   A    
Cu2   O8    S    
C15   C17   A    
Cu2   O4    S    
C30   C33   A    
C21   H18   S    
C24   F4    S    
C28   C31   S    
C11   H14   S    
C39   F1    S    
C23   C32   A    
C2    C3    A    
C27   N1    A    
C32   C33   A    
C11   C13   A    
C5    C6    A    
C20   C26   A    
Cu2   N1    S    
C23   C39   A    
C6    C36   S    
C10   C11   A    
C20   C21   A    
C3    C37   A    
C14   C15   A    
C13   C14   A    
C28   O8    A    
C41   H4    S    
C4    O4    A    
C4    C30   S    
