data_mof_unit_29882.cif
_audit_creation_date              2013-03-05T16:04:35-0500
_audit_creation_method            fapswitch 2.2
_symmetry_space_group_name_H-M    P1
_symmetry_Int_Tables_number       1
_space_group_crystal_system       triclinic
_cell_length_a                    8.240997
_cell_length_b                    14.2492
_cell_length_c                    18.84461
_cell_angle_alpha                 97.14041
_cell_angle_beta                  91.238874
_cell_angle_gamma                 91.583454
_cell_volume                      2194.17678891

loop_
_atom_site_label
_atom_site_type_symbol
_atom_site_description
_atom_site_fract_x
_atom_site_fract_y
_atom_site_fract_z
_atom_type_partial_charge
P1    P     P_3+3 0.061800 0.409390 0.339760 0.473240
O1    O     O_2   0.887710 0.436190 0.327560 -0.332949
O2    O     O_3   0.135370 0.443490 0.416520 -0.401588
O3    O     O_3   0.634420 0.609440 0.364670 -0.317568
O4    O     O_2   0.752228 0.526962 0.244630 -0.358135
O5    O     O_3   0.021909 0.286874 0.330785 -0.602370
O6    O     O_3   0.698075 0.701354 0.238679 -0.534674
C1    C     C_3   0.622276 0.831578 0.173672 0.009317
P2    P     P_3+3 0.622760 0.718740 0.547830 0.471058
P3    P     P_3+3 0.060036 0.781748 0.397458 0.544438
O7    O     O_2   0.795290 0.730930 0.525800 -0.371874
O8    O     O_3   0.044470 0.660110 0.398750 -0.368981
O9    O     O_2   0.920699 0.827807 0.441190 -0.333312
O10   O     O_3   0.633523 0.751135 0.640701 -0.582101
O11   O     O_3   0.016328 0.803206 0.309818 -0.419843
C2    C     C_3   0.141689 0.769818 0.264635 0.482695
H1    H     H_    0.241626 0.735552 0.291581 -0.014431
H2    H     H_    0.194522 0.830826 0.240864 0.117663
C3    C     C_3   0.072360 0.698924 0.204069 -0.873470
H3    H     H_    0.028667 0.634086 0.225564 0.266513
H4    H     H_    0.970298 0.728749 0.176226 0.296806
C4    C     C_3   0.179903 0.751909 0.613668 0.359380
H5    H     H_    0.305194 0.732316 0.600344 0.097149
H6    H     H_    0.095311 0.726840 0.568195 0.130960
C5    C     C_3   0.172106 0.859002 0.628234 -0.879352
H7    H     H_    0.255938 0.885875 0.673551 0.308603
H8    H     H_    0.207246 0.891991 0.580424 0.217233
H9    H     H_    0.046546 0.879305 0.642254 0.236915
Ba1   Ba    Ba6+2 0.843240 0.541620 0.463500 1.612267
C6    C     C_3   0.167187 0.239887 0.329881 0.347190
H10   H     H_    0.220615 0.253725 0.383100 0.148305
H11   H     H_    0.250322 0.264065 0.290006 0.179491
C7    C     C_3   0.135917 0.133472 0.314021 -0.807013
H12   H     H_    0.060228 0.108082 0.356242 0.213552
H13   H     H_    0.253239 0.096877 0.313162 0.237233
H14   H     H_    0.073403 0.115219 0.261224 0.309437
C8    C     C_3   0.682966 0.674835 0.675217 0.342251
H15   H     H_    0.809077 0.658020 0.660977 0.084048
H16   H     H_    0.602677 0.611363 0.660150 0.132433
C9    C     C_3   0.672370 0.701596 0.756311 -0.626683
H17   H     H_    0.691001 0.638200 0.783910 0.179709
H18   H     H_    0.548907 0.726982 0.769383 0.237514
P4    P     P_3+3 0.127890 0.590690 0.660240 0.449381
O12   O     O_2   0.301980 0.563840 0.672490 -0.375012
O13   O     O_3   0.054330 0.556590 0.583490 -0.400065
O14   O     O_3   0.555270 0.390630 0.635330 -0.360667
O15   O     O_3   0.136913 0.714346 0.675819 -0.582048
P5    P     P_3+3 0.130072 0.216200 0.600209 0.480922
O16   O     O_3   0.637720 0.384870 0.467990 -0.353021
O17   O     O_3   0.145220 0.339960 0.601250 -0.398531
O18   O     O_2   0.286664 0.174090 0.567636 -0.347922
O19   O     O_3   0.138217 0.187883 0.688076 -0.489438
Ba2   Ba    Ba6+2 0.346570 0.458460 0.536510 1.572676
P6    P     P_3+3 0.621801 0.597804 0.270433 0.513868
C10   C     C_3   0.575256 0.766897 0.231382 0.545436
H19   H     H_    0.458053 0.730488 0.213505 -0.045504
H20   H     H_    0.528631 0.886175 0.172524 0.124217
O20   O     O_3   0.551980 0.615210 0.532020 -0.399859
C11   C     C_3   0.635294 0.238985 0.304140 0.699759
H21   H     H_    0.733082 0.290650 0.322791 0.100514
C12   C     C_3   0.699528 0.138569 0.296604 -0.794751
H22   H     H_    0.768165 0.126173 0.345507 0.195642
H23   H     H_    0.597328 0.085635 0.287397 0.281180
H24   H     H_    0.782214 0.128031 0.250879 0.282552
P7    P     P_3+3 0.567912 0.267561 0.440796 0.411292
O21   O     O_2   0.394410 0.269100 0.474240 -0.366651
O22   O     O_3   0.506859 0.246886 0.350911 -0.653678
H25   H     H_    0.167564 0.681311 0.164396 0.176375
C13   C     C_3   0.123922 0.270793 0.735868 0.473579
H26   H     H_    0.229188 0.319443 0.731792 0.175724
H27   H     H_    0.011139 0.307460 0.724847 0.015117
C14   C     C_3   0.119835 0.245472 0.811836 -0.889911
H28   H     H_    0.230658 0.207228 0.823884 0.305455
H29   H     H_    0.115601 0.310736 0.850363 0.215288
H30   H     H_    0.010736 0.200079 0.818309 0.243247
P8    P     P_3+3 0.574391 0.394893 0.727403 0.429737
C15   C     C_3   0.633140 0.218076 0.702512 0.299947
H31   H     H_    0.760061 0.246041 0.702691 -0.028577
O23   O     O_2   0.433423 0.454226 0.759847 -0.407649
O24   O     O_3   0.534631 0.279209 0.746170 -0.538984
H32   H     H_    0.584686 0.208317 0.646460 0.136757
H33   H     H_    0.673660 0.133224 0.788583 0.132135
C16   C     C_3   0.638552 0.122303 0.730747 -0.099017
H34   H     H_    0.732330 0.078688 0.702171 0.069378
C17   C     C_R   0.008005 0.449932 0.047841 -0.025861
C18   C     C_R   0.915909 0.414185 0.101195 -0.286999
C19   C     C_R   0.818042 0.384636 0.945719 -0.021834
C20   C     C_R   0.953558 0.443280 0.974525 0.050596
C21   C     C_R   0.753891 0.393847 0.878295 -0.173540
C22   C     C_R   0.833564 0.446851 0.831454 -0.038531
C23   C     C_R   0.981401 0.495300 0.854378 0.003032
C24   C     C_R   0.041163 0.494993 0.926501 0.010518
C25   C     C_R   0.775267 0.446503 0.760307 0.171594
C26   C     C_R   0.871774 0.485792 0.710878 -0.514718
C27   C     C_R   0.016847 0.535395 0.731504 0.243071
C28   C     C_R   0.069286 0.543528 0.805004 -0.060045
C29   C     C_R   0.162595 0.490740 0.068790 0.067926
C30   C     C_R   0.221608 0.490335 0.141076 0.014851
C31   C     C_R   0.128571 0.445907 0.191146 -0.167170
C32   C     C_R   0.990733 0.391963 0.163967 0.455198
H35   H     H_    0.829989 0.480870 0.655694 0.181228
H36   H     H_    0.647157 0.350951 0.861062 0.191455
C33   C     C_R   0.203650 0.600398 0.831162 -0.069616
C34   C     C_R   0.261524 0.603894 0.901892 0.004609
C35   C     C_R   0.190320 0.543873 0.949309 0.007083
C36   C     C_R   0.258305 0.532263 0.018553 0.067451
C37   C     C_R   0.422167 0.554944 0.038491 -0.229258
C38   C     C_R   0.376308 0.530857 0.162217 0.047037
C39   C     C_R   0.478917 0.556066 0.108994 -0.199057
C40   C     C_R   0.424623 0.542116 0.235411 0.158480
C41   C     C_R   0.323617 0.506647 0.285449 -0.367905
C42   C     C_R   0.178864 0.455849 0.265205 0.198811
H37   H     H_    0.262802 0.646415 0.797523 0.159605
H38   H     H_    0.604776 0.575871 0.121152 0.156559
H39   H     H_    0.361750 0.515551 0.341239 0.164787
H40   H     H_    0.791349 0.391516 0.092059 0.182809
H41   H     H_    0.510421 0.569816 0.999872 0.140637
C43   C     C_R   0.692372 0.940833 0.537751 -0.081036
C44   C     C_R   0.505377 0.802467 0.500626 0.289229
C45   C     C_R   0.362277 0.767552 0.464163 -0.470949
C46   C     C_R   0.256147 0.828385 0.435386 0.176730
C47   C     C_R   0.297288 0.923876 0.437533 -0.207820
C48   C     C_R   0.446324 0.959371 0.468174 0.138929
C49   C     C_R   0.548781 0.900343 0.503361 0.036559
H42   H     H_    0.328551 0.693274 0.461799 0.160210
C50   C     C_R   0.643954 0.090657 0.491257 0.008104
C51   C     C_R   0.742646 0.034137 0.530336 0.084655
C52   C     C_R   0.698555 0.183139 0.481857 0.111214
C53   C     C_R   0.856175 0.215329 0.507362 -0.284469
C54   C     C_R   0.946843 0.161963 0.550882 0.222974
C55   C     C_R   0.890957 0.071432 0.561538 -0.347968
C56   C     C_R   0.494619 0.052726 0.462082 -0.073563
H43   H     H_    0.215169 0.969647 0.413386 0.140147
H44   H     H_    0.963257 0.030310 0.594306 0.173971
H45   H     H_    0.769084 0.899983 0.568654 0.145805
H46   H     H_    0.416617 0.093832 0.431910 0.141758
N1    N     N_R   0.553161 0.825668 0.299591 0.221084
O25   O     O_R   0.458364 0.897428 0.302527 -0.510767
O26   O     O_R   0.645521 0.815777 0.354747 -0.301184
N2    N     N_R   0.779769 0.881252 0.190160 0.287044
O27   O     O_R   0.884806 0.886778 0.140097 -0.373487
O28   O     O_R   0.804341 0.933984 0.251082 -0.325075
N3    N     N_3   0.793133 0.775007 0.783658 -0.169601
H47   H     H_    0.908987 0.749103 0.773755 0.166077
H48   H     H_    0.779625 0.833795 0.756130 0.195553
N4    N     N_R   0.572526 0.260246 0.235031 0.255115
O29   O     O_R   0.476646 0.199469 0.195950 -0.335152
O30   O     O_R   0.584590 0.346367 0.219263 -0.400106
N5    N     N_3   0.622685 0.778084 0.102148 -0.190523
H49   H     H_    0.506785 0.748052 0.090128 0.069188
H50   H     H_    0.705173 0.723626 0.101642 0.136288
N6    N     N_R   0.481700 0.072110 0.720049 0.288551
O31   O     O_R   0.427556 0.042327 0.655632 -0.391150
O32   O     O_R   0.402138 0.049621 0.774667 -0.366271
N7    N     N_R   0.975391 0.294884 0.176437 0.234469
O33   O     O_R   0.107560 0.247259 0.176767 -0.383450
O34   O     O_R   0.841755 0.247300 0.156972 -0.379876
N8    N     N_3   0.761607 0.301851 0.975256 -0.200191
H51   H     H_    0.853208 0.272553 0.003913 0.180549
H52   H     H_    0.656705 0.316115 0.004369 0.155700
N9    N     N_3   0.375827 0.679749 0.925347 -0.208341
H53   H     H_    0.359882 0.706056 0.978872 0.132716
H54   H     H_    0.493947 0.657758 0.915373 0.115322
N10   N     N_3   0.926009 0.302610 0.489525 -0.132278
H55   H     H_    0.047816 0.291701 0.478198 0.163461
H56   H     H_    0.881903 0.313708 0.439507 0.169103

loop_
_geom_bond_atom_site_label_1
_geom_bond_atom_site_label_2
_geom_bond_distance
_ccdc_geom_bond_type
C10   H19   1.109208 S    
C25   C26   1.396655 A    
Ba2   O20   2.775913 S    
C48   C56   1.397057 A    
N7    O34   1.298685 A    
C27   C28   1.431804 A    
P8    O23   1.547466 D    
O6    C10   1.411994 S    
C19   C20   1.431650 A    
P3    C46   1.826756 S    
C52   C53   1.419124 A    
C33   H37   1.080941 S    
O14   P8    1.732192 S    
N9    H53   1.043842 S    
C48   C49   1.419069 A    
Ba1   O16   2.776446 S    
C15   H31   1.108737 S    
C5    H9    1.110658 S    
N1    O26   1.299093 A    
C50   C51   1.417809 A    
O16   P7    1.763191 S    
O1    Ba1   2.840415 S    
N10   H55   1.042597 S    
C3    H4    1.104295 S    
N2    O28   1.300269 A    
N4    O29   1.301986 A    
C8    C9    1.533327 S    
P3    O11   1.748343 S    
N5    H50   1.044960 S    
P1    C42   1.896680 S    
C17   C18   1.409023 A    
C6    H10   1.079577 S    
O8    Ba1   2.744908 S    
C15   O24   1.408732 S    
C36   C37   1.411703 A    
C15   C16   1.526537 S    
O11   C2    1.408233 S    
C7    H14   1.108632 S    
C30   C38   1.413366 A    
C38   C39   1.399811 A    
P6    C40   1.859522 S    
C18   H40   1.071388 S    
P2    O20   1.562350 S    
C13   H27   1.107002 S    
C40   C41   1.402354 A    
O19   C13   1.403029 S    
C11   O22   1.389973 S    
C23   C28   1.422363 A    
O12   Ba2   2.840909 S    
P4    Ba2   3.392869 S    
P5    O18   1.545201 D    
C3    H3    1.108260 S    
C26   H35   1.081665 S    
C2    H1    1.113698 S    
P7    O22   1.743554 S    
C4    C5    1.519927 S    
P4    C27   1.880969 S    
C15   H32   1.112064 S    
C18   C32   1.397184 A    
O3    Ba1   2.786518 S    
C6    C7    1.522308 S    
P2    Ba1   3.402603 S    
C55   H44   1.083042 S    
C9    H18   1.111664 S    
C4    O15   1.395375 S    
O13   Ba2   2.917133 S    
C11   H21   1.097984 S    
N8    H52   1.045057 S    
C37   C39   1.396992 A    
P5    C54   1.854088 S    
C12   H22   1.106280 S    
C14   H30   1.110768 S    
C1    C10   1.558829 S    
P1    Ba1   3.392433 S    
C34   C35   1.434974 A    
N9    H54   1.044604 S    
C29   C30   1.437210 A    
N7    O33   1.299434 A    
N4    O30   1.299713 A    
C11   C12   1.530450 S    
O17   Ba2   2.745488 S    
P1    O5    1.754080 S    
P7    C52   1.863297 S    
C20   C24   1.431024 A    
O4    P6    1.539890 D    
N2    O27   1.302125 A    
C14   H29   1.108245 S    
C23   C24   1.436134 A    
C45   H42   1.082097 S    
C5    H7    1.109852 S    
C44   C49   1.424570 A    
C53   N10   1.436537 S    
Ba1   O13   2.806072 S    
P1    O2    1.570715 S    
C12   H24   1.108254 S    
P2    O10   1.753295 S    
C47   H43   1.084103 S    
C8    H15   1.104245 S    
P8    C25   1.854902 S    
P4    O13   1.570519 S    
C16   H34   1.111219 S    
C50   C56   1.403234 A    
C56   H46   1.080458 S    
C21   H36   1.077665 S    
C12   H23   1.111046 S    
C7    H12   1.110639 S    
C3    H25   1.107736 S    
C43   C49   1.410422 A    
Ba1   O20   2.909410 S    
Ba2   O21   2.846843 S    
P2    O7    1.501295 D    
C46   C47   1.388608 A    
P3    O8    1.737672 S    
C39   H38   1.079540 S    
C29   C36   1.419229 A    
C32   N7    1.434281 S    
C9    H17   1.109557 S    
O5    C6    1.387180 S    
N6    O32   1.300585 A    
C30   C31   1.425435 A    
C26   C27   1.394589 A    
C19   C21   1.388269 A    
P4    O12   1.515232 D    
N8    H51   1.044799 S    
P2    C44   1.854943 S    
C4    H6    1.110042 S    
C9    N3    1.461690 S    
C43   C51   1.406061 A    
C34   N9    1.434548 S    
C13   C14   1.520062 S    
C45   C46   1.395944 A    
C22   C25   1.413778 A    
C16   N6    1.457681 S    
C35   C36   1.439146 A    
C17   C20   1.434384 A    
N3    H48   1.045890 S    
C50   C52   1.413904 A    
C41   C42   1.398731 A    
O3    P6    1.763475 S    
P8    O24   1.752066 S    
C14   H28   1.109913 S    
P3    O9    1.541609 D    
C44   C45   1.399265 A    
C5    H8    1.107076 S    
N1    O25   1.300328 A    
C10   N1    1.462062 S    
C19   N8    1.435878 S    
C1    N2    1.469420 S    
N10   H56   1.034893 S    
C1    N5    1.463780 S    
C53   C54   1.403252 A    
C8    H16   1.109673 S    
C31   C32   1.404345 A    
O10   C8    1.399984 S    
C6    H11   1.107387 S    
O2    Ba2   2.806616 S    
O2    Ba1   2.916366 S    
C22   C23   1.415682 A    
Ba1   Ba2   4.520063 S    
C2    C3    1.517516 S    
O16   Ba2   2.908646 S    
C31   C42   1.436032 A    
P1    O1    1.514868 D    
O14   Ba2   2.785843 S    
P5    O17   1.762087 S    
C7    H13   1.110594 S    
C38   C40   1.415806 A    
C54   C55   1.397161 A    
P7    O21   1.574601 D    
C13   H26   1.105390 S    
C51   C55   1.406181 A    
C17   C29   1.413234 A    
C11   N4    1.460509 S    
C24   C35   1.426951 A    
P5    O19   1.752655 S    
N6    O31   1.300309 A    
O7    Ba1   2.846529 S    
C2    H2    1.109163 S    
H33   C16   1.112430 S    
C28   C33   1.397595 A    
C33   C34   1.400430 A    
C47   C48   1.400037 A    
C4    H5    1.103092 S    
C41   H39   1.081906 S    
O6    P6    1.764881 S    
C21   C22   1.394308 A    
N5    H49   1.044348 S    
P4    O15   1.749159 S    
C37   H41   1.075276 S    
C1    H20   1.112606 S    
C43   H45   1.079953 S    
N3    H47   1.045307 S    
