data_mof_unit_61227.cif
_audit_creation_date              2013-03-05T16:24:09-0500
_audit_creation_method            fapswitch 2.2
_symmetry_space_group_name_H-M    P1
_symmetry_Int_Tables_number       1
_space_group_crystal_system       triclinic
_cell_length_a                    28.498066
_cell_length_b                    18.371151
_cell_length_c                    21.796536
_cell_angle_alpha                 89.955379
_cell_angle_beta                  139.862681
_cell_angle_gamma                 89.873837
_cell_volume                      7355.96993068

loop_
_atom_site_label
_atom_site_type_symbol
_atom_site_description
_atom_site_fract_x
_atom_site_fract_y
_atom_site_fract_z
_atom_type_partial_charge
O1    O     O_R   0.894200 0.438770 0.894190 -0.574836
O2    O     O_R   0.105800 0.561230 0.105810 -0.574835
O3    O     O_R   0.105800 0.438770 0.105810 -0.592741
O4    O     O_R   0.894200 0.561230 0.894190 -0.592738
O5    O     O_R   0.394200 0.938770 0.894190 -0.574836
O6    O     O_R   0.605800 0.061230 0.105810 -0.574836
O7    O     O_R   0.605800 0.938770 0.105810 -0.592738
O8    O     O_R   0.394200 0.061230 0.894190 -0.592738
C1    C     C_R   0.860096 0.500134 0.860073 0.829415
C2    C     C_R   0.139903 0.499866 0.139927 0.829409
C3    C     C_R   0.360096 0.000134 0.860073 0.829417
C4    C     C_R   0.639903 0.999866 0.139927 0.829417
O9    O     O_R   0.999990 0.438770 0.909810 -0.577601
O10   O     O_R   0.000010 0.561230 0.090190 -0.577611
O11   O     O_R   0.000010 0.438770 0.090190 -0.590692
O12   O     O_R   0.999990 0.561230 0.909810 -0.590693
O13   O     O_R   0.499990 0.938770 0.909810 -0.577613
O14   O     O_R   0.500010 0.061230 0.090190 -0.577612
O15   O     O_R   0.500010 0.938770 0.090190 -0.590693
O16   O     O_R   0.499990 0.061230 0.909810 -0.590693
C5    C     C_R   0.998624 0.500041 0.879785 0.808210
C6    C     C_R   0.001375 0.499959 0.120214 0.808222
C7    C     C_R   0.498625 0.000041 0.879786 0.808224
C8    C     C_R   0.501375 0.999959 0.120214 0.808225
Cu1   Cu    Cu3+1 0.000000 0.427490 0.000000 0.954888
Cu2   Cu    Cu3+1 0.000000 0.572510 0.000000 0.954882
Cu3   Cu    Cu3+1 0.500000 0.927490 0.000000 0.954881
Cu4   Cu    Cu3+1 0.500000 0.072510 0.000000 0.954881
C9    C     C_R   0.894526 0.587548 0.707414 -0.136350
C10   C     C_R   0.105473 0.412451 0.292585 -0.136349
C11   C     C_R   0.394527 0.087549 0.707415 -0.136349
C12   C     C_R   0.605473 0.912451 0.292585 -0.136349
H1    H     H_    0.883925 0.581326 0.745291 0.143413
H2    H     H_    0.116074 0.418673 0.254708 0.143414
H3    H     H_    0.383926 0.081327 0.745292 0.143413
H4    H     H_    0.616074 0.918673 0.254708 0.143413
C13   C     C_R   0.851877 0.637945 0.633098 -0.135015
C14   C     C_R   0.148121 0.362053 0.366900 -0.135015
C15   C     C_R   0.351879 0.137947 0.633100 -0.135015
C16   C     C_R   0.648120 0.862053 0.366899 -0.135015
H5    H     H_    0.811384 0.669830 0.616853 0.131435
H6    H     H_    0.188614 0.330167 0.383144 0.131435
H7    H     H_    0.311387 0.169834 0.616856 0.131435
H8    H     H_    0.688613 0.830166 0.383144 0.131435
C17   C     C_R   0.862106 0.648162 0.580798 -0.135008
C18   C     C_R   0.137891 0.351836 0.419200 -0.135007
C19   C     C_R   0.362109 0.148165 0.580800 -0.135007
C20   C     C_R   0.637891 0.851835 0.419200 -0.135007
H9    H     H_    0.830230 0.688656 0.524650 0.131441
H10   H     H_    0.169767 0.311341 0.475347 0.131441
H11   H     H_    0.330233 0.188659 0.524653 0.131441
H12   H     H_    0.669767 0.811341 0.475347 0.131441
C21   C     C_R   0.912503 0.605502 0.599557 -0.136308
C22   C     C_R   0.087496 0.394497 0.400441 -0.136309
C23   C     C_R   0.412504 0.105503 0.599559 -0.136308
C24   C     C_R   0.587495 0.894497 0.400441 -0.136309
H13   H     H_    0.918735 0.616093 0.557310 0.143399
H14   H     H_    0.081264 0.383906 0.442689 0.143397
H15   H     H_    0.418736 0.116094 0.557311 0.143398
H16   H     H_    0.581264 0.883906 0.442689 0.143397
C25   C     C_R   0.953937 0.551334 0.671709 0.048920
C26   C     C_R   0.046063 0.448666 0.328291 0.048918
C27   C     C_R   0.453937 0.051334 0.671709 0.048917
C28   C     C_R   0.546063 0.948666 0.328291 0.048918
C29   C     C_R   0.948694 0.546102 0.730895 0.048896
C30   C     C_R   0.051305 0.453898 0.269105 0.048898
C31   C     C_R   0.448694 0.046102 0.730895 0.048899
C32   C     C_R   0.551306 0.953898 0.269105 0.048899
C33   C     C_R   0.997831 0.500175 0.812036 -0.150947
C34   C     C_R   0.002170 0.499826 0.187965 -0.150957
C35   C     C_R   0.497830 0.000174 0.812035 -0.150958
C36   C     C_R   0.502170 0.999826 0.187965 -0.150958
C37   C     C_R   0.048270 0.455861 0.830444 0.150218
C38   C     C_R   0.951731 0.544141 0.169558 0.150210
C39   C     C_R   0.548268 0.955859 0.830442 0.150209
C40   C     C_R   0.451732 0.044141 0.169558 0.150208
C41   C     C_R   0.044173 0.451755 0.762031 0.150167
C42   C     C_R   0.955829 0.548247 0.237971 0.150180
C43   C     C_R   0.544171 0.951753 0.762028 0.150182
C44   C     C_R   0.455829 0.048247 0.237972 0.150182
C45   C     C_R   0.999861 0.502186 0.685658 -0.150921
C46   C     C_R   0.000140 0.497815 0.314343 -0.150914
C47   C     C_R   0.499860 0.002185 0.685657 -0.150913
C48   C     C_R   0.500140 0.997815 0.314343 -0.150913
C49   C     C_1   0.782551 0.500372 0.782515 -0.178873
C50   C     C_1   0.217449 0.499628 0.217485 -0.178871
C51   C     C_1   0.282551 0.000372 0.782515 -0.178874
C52   C     C_1   0.717449 0.999628 0.217485 -0.178874
C53   C     C_1   0.717246 0.500318 0.717213 -0.168084
C54   C     C_1   0.282754 0.499681 0.282787 -0.168083
C55   C     C_1   0.217246 0.000318 0.717213 -0.168084
C56   C     C_1   0.782754 0.999681 0.282787 -0.168083
O17   O     O_R   0.061240 0.605830 0.561270 -0.574891
O18   O     O_R   0.938760 0.394170 0.438730 -0.574891
O19   O     O_R   0.938760 0.605830 0.438730 -0.592789
O20   O     O_R   0.061240 0.394170 0.561270 -0.592788
O21   O     O_R   0.561240 0.105830 0.561270 -0.574891
O22   O     O_R   0.438760 0.894170 0.438730 -0.574890
O23   O     O_R   0.438760 0.105830 0.438730 -0.592789
O24   O     O_R   0.561240 0.894170 0.561270 -0.592790
C57   C     C_R   0.999866 0.639927 0.499883 0.829385
C58   C     C_R   0.000134 0.360073 0.500117 0.829389
C59   C     C_R   0.499866 0.139927 0.499883 0.829383
C60   C     C_R   0.500134 0.860073 0.500117 0.829383
O25   O     O_R   0.061260 0.500000 0.651450 -0.577620
O26   O     O_R   0.938740 0.500000 0.348550 -0.577611
O27   O     O_R   0.561260 0.000000 0.651450 -0.577610
O28   O     O_R   0.438740 0.000000 0.348550 -0.577610
O29   O     O_R   0.938780 0.500000 0.528960 -0.590759
O30   O     O_R   0.061220 0.500000 0.471040 -0.590759
O31   O     O_R   0.438780 0.000000 0.528960 -0.590759
O32   O     O_R   0.561220 0.000000 0.471040 -0.590759
C61   C     C_R   0.999984 0.501367 0.618825 0.808180
C62   C     C_R   0.000016 0.498633 0.381175 0.808170
C63   C     C_R   0.499984 0.001367 0.618825 0.808170
C64   C     C_R   0.500016 0.998633 0.381175 0.808169
Cu5   Cu    Cu3+1 0.072520 0.500000 0.572540 0.954908
Cu6   Cu    Cu3+1 0.927480 0.500000 0.427460 0.954914
Cu7   Cu    Cu3+1 0.572520 0.000000 0.572540 0.954914
Cu8   Cu    Cu3+1 0.427480 0.000000 0.427460 0.954915
O33   O     O_R   0.500010 0.605810 0.447830 -0.583330
O34   O     O_R   0.499990 0.394190 0.552170 -0.583329
O35   O     O_R   0.499990 0.605810 0.552170 -0.581953
O36   O     O_R   0.500010 0.394190 0.447830 -0.581954
O37   O     O_R   0.000010 0.105810 0.447830 -0.583330
O38   O     O_R   0.999990 0.894190 0.552170 -0.583329
O39   O     O_R   0.999990 0.105810 0.552170 -0.581953
O40   O     O_R   0.000010 0.894190 0.447830 -0.581954
C65   C     C_R   0.500114 0.639686 0.500095 0.835956
C66   C     C_R   0.499886 0.360314 0.499905 0.835956
C67   C     C_R   0.000114 0.139685 0.500095 0.835956
C68   C     C_R   0.999886 0.860314 0.499905 0.835956
O41   O     O_R   0.605800 0.500000 0.553630 -0.583284
O42   O     O_R   0.394200 0.500000 0.446370 -0.583284
O43   O     O_R   0.105800 0.000000 0.553630 -0.583284
O44   O     O_R   0.894200 0.000000 0.446370 -0.583284
O45   O     O_R   0.605820 0.500000 0.658030 -0.581963
O46   O     O_R   0.394180 0.500000 0.341970 -0.581964
O47   O     O_R   0.105820 0.000000 0.658030 -0.581963
O48   O     O_R   0.894180 0.000000 0.341970 -0.581964
C69   C     C_R   0.639686 0.500114 0.639688 0.835855
C70   C     C_R   0.360314 0.499886 0.360311 0.835856
C71   C     C_R   0.139686 0.000114 0.639688 0.835855
C72   C     C_R   0.860314 0.999886 0.360311 0.835856
Cu9   Cu    Cu3+1 0.500000 0.500000 0.438200 0.968020
Cu10  Cu    Cu3+1 0.500000 0.500000 0.561800 0.968022
Cu11  Cu    Cu3+1 0.000000 0.000000 0.438200 0.968021
Cu12  Cu    Cu3+1 1.000000 0.000000 0.561800 0.968022
C73   C     C_1   0.999628 0.717464 0.499674 -0.178772
C74   C     C_1   0.000372 0.282536 0.500326 -0.178773
C75   C     C_1   0.499628 0.217464 0.499674 -0.178771
C76   C     C_1   0.500372 0.782536 0.500326 -0.178771
C77   C     C_1   0.499681 0.282763 0.499735 -0.168122
C78   C     C_1   0.500319 0.717237 0.500265 -0.168123
C79   C     C_1   0.999681 0.782763 0.499735 -0.168123
C80   C     C_1   0.000319 0.217237 0.500265 -0.168123
C81   C     C_3   0.108051 0.415302 0.924449 -0.805982
H17   H     H_    0.128257 0.447700 0.984056 0.220964
H18   H     H_    0.087265 0.362202 0.920341 0.241155
H19   H     H_    0.156659 0.405979 0.943821 0.227919
C82   C     C_3   0.891954 0.584702 0.075555 -0.805990
H20   H     H_    0.871725 0.552285 0.015944 0.220953
H21   H     H_    0.843359 0.594066 0.056200 0.227922
H22   H     H_    0.912754 0.637783 0.079647 0.241174
C83   C     C_3   0.608045 0.915297 0.924445 -0.805990
H23   H     H_    0.628277 0.947716 0.984056 0.220952
H24   H     H_    0.587243 0.862218 0.920354 0.241176
H25   H     H_    0.656639 0.905928 0.943798 0.227923
C84   C     C_3   0.391955 0.084703 0.075555 -0.805990
H26   H     H_    0.371723 0.052284 0.015944 0.220952
H27   H     H_    0.343361 0.094072 0.056202 0.227923
H28   H     H_    0.412756 0.137782 0.079646 0.241176
C85   C     C_3   0.084747 0.391982 0.768407 -0.805990
H29   H     H_    0.094190 0.343418 0.807118 0.227923
H30   H     H_    0.052296 0.371700 0.696609 0.220951
H31   H     H_    0.137794 0.412810 0.804695 0.241213
C86   C     C_3   0.915259 0.608024 0.231599 -0.805994
H32   H     H_    0.905849 0.656598 0.192924 0.227921
H33   H     H_    0.862198 0.587210 0.195273 0.241200
H34   H     H_    0.947697 0.628287 0.303397 0.220959
C87   C     C_3   0.584740 0.891975 0.768400 -0.805996
H35   H     H_    0.594145 0.843400 0.807070 0.227921
H36   H     H_    0.552305 0.871715 0.696602 0.220961
H37   H     H_    0.637803 0.912788 0.804732 0.241198
C88   C     C_3   0.415260 0.108025 0.231599 -0.805996
H38   H     H_    0.405855 0.156600 0.192930 0.227921
H39   H     H_    0.362196 0.087212 0.195268 0.241198
H40   H     H_    0.447695 0.128285 0.303398 0.220961

loop_
_geom_bond_atom_site_label_1
_geom_bond_atom_site_label_2
_geom_bond_distance
_ccdc_geom_bond_type
O23   C59   1.287862 A    
O14   Cu4   1.976345 S    
C83   H23   1.110246 S    
C23   H15   1.080413 S    
C42   C86   1.520063 S    
C84   H26   1.110246 S    
O28   Cu8   1.976140 S    
Cu11  Cu12  2.694052 S    
C44   C48   1.415063 A    
O9    Cu1   1.976345 S    
O44   Cu12  1.955009 S    
C82   H20   1.110245 S    
C85   H29   1.109477 S    
C11   C31   1.418045 A    
O13   C7    1.287067 A    
O26   C62   1.287169 A    
O26   Cu6   1.976140 S    
O14   C8    1.287067 A    
C28   C32   1.410793 A    
O25   C61   1.287167 A    
C67   C80   1.424724 S    
O11   C6    1.286784 A    
O5    C3    1.287336 A    
C51   C55   1.199698 T    
O6    C4    1.287336 A    
C65   C78   1.424724 S    
O37   Cu11  1.955291 S    
O22   C60   1.287413 A    
C88   H39   1.109995 S    
C9    C13   1.393100 A    
O20   C58   1.287860 A    
O46   Cu9   1.955062 S    
C37   C81   1.520061 S    
O24   C60   1.287860 A    
C68   C79   1.424724 S    
O7    Cu3   1.955505 S    
C10   C14   1.393100 A    
C21   C25   1.418045 A    
C16   C20   1.388435 A    
O37   C67   1.296533 A    
C28   C48   1.416496 A    
C1    C49   1.424532 S    
O23   Cu8   1.956124 S    
O5    Cu3   1.953718 S    
O47   C71   1.296627 A    
C53   C69   1.424826 S    
C81   H17   1.110253 S    
O6    Cu4   1.953716 S    
C52   C56   1.199698 T    
C9    H1    1.080409 S    
C3    C51   1.424532 S    
C86   H33   1.109997 S    
C23   C27   1.418045 A    
C34   C38   1.415075 A    
C41   C85   1.520065 S    
C44   C88   1.520064 S    
C24   C28   1.418046 A    
C33   C37   1.415075 A    
O38   C68   1.296533 A    
C19   H11   1.082650 S    
O15   Cu3   1.976666 S    
O30   C62   1.286882 A    
C16   H8    1.082650 S    
C31   C35   1.416492 A    
O29   C61   1.286885 A    
O39   Cu12  1.954965 S    
C12   C32   1.418045 A    
O43   C71   1.296707 A    
C26   C46   1.416498 A    
C17   C21   1.393099 A    
C83   H24   1.109997 S    
C74   C80   1.199635 T    
O35   C65   1.296428 A    
O1    Cu1   1.953718 S    
C84   H27   1.109482 S    
O32   Cu7   1.977086 S    
O25   Cu5   1.976140 S    
O17   Cu5   1.954337 S    
O40   C68   1.296428 A    
O30   Cu5   1.977086 S    
O27   Cu7   1.976140 S    
C82   H21   1.109485 S    
O29   Cu6   1.977085 S    
Cu9   Cu10  2.694052 S    
C55   C71   1.424826 S    
C87   H36   1.110249 S    
O19   Cu6   1.956124 S    
O12   Cu2   1.976666 S    
O7    C4    1.287787 A    
O42   Cu10  1.955009 S    
C27   C31   1.410793 A    
O47   Cu12  1.955057 S    
C10   H2    1.080411 S    
O9    C5    1.287071 A    
O13   Cu3   1.976345 S    
C7    C35   1.459485 S    
O20   Cu5   1.956127 S    
O3    Cu1   1.955505 S    
C26   C30   1.410791 A    
O1    C1    1.287336 A    
C46   C62   1.459483 S    
O2    Cu2   1.953716 S    
C50   C54   1.199698 T    
O17   C57   1.287412 A    
C49   C53   1.199698 T    
C88   H40   1.110249 S    
C15   H7    1.082649 S    
C22   C26   1.418045 A    
Cu1   Cu2   2.664186 S    
C87   H35   1.109477 S    
O16   C7    1.286783 A    
C24   H16   1.080413 S    
C5    C33   1.459479 S    
O31   Cu8   1.977085 S    
O21   Cu7   1.954337 S    
C47   C63   1.459485 S    
O48   Cu11  1.955062 S    
O42   C70   1.296710 A    
C45   C61   1.459488 S    
C42   C46   1.415063 A    
O34   Cu10  1.955293 S    
O35   Cu10  1.954965 S    
C17   H9    1.082649 S    
C32   C36   1.416492 A    
C86   H34   1.110253 S    
C18   C22   1.393098 A    
O36   C66   1.296428 A    
C36   C40   1.415075 A    
C39   C83   1.520063 S    
O24   Cu7   1.956127 S    
C10   C30   1.418046 A    
O10   Cu2   1.976345 S    
C54   C70   1.424826 S    
O27   C63   1.287168 A    
O21   C59   1.287412 A    
C85   H30   1.110258 S    
C58   C74   1.424430 S    
C9    C29   1.418046 A    
C15   C19   1.388437 A    
C76   C78   1.199635 T    
C86   H32   1.109478 S    
C83   H25   1.109482 S    
O43   Cu11  1.955007 S    
C12   C16   1.393101 A    
O40   Cu11  1.954967 S    
O46   C70   1.296623 A    
O10   C6    1.287069 A    
O8    Cu4   1.955507 S    
C84   H28   1.109996 S    
O33   Cu9   1.955291 S    
C81   H18   1.110008 S    
O41   Cu9   1.955007 S    
C13   C17   1.388437 A    
O2    C2    1.287336 A    
C12   H4    1.080411 S    
O32   C64   1.286881 A    
C82   H22   1.109996 S    
C6    C34   1.459483 S    
C8    C36   1.459485 S    
C19   C23   1.393097 A    
C22   H14   1.080414 S    
C85   H31   1.110000 S    
C20   C24   1.393102 A    
O45   C69   1.296627 A    
C2    C50   1.424532 S    
O38   Cu12  1.955293 S    
C87   H37   1.109995 S    
C40   C44   1.406039 A    
O33   C65   1.296533 A    
C21   H13   1.080414 S    
C38   C82   1.520063 S    
O4    Cu2   1.955507 S    
Cu7   Cu8   2.664454 S    
O12   C5    1.286780 A    
O22   Cu8   1.954338 S    
C59   C75   1.424430 S    
C81   H19   1.109499 S    
O16   Cu4   1.976666 S    
O36   Cu9   1.954967 S    
C18   H10   1.082650 S    
O41   C69   1.296707 A    
O45   Cu10  1.955057 S    
C60   C76   1.424430 S    
O48   C72   1.296623 A    
O15   C8    1.286783 A    
C73   C79   1.199635 T    
O44   C72   1.296710 A    
O3    C2    1.287787 A    
C25   C45   1.416494 A    
Cu5   Cu6   2.664454 S    
C35   C39   1.415075 A    
O18   Cu6   1.954338 S    
O28   C64   1.287168 A    
C88   H38   1.109478 S    
C30   C34   1.416491 A    
O8    C3    1.287787 A    
C29   C33   1.416493 A    
C57   C73   1.424430 S    
C11   C15   1.393101 A    
C66   C77   1.424724 S    
C11   H3    1.080409 S    
C75   C77   1.199635 T    
C25   C29   1.410793 A    
C13   H5    1.082649 S    
C40   C84   1.520063 S    
C56   C72   1.424826 S    
O39   C67   1.296428 A    
C14   C18   1.388438 A    
O11   Cu1   1.976666 S    
C43   C47   1.415063 A    
C14   H6    1.082650 S    
C43   C87   1.520064 S    
C20   H12   1.082649 S    
O18   C58   1.287413 A    
C48   C64   1.459485 S    
C41   C45   1.415065 A    
C38   C42   1.406039 A    
C27   C47   1.416496 A    
Cu3   Cu4   2.664186 S    
C37   C41   1.406039 A    
O31   C63   1.286882 A    
O4    C1    1.287787 A    
C39   C43   1.406039 A    
O34   C66   1.296533 A    
C4    C52   1.424532 S    
O19   C57   1.287862 A    
