data_mof_unit_18939.cif
_audit_creation_date              2012-12-10T20:37:26-0500
_audit_creation_method            fapswitch 2.2
_symmetry_space_group_name_H-M    P1
_symmetry_Int_Tables_number       1
_space_group_crystal_system       triclinic
_cell_length_a                    15.719396
_cell_length_b                    10.669267
_cell_length_c                    9.860786
_cell_angle_alpha                 90.065625
_cell_angle_beta                  89.984988
_cell_angle_gamma                 89.987632
_cell_volume                      1653.79495276

loop_
_atom_site_label
_atom_site_type_symbol
_atom_type_description
_atom_site_fract_x
_atom_site_fract_y
_atom_site_fract_z
_atom_type_partial_charge
C1    C     C_R   0.497121 0.259938 0.499988 0.875702
C2    C     C_3   0.082770 0.498803 0.500159 0.185725
C3    C     C_3   0.971908 0.567857 0.605167 -0.186491
C4    C     C_3   0.917331 0.498778 0.500095 0.170675
C5    C     C_3   0.028197 0.617303 0.487997 -0.149692
C6    C     C_3   0.971977 0.548175 0.382935 -0.185754
C7    C     C_1   0.173619 0.499169 0.500118 -0.081183
C8    C     C_1   0.826403 0.499372 0.500016 -0.090260
C9    C     C_R   0.481247 0.064168 0.623050 0.126061
C10   C     C_R   0.482737 0.128684 0.500441 -0.102298
C11   C     C_R   0.467341 0.064692 0.378573 -0.231491
C12   C     C_R   0.337877 0.499870 0.500002 0.905455
C13   C     C_R   0.467379 0.935112 0.378640 -0.230867
C14   C     C_R   0.482826 0.871429 0.500578 -0.102197
C15   C     C_R   0.481257 0.936322 0.623144 0.143128
C16   C     C_3   0.539951 0.929498 0.742250 -0.498199
C17   C     C_3   0.540009 0.071580 0.742028 -0.476600
C18   C     C_R   0.466698 0.401026 0.071095 0.218966
C19   C     C_R   0.539978 0.591847 0.072082 -0.133414
C20   C     C_R   0.540085 0.591751 0.928080 -0.133680
C21   C     C_R   0.466692 0.401069 0.928564 0.217050
C22   C     C_3   0.377209 0.355259 0.922633 -0.514276
C23   C     C_R   0.497187 0.740104 0.500052 0.875985
C24   C     C_3   0.377166 0.355250 0.076708 -0.517534
C25   C     C_R   0.662127 0.500033 0.500006 0.908520
C26   C     C_3   0.972616 0.381638 0.512111 0.148975
C27   C     C_3   0.028474 0.429656 0.394688 -0.189161
C28   C     C_1   0.248935 0.499495 0.500062 -0.196396
C29   C     C_1   0.751084 0.499734 0.499987 -0.191473
C30   C     C_3   0.028402 0.449394 0.617732 -0.188953
H1    H     H_    0.053610 0.372953 0.309106 0.129117
H2    H     H_    0.508592 0.112853 0.832702 0.199989
H3    H     H_    0.602909 0.112786 0.715920 0.204156
H4    H     H_    0.570918 0.667222 0.126439 0.147429
H5    H     H_    0.571324 0.666796 0.873879 0.145161
H6    H     H_    0.332924 0.425300 0.878125 0.223578
H7    H     H_    0.332854 0.425284 0.121375 0.224078
H8    H     H_    0.372677 0.259700 0.120900 0.193360
H9    H     H_    0.946862 0.588800 0.287377 0.138621
H10   H     H_    0.946744 0.624580 0.690703 0.138965
H11   H     H_    0.053480 0.408722 0.713302 0.129181
H12   H     H_    0.461639 0.113521 0.282753 0.166482
H13   H     H_    0.461639 0.886017 0.282841 0.170753
N1    N     N_R   0.499430 0.499140 0.142800 -0.105753
N2    N     N_R   0.499430 0.499180 0.857150 -0.104673
O1    O     O_R   0.500010 0.316790 0.614690 -0.618028
O2    O     O_R   0.500000 0.316760 0.385350 -0.623140
O3    O     O_R   0.376780 0.500010 0.614650 -0.616168
O4    O     O_R   0.376770 0.499970 0.385310 -0.616610
O5    O     O_R   0.500000 0.683240 0.614650 -0.620635
O6    O     O_R   0.499990 0.683210 0.385310 -0.628900
O7    O     O_R   0.623230 0.500030 0.614690 -0.614536
O8    O     O_R   0.623220 0.499990 0.385350 -0.610276
Zn1   Zn    Zn3+2 0.500010 0.500020 0.653130 0.943557
Zn2   Zn    Zn3+2 0.499990 0.499980 0.346870 0.943438
H14   H     H_    0.602837 0.887965 0.716485 0.199766
H15   H     H_    0.372830 0.259737 0.878054 0.197261
C31   C     C_3   0.937970 0.248414 0.525609 -0.437989
C32   C     C_3   0.010264 0.152516 0.535680 -0.336247
C33   C     C_3   0.975560 0.019483 0.548658 -0.886611
H16   H     H_    0.935678 0.010954 0.641212 0.260752
H17   H     H_    0.936829 0.994878 0.458246 0.261209
H18   H     H_    0.029266 0.952247 0.556341 0.244038
H19   H     H_    0.050918 0.157894 0.443603 0.219944
H20   H     H_    0.050335 0.173598 0.625740 0.220033
H21   H     H_    0.897534 0.243417 0.617921 0.203507
H22   H     H_    0.897830 0.227326 0.435666 0.204312
H23   H     H_    0.053336 0.714088 0.478026 0.133048
H24   H     H_    0.508343 0.888911 0.833002 0.201511

loop_
_geom_bond_atom_site_label_1
_geom_bond_atom_site_label_2
_ccdc_geom_bond_type
C14   C23   S    
N2    Zn1   S    
C3    C30   S    
C24   H8    S    
C16   H14   S    
C30   H11   S    
C26   C30   S    
C2    C27   S    
C18   N1    A    
C18   C21   A    
C22   H6    S    
C9    C10   A    
C19   C20   A    
C4    C26   S    
C2    C7    S    
C12   O3    A    
C13   H13   S    
C4    C8    S    
O1    Zn1   S    
C22   H15   S    
C12   O4    A    
C32   H19   S    
C25   O7    A    
C32   C33   S    
O4    Zn2   S    
C21   C22   S    
C32   H20   S    
O3    Zn1   S    
C26   C31   S    
N1    Zn2   S    
C26   C27   S    
O5    Zn1   S    
C17   H3    S    
C12   C28   S    
C33   H18   S    
C18   C24   S    
C8    C29   T    
O2    Zn2   S    
O7    Zn1   S    
C3    H10   S    
C24   H7    S    
C21   N2    A    
O8    Zn2   S    
C25   C29   S    
C5    C6    S    
C13   C14   A    
C22   C24   S    
C1    O1    A    
C2    C5    S    
C16   C17   S    
C10   C11   A    
C16   H24   S    
C27   H1    S    
C15   C16   S    
C5    H23   S    
C31   H22   S    
C11   C13   A    
C2    C30   S    
C19   N1    A    
C3    C4    S    
C11   H12   S    
C33   H17   S    
C4    C6    S    
C1    C10   S    
C20   N2    A    
C9    C17   S    
C17   H2    S    
C6    H9    S    
C1    O2    A    
C23   O5    A    
O6    Zn2   S    
C31   C32   S    
C14   C15   A    
C20   H5    S    
C23   O6    A    
C31   H21   S    
C7    C28   T    
C6    C27   S    
C9    C15   A    
C25   O8    A    
C33   H16   S    
C3    C5    S    
C19   H4    S    
