data_mof_unit_39154.cif
_audit_creation_date              2012-12-10T20:25:42-0500
_audit_creation_method            fapswitch 2.2
_symmetry_space_group_name_H-M    P1
_symmetry_Int_Tables_number       1
_space_group_crystal_system       triclinic
_cell_length_a                    8.619464
_cell_length_b                    10.678281
_cell_length_c                    9.915455
_cell_angle_alpha                 90.228605
_cell_angle_beta                  98.188071
_cell_angle_gamma                 90.29428
_cell_volume                      903.303356864

loop_
_atom_site_label
_atom_site_type_symbol
_atom_type_description
_atom_site_fract_x
_atom_site_fract_y
_atom_site_fract_z
_atom_type_partial_charge
C1    C     C_R   0.493784 0.260482 0.499028 0.884947
C2    C     C_R   0.379011 0.933310 0.390589 -0.075270
C3    C     C_R   0.469922 0.870928 0.499744 -0.151240
C4    C     C_R   0.531475 0.937097 0.615981 0.103857
C5    C     C_3   0.687390 0.928829 0.703707 -0.478791
C6    C     C_3   0.691256 0.071391 0.702219 -0.212643
C7    C     C_R   0.378973 0.446192 0.056384 0.216108
C8    C     C_R   0.622149 0.548096 0.087993 -0.138275
C9    C     C_R   0.621763 0.549740 0.944810 0.011677
C10   C     C_R   0.377108 0.449524 0.913493 0.151193
C11   C     C_3   0.213271 0.498917 0.893476 -0.274507
C12   C     C_R   0.201963 0.493109 0.464520 0.904359
C13   C     C_3   0.212891 0.487169 0.045412 -0.513710
C14   C     C_R   0.493440 0.739487 0.499530 0.889822
C15   C     C_R   0.798013 0.496759 0.534635 0.971529
C16   C     C_2   0.039327 0.468854 0.446583 -0.190619
C17   C     C_2   0.962304 0.501865 0.549123 -0.418115
C18   C     C_R   0.534676 0.064079 0.614400 0.078789
C19   C     C_R   0.472302 0.128716 0.498193 -0.156923
C20   C     C_R   0.380444 0.064649 0.389668 -0.071924
H1    H     H_    0.135085 0.410650 0.071477 0.217355
H2    H     H_    0.777241 0.882174 0.650838 0.204593
H3    H     H_    0.718573 0.590194 0.155171 0.156712
N1    N     N_R   0.498950 0.499140 0.142680 -0.111646
N2    N     N_R   0.498950 0.499180 0.857030 -0.136499
O1    O     O_R   0.500020 0.316790 0.614690 -0.621855
O2    O     O_R   0.500000 0.316760 0.385350 -0.608643
O3    O     O_R   0.271760 0.500010 0.587850 -0.624640
O4    O     O_R   0.271740 0.499970 0.358500 -0.625504
O5    O     O_R   0.500000 0.683240 0.614650 -0.608232
O6    O     O_R   0.499980 0.683210 0.385310 -0.615964
O7    O     O_R   0.728260 0.500030 0.641500 -0.618531
O8    O     O_R   0.728240 0.499990 0.412150 -0.613045
Zn1   Zn    Zn3+2 0.500010 0.500020 0.653130 0.965939
Zn2   Zn    Zn3+2 0.499990 0.499980 0.346870 0.971439
C21   C     C_1   0.971174 0.398714 0.326128 0.246018
N3    N     N_1   0.916293 0.342673 0.230850 -0.203648
C22   C     C_1   0.746787 0.615533 0.894017 0.227788
N4    N     N_1   0.847869 0.669637 0.854770 -0.224754
C23   C     C_1   0.207084 0.630920 0.849096 0.294049
N5    N     N_1   0.202930 0.734346 0.814323 -0.192068
H4    H     H_    0.128160 0.435473 0.831996 0.172302
H5    H     H_    0.199106 0.576633 0.099865 0.232800
H6    H     H_    0.019467 0.546869 0.640556 0.168181
C24   C     C_1   0.291624 0.131327 0.277316 0.224483
N6    N     N_1   0.220682 0.183790 0.187207 -0.206259
C25   C     C_1   0.286605 0.864725 0.280384 0.219229
N7    N     N_1   0.212339 0.810747 0.192263 -0.209814
H7    H     H_    0.676280 0.890548 0.805956 0.211926
H8    H     H_    0.685452 0.115247 0.803226 0.169237
C26   C     C_1   0.816748 0.122636 0.631537 0.221517
N8    N     N_1   0.915267 0.162914 0.576093 -0.212730

loop_
_geom_bond_atom_site_label_1
_geom_bond_atom_site_label_2
_ccdc_geom_bond_type
C9    N2    A    
C7    C10   A    
C8    N1    A    
C6    C26   S    
O4    Zn2   S    
C19   C20   A    
C2    C25   S    
C7    C13   S    
N2    Zn1   S    
O1    Zn1   S    
C4    C18   A    
C11   C23   S    
C2    C3    A    
C17   H6    S    
O3    Zn1   S    
C15   O7    A    
C24   N6    T    
C6    H8    S    
C11   C13   S    
C5    H7    S    
C5    C6    S    
C3    C14   S    
C21   N3    T    
C14   O5    A    
C5    H2    S    
C10   N2    A    
C23   N5    T    
O8    Zn2   S    
C12   O3    A    
C1    O1    A    
C6    C18   S    
O6    Zn2   S    
C1    C19   S    
N1    Zn2   S    
C16   C17   D    
C10   C11   S    
O5    Zn1   S    
C13   H1    S    
C7    N1    A    
C25   N7    T    
C12   C16   S    
C13   H5    S    
C8    H3    S    
C22   N4    T    
C11   H4    S    
C15   C17   S    
C18   C19   A    
C20   C24   S    
C1    O2    A    
C14   O6    A    
C4    C5    S    
C9    C22   S    
O2    Zn2   S    
C2    C20   A    
C15   O8    A    
C16   C21   S    
C3    C4    A    
C26   N8    T    
C8    C9    A    
C12   O4    A    
O7    Zn1   S    
