data_mof_unit_41747.cif
_audit_creation_date              2012-12-10T18:15:11-0500
_audit_creation_method            fapswitch 2.2
_symmetry_space_group_name_H-M    P1
_symmetry_Int_Tables_number       1
_space_group_crystal_system       triclinic
_cell_length_a                    12.680771
_cell_length_b                    12.94021
_cell_length_c                    23.095794
_cell_angle_alpha                 91.971576
_cell_angle_beta                  104.917691
_cell_angle_gamma                 80.318595
_cell_volume                      3609.78882528

loop_
_atom_site_label
_atom_site_type_symbol
_atom_type_description
_atom_site_fract_x
_atom_site_fract_y
_atom_site_fract_z
_atom_type_partial_charge
C1    C     C_R   0.436879 0.692973 0.494310 0.897889
C2    C     C_R   0.736822 0.432646 0.063587 -0.169154
C3    C     C_R   0.736293 0.437195 0.003601 -0.163019
C4    C     C_R   0.643535 0.417956 0.958897 0.004460
C5    C     C_R   0.552590 0.387269 0.974626 -0.062394
C6    C     C_R   0.461353 0.362342 0.929640 -0.075601
C7    C     C_R   0.374826 0.323332 0.946826 0.120766
C8    C     C_R   0.372521 0.326545 0.008038 0.227062
C9    C     C_R   0.637837 0.433102 0.898667 0.497971
C10   C     C_R   0.460286 0.379839 0.869198 0.531087
C11   C     C_R   0.601942 0.381805 0.763305 -0.147262
C12   C     C_R   0.502910 0.500955 0.610934 0.907260
C13   C     C_R   0.592416 0.403602 0.703804 -0.276870
C14   C     C_R   0.515845 0.488074 0.674746 -0.093172
C15   C     C_R   0.449469 0.554115 0.705829 0.150906
C16   C     C_R   0.460976 0.533971 0.767071 0.183483
C17   C     C_R   0.536424 0.445479 0.795015 0.290370
C18   C     C_R   0.531378 0.526598 0.235044 -0.240446
C19   C     C_R   0.516087 0.551297 0.291681 0.121770
C20   C     C_R   0.501042 0.472080 0.327428 -0.132612
C21   C     C_R   0.503016 0.367250 0.306749 0.101096
C22   C     C_R   0.525034 0.342269 0.250412 0.248375
C23   C     C_R   0.562954 0.307670 0.508840 0.853843
C24   C     C_R   0.535441 0.423770 0.214225 0.239620
C25   C     C_R   0.705313 0.063235 0.598163 -0.249576
C26   C     C_R   0.603269 0.196952 0.524561 -0.126017
C27   C     C_R   0.287833 0.850094 0.455942 0.113682
C28   C     C_R   0.257267 0.960229 0.450416 0.211215
C29   C     C_R   0.333467 0.025772 0.478748 0.100686
C30   C     C_R   0.441829 0.980398 0.511121 0.018717
C31   C     C_R   0.463004 0.873943 0.526537 -0.045991
C32   C     C_R   0.530064 0.037779 0.529869 0.071858
C33   C     C_R   0.622941 0.000321 0.577503 0.100221
C34   C     C_R   0.498471 0.495594 0.389323 0.927843
C35   C     C_R   0.630599 0.901027 0.602811 0.191641
C36   C     C_R   0.553188 0.837597 0.575518 -0.172980
C37   C     C_R   0.529605 0.129519 0.500114 -0.240953
C38   C     C_R   0.695775 0.162144 0.572469 0.202737
C39   C     C_R   0.393314 0.806644 0.493304 -0.188111
C40   C     C_R   0.070517 0.423435 0.387448 0.144862
C41   C     C_R   0.802910 0.612258 0.579943 0.005866
C42   C     C_R   0.911240 0.623992 0.605237 -0.319811
C43   C     C_R   0.994830 0.577577 0.578683 0.245837
C44   C     C_R   0.966146 0.529088 0.521126 -0.043580
C45   C     C_R   0.454256 0.379868 0.111956 0.538821
C46   C     C_R   0.854379 0.513973 0.499603 0.119081
C47   C     C_R   0.040830 0.490527 0.484732 -0.081554
C48   C     C_R   0.997860 0.454810 0.424860 0.003659
C49   C     C_R   0.884831 0.445335 0.406078 0.130421
C50   C     C_R   0.827138 0.448684 0.449940 0.147456
C51   C     C_R   0.155396 0.490182 0.503397 -0.055220
C52   C     C_R   0.183798 0.412683 0.413292 -0.052751
C53   C     C_R   0.638833 0.416760 0.139590 0.496594
C54   C     C_R   0.643877 0.410484 0.079885 0.010254
C55   C     C_R   0.552238 0.385171 0.035490 -0.065807
C56   C     C_R   0.458806 0.362822 0.051866 -0.115751
H1    H     H_    0.808523 0.450690 0.096966 0.188551
H2    H     H_    0.775719 0.037722 0.635321 0.163546
H3    H     H_    0.467570 0.153001 0.458909 0.181034
H4    H     H_    0.807642 0.458693 0.992378 0.189790
H5    H     H_    0.562495 0.760045 0.593861 0.154055
H6    H     H_    0.242495 0.389095 0.386976 0.154644
H7    H     H_    0.195167 0.529184 0.542237 0.203979
H8    H     H_    0.739973 0.642250 0.602769 0.150721
H9    H     H_    0.931368 0.662915 0.648002 0.153627
H10   H     H_    0.659479 0.314215 0.784841 0.156593
H11   H     H_    0.642150 0.352194 0.679635 0.148805
H12   H     H_    0.539675 0.587950 0.206546 0.163147
N1    N     N_R   0.543941 0.404501 0.154047 -0.342034
N2    N     N_R   0.545615 0.417831 0.855781 -0.347628
N3    N     N_R   0.222200 0.444670 0.469780 -0.131385
N4    N     N_R   0.776960 0.554790 0.529910 -0.111451
O1    O     O_R   0.366740 0.627150 0.485570 -0.604115
O2    O     O_2   0.726818 0.437551 0.182814 -0.583292
O3    O     O_2   0.722163 0.466203 0.882955 -0.564735
O4    O     O_2   0.373674 0.363604 0.823876 -0.573882
O5    O     O_R   0.544830 0.662520 0.504870 -0.601647
O6    O     O_R   0.410930 0.482340 0.574190 -0.600572
O7    O     O_R   0.589010 0.517710 0.593490 -0.631615
O8    O     O_R   0.455170 0.337480 0.495130 -0.590948
O9    O     O_R   0.633260 0.372850 0.514430 -0.601178
O10   O     O_R   0.410990 0.482290 0.406510 -0.629553
O11   O     O_R   0.589070 0.517660 0.425810 -0.591640
O12   O     O_2   0.360488 0.374949 0.128373 -0.528427
Zn1   Zn    Zn3+2 0.381090 0.476380 0.487110 0.927569
Zn2   Zn    Zn3+2 0.618910 0.523620 0.512890 0.943917
N5    N     N_2   0.517296 0.655848 0.312961 -0.294912
H13   H     H_    0.566076 0.696290 0.295735 0.232440
C57   C     C_3   0.408842 0.716272 0.309151 -0.777786
H14   H     H_    0.362848 0.730805 0.261463 0.241545
H15   H     H_    0.417555 0.792732 0.331664 0.239274
H16   H     H_    0.360929 0.674257 0.331699 0.237356
C58   C     C_3   0.485113 0.283392 0.345986 -0.901149
H17   H     H_    0.403445 0.305304 0.356033 0.247390
H18   H     H_    0.485294 0.204966 0.325437 0.245008
H19   H     H_    0.551054 0.274950 0.388345 0.210770
C59   C     C_3   0.541156 0.229651 0.229759 -0.874830
H20   H     H_    0.462150 0.198670 0.221589 0.254354
H21   H     H_    0.569511 0.220303 0.188049 0.230629
H22   H     H_    0.606082 0.181111 0.264366 0.228123
N6    N     N_2   0.775306 0.227845 0.597091 -0.292188
H23   H     H_    0.771412 0.254024 0.639200 0.221280
C60   C     C_3   0.887780 0.185266 0.595526 -0.817439
H24   H     H_    0.939666 0.247855 0.606831 0.244930
H25   H     H_    0.890426 0.155734 0.550068 0.249605
H26   H     H_    0.923331 0.120533 0.628768 0.235377
C61   C     C_3   0.721827 0.859736 0.656880 -0.959696
H27   H     H_    0.711439 0.782560 0.672218 0.236828
H28   H     H_    0.803141 0.850374 0.645913 0.242457
H29   H     H_    0.721186 0.915068 0.694657 0.249813
C62   C     C_3   0.205830 0.780434 0.424365 -0.815029
H30   H     H_    0.127652 0.823935 0.396371 0.252411
H31   H     H_    0.242440 0.725427 0.394247 0.231961
H32   H     H_    0.182228 0.736087 0.458052 0.247971
N7    N     N_2   0.297777 0.136358 0.480402 -0.313915
H33   H     H_    0.241141 0.169782 0.442700 0.226902
C63   C     C_3   0.271682 0.173514 0.535683 -0.738566
H34   H     H_    0.251298 0.260321 0.534441 0.250822
H35   H     H_    0.343719 0.150261 0.574533 0.252927
H36   H     H_    0.199313 0.141102 0.541599 0.219114
N8    N     N_2   0.149239 0.004824 0.416622 -0.309378
H37   H     H_    0.110329 0.066776 0.436794 0.227320
C64   C     C_3   0.141141 0.024382 0.354164 -0.826403
H38   H     H_    0.193490 0.082907 0.349843 0.227760
H39   H     H_    0.053865 0.055081 0.330808 0.246753
H40   H     H_    0.168159 0.950716 0.332029 0.260273
N9    N     N_2   0.832564 0.416881 0.346506 -0.276706
H41   H     H_    0.752122 0.454684 0.331223 0.246348
C65   C     C_3   0.844457 0.306151 0.332225 -0.698826
H42   H     H_    0.838840 0.296868 0.283636 0.274340
H43   H     H_    0.776613 0.271363 0.342096 0.216085
H44   H     H_    0.925660 0.262777 0.357565 0.241230
N10   N     N_2   0.029580 0.410138 0.324355 -0.276161
H45   H     H_    0.983002 0.476697 0.301783 0.260837
C66   C     C_3   0.097821 0.344795 0.291293 -0.787567
H46   H     H_    0.045568 0.326948 0.246815 0.262246
H47   H     H_    0.135494 0.269523 0.315504 0.231567
H48   H     H_    0.163319 0.386427 0.284170 0.241195
N11   N     N_2   0.105278 0.572427 0.613852 -0.337671
H49   H     H_    0.118129 0.637525 0.640082 0.218039
C67   C     C_3   0.148469 0.475691 0.647805 -0.768788
H50   H     H_    0.237102 0.474085 0.670745 0.256596
H51   H     H_    0.141840 0.406928 0.617676 0.245955
H52   H     H_    0.102337 0.469679 0.682142 0.249844
C68   C     C_3   0.800894 0.343613 0.461071 -0.790509
H53   H     H_    0.812171 0.332020 0.509428 0.275472
H54   H     H_    0.717761 0.334704 0.433394 0.245368
H55   H     H_    0.861224 0.278402 0.449848 0.202560
C69   C     C_3   0.287876 0.275110 0.901038 -0.800942
H56   H     H_    0.239828 0.228894 0.920766 0.210081
H57   H     H_    0.228109 0.337565 0.872648 0.269687
H58   H     H_    0.328431 0.218312 0.873082 0.263358
N12   N     N_2   0.283696 0.293535 0.025933 -0.251119
H59   H     H_    0.205646 0.316637 0.998418 0.230807
C70   C     C_3   0.305496 0.186165 0.047232 -0.708441
H60   H     H_    0.234772 0.169977 0.063537 0.237721
H61   H     H_    0.381178 0.172788 0.084974 0.249782
H62   H     H_    0.316700 0.130854 0.010634 0.215792
N13   N     N_2   0.372504 0.640554 0.675415 -0.310356
H63   H     H_    0.298789 0.656707 0.687461 0.234624
C71   C     C_3   0.418395 0.733544 0.669476 -0.798975
H64   H     H_    0.396997 0.793819 0.701842 0.239724
H65   H     H_    0.382405 0.765863 0.623446 0.244441
H66   H     H_    0.509994 0.716357 0.678011 0.238407
C72   C     C_3   0.395067 0.607719 0.802006 -0.875396
H67   H     H_    0.421634 0.591424 0.850860 0.240590
H68   H     H_    0.406007 0.689586 0.795853 0.241289
H69   H     H_    0.306029 0.601406 0.785964 0.242717

loop_
_geom_bond_atom_site_label_1
_geom_bond_atom_site_label_2
_ccdc_geom_bond_type
C66   H48   S    
C55   C56   A    
C72   H67   S    
C70   H61   S    
C1    O5    A    
C41   C42   A    
C35   C36   A    
N5    H13   S    
C53   N1    A    
C8    C56   A    
O8    Zn1   S    
C59   H20   S    
C2    H1    S    
C69   H56   S    
C64   H38   S    
C53   C54   A    
C25   H2    S    
N6    H23   S    
C18   C24   A    
C28   C29   A    
C38   N6    S    
C19   N5    S    
C69   H57   S    
C68   H53   S    
C5    C6    A    
C64   H39   S    
C18   H12   S    
C15   C16   A    
C12   O7    A    
C11   C13   A    
C40   C48   A    
C18   C19   A    
C23   C26   S    
C68   H54   S    
N3    Zn1   S    
C10   O4    S    
N13   H63   S    
C45   C56   A    
C27   C39   A    
C16   C17   A    
N7    C63   S    
C12   O6    A    
C42   H9    S    
C61   H27   S    
N13   C71   S    
C71   H65   S    
C43   N11   S    
C23   O8    A    
N12   C70   S    
C46   N4    A    
O9    Zn2   S    
C44   C47   A    
C65   H44   S    
C20   C34   S    
C3    H4    S    
C66   H46   S    
C29   N7    S    
C27   C62   S    
C17   N2    S    
C58   H18   S    
C22   C59   S    
C7    C69   S    
C13   C14   A    
C63   H36   S    
C70   H62   S    
C61   H28   S    
C51   N3    A    
C71   H66   S    
C59   H21   S    
C44   C46   A    
C24   N1    S    
C71   H64   S    
C49   N9    S    
C70   H60   S    
C45   N1    A    
C7    C8    A    
C51   H7    S    
C9    N2    A    
C60   H25   S    
C2    C54   A    
C67   H52   S    
C28   N8    S    
C26   C38   A    
C64   H40   S    
C47   C51   A    
C40   C52   A    
C67   H51   S    
C60   H26   S    
C43   C44   A    
N9    C65   S    
C15   N13   S    
C29   C30   A    
C25   C38   A    
C47   C48   A    
C16   C72   S    
N9    H41   S    
C62   H31   S    
C58   H17   S    
C32   C37   A    
C57   H16   S    
C8    N12   S    
O1    Zn1   S    
N8    H37   S    
C37   H3    S    
C41   N4    A    
C10   N2    A    
C50   C68   S    
C48   C49   A    
C12   C14   S    
O5    Zn2   S    
C72   H69   S    
N5    C57   S    
N10   H45   S    
C61   H29   S    
C22   C24   A    
C69   H58   S    
C45   O12   S    
C57   H15   S    
C42   C43   A    
C3    C4    A    
C57   H14   S    
C60   H24   S    
C59   H22   S    
C68   H55   S    
O6    Zn1   S    
C65   H42   S    
C13   H11   S    
C66   H47   S    
C54   C55   A    
C11   C17   A    
C23   O9    A    
C62   H30   S    
C31   C36   A    
C5    C55   A    
C4    C5    A    
C6    C10   A    
N4    Zn2   S    
N11   H49   S    
C11   H10   S    
C26   C37   A    
C6    C7    A    
C58   H19   S    
O10   Zn1   S    
C34   O10   A    
C40   N10   S    
C46   C50   A    
C63   H34   S    
N6    C60   S    
C1    O1    A    
C32   C33   A    
C19   C20   A    
C63   H35   S    
C2    C3    A    
C4    C9    A    
C52   N3    A    
C52   H6    S    
C67   H50   S    
C30   C32   A    
N11   C67   S    
C30   C31   A    
C21   C58   S    
C33   C35   A    
C31   C39   A    
C62   H32   S    
C36   H5    S    
N8    C64   S    
C35   C61   S    
C1    C39   S    
O11   Zn2   S    
C20   C21   A    
C72   H68   S    
C49   C50   A    
C34   O11   A    
C27   C28   A    
N10   C66   S    
C14   C15   A    
C9    O3    S    
C41   H8    S    
N12   H59   S    
C21   C22   A    
O7    Zn2   S    
N7    H33   S    
C25   C33   A    
C65   H43   S    
C53   O2    S    
