data_mof_unit_32346.cif
_audit_creation_date              2012-10-26T21:33:00-0400
_audit_creation_method            fapswitch 2.2
_symmetry_space_group_name_H-M    P1
_symmetry_Int_Tables_number       1
_space_group_crystal_system       triclinic
_cell_length_a                    28.173695
_cell_length_b                    18.517243
_cell_length_c                    17.083591
_cell_angle_alpha                 90.252652
_cell_angle_beta                  60.700628
_cell_angle_gamma                 90.384512
_cell_volume                      7772.1793534

loop_
_atom_site_label
_atom_site_type_symbol
_atom_type_description
_atom_site_fract_x
_atom_site_fract_y
_atom_site_fract_z
_atom_type_partial_charge
C1    C     C_R   0.701836 0.268844 0.675746 0.880669
C2    C     C_R   0.971851 0.632785 0.431842 -0.229195
C3    C     C_R   0.074095 0.900526 0.933833 0.909145
C4    C     C_R   0.573938 0.599759 0.934119 0.912174
C5    C     C_R   0.426048 0.400256 0.065887 0.910024
C6    C     C_R   0.425882 0.599445 0.066186 0.908584
C7    C     C_R   0.574123 0.400567 0.933805 0.910867
C8    C     C_R   0.546947 0.002198 0.509726 0.020298
C9    C     C_R   0.453056 0.997803 0.490264 0.020270
C10   C     C_R   0.060816 0.503818 0.466681 0.024432
C11   C     C_R   0.972181 0.502648 0.433411 0.027062
C12   C     C_R   0.510127 0.060781 0.541383 0.045484
C13   C     C_R   0.980358 0.374187 0.405733 -0.218627
C14   C     C_R   0.489877 0.939222 0.458609 0.045567
C15   C     C_R   0.462036 0.057443 0.534065 0.049377
C16   C     C_R   0.537968 0.942559 0.465925 0.049522
C17   C     C_R   0.032337 0.568221 0.474025 0.044797
C18   C     C_R   0.001032 0.438120 0.423420 0.045717
C19   C     C_R   0.992301 0.568667 0.446986 0.047794
C20   C     C_R   0.048589 0.440268 0.433146 0.048904
C21   C     C_R   0.628297 0.943416 0.496878 0.046510
C22   C     C_R   0.371706 0.056584 0.503115 0.046391
C23   C     C_R   0.393319 0.934969 0.444423 0.065087
C24   C     C_R   0.041706 0.628737 0.514623 -0.228160
C25   C     C_R   0.606683 0.065031 0.555573 0.064958
C26   C     C_R   0.132666 0.440498 0.481062 0.048276
C27   C     C_R   0.895787 0.566897 0.435243 0.049454
C28   C     C_R   0.897115 0.435765 0.431304 0.049568
C29   C     C_R   0.113104 0.565674 0.528123 0.063742
C30   C     C_R   0.666811 0.939329 0.528148 -0.171108
C31   C     C_R   0.333191 0.060671 0.471848 -0.171353
C32   C     C_R   0.344388 0.934465 0.439665 -0.194498
C33   C     C_R   0.655613 0.065535 0.560333 -0.194406
C34   C     C_R   0.167824 0.438110 0.519995 -0.165122
C35   C     C_R   0.578929 0.889704 0.427506 -0.217408
C36   C     C_R   0.839715 0.564739 0.457570 -0.171341
C37   C     C_R   0.840288 0.435939 0.456688 -0.170955
C38   C     C_R   0.157170 0.564932 0.547209 -0.187233
C39   C     C_R   0.677177 0.000312 0.566238 -0.105352
C40   C     C_R   0.322824 0.999687 0.433759 -0.105367
C41   C     C_R   0.175996 0.499755 0.559344 -0.114435
C42   C     C_R   0.811408 0.500036 0.483819 -0.120371
C43   C     C_R   0.593459 0.003275 0.521727 0.076550
C44   C     C_R   0.406543 0.996726 0.478266 0.076666
C45   C     C_R   0.101805 0.503091 0.492723 0.071501
C46   C     C_R   0.421076 0.110299 0.572481 -0.217146
C47   C     C_R   0.921840 0.501650 0.432959 0.077085
C48   C     C_R   0.126799 0.383126 0.431325 -0.174010
C49   C     C_R   0.926482 0.631216 0.419814 -0.173243
C50   C     C_R   0.929806 0.373227 0.408514 -0.179828
C51   C     C_R   0.079952 0.626623 0.543654 -0.160740
C52   C     C_R   0.623235 0.890461 0.442141 -0.171479
C53   C     C_R   0.376769 0.109541 0.557849 -0.171776
C54   C     C_R   0.429044 0.876307 0.416255 -0.169726
C55   C     C_R   0.570957 0.123694 0.583741 -0.169713
C56   C     C_1   0.708513 0.997412 0.613064 0.254017
C57   C     C_R   0.476449 0.878454 0.422573 -0.217576
C58   C     C_1   0.291485 0.002587 0.386938 0.254883
C59   C     C_1   0.202493 0.497317 0.614091 0.244243
C60   C     C_1   0.753536 0.499638 0.550796 0.262706
C61   C     C_R   0.523553 0.121547 0.577423 -0.217601
C62   C     C_R   0.720568 0.264712 0.953669 0.113665
C63   C     C_R   0.279249 0.734946 0.046478 0.113671
C64   C     C_R   0.279198 0.264038 0.046728 0.117845
C65   C     C_R   0.298165 0.731165 0.324249 0.881371
C66   C     C_R   0.720251 0.736989 0.953738 0.116478
C67   C     C_R   0.220463 0.764541 0.953774 0.113796
C68   C     C_R   0.779343 0.235087 0.046384 0.112877
C69   C     C_R   0.779005 0.764413 0.046884 0.116957
C70   C     C_R   0.220488 0.236530 0.953545 0.117874
C71   C     C_R   0.777873 0.263937 0.907907 -0.172870
C72   C     C_R   0.221940 0.735638 0.092239 -0.173234
C73   C     C_R   0.221961 0.265538 0.092072 -0.175781
C74   C     C_R   0.777486 0.735695 0.908341 -0.174597
C75   C     C_R   0.277769 0.763836 0.908022 -0.172843
C76   C     C_R   0.298243 0.268665 0.324110 0.887350
C77   C     C_R   0.722037 0.235848 0.092146 -0.173842
C78   C     C_R   0.721761 0.765751 0.092299 -0.176833
C79   C     C_R   0.277723 0.235045 0.908210 -0.176170
C80   C     C_R   0.806785 0.249338 0.953536 -0.177063
C81   C     C_R   0.193021 0.750227 0.046612 -0.176729
C82   C     C_R   0.193032 0.251975 0.046124 -0.178130
C83   C     C_R   0.806430 0.749193 0.954259 -0.179292
C84   C     C_R   0.306685 0.749252 0.953645 -0.176215
C85   C     C_R   0.693124 0.250450 0.046515 -0.176872
C86   C     C_R   0.692810 0.752225 0.046370 -0.178950
C87   C     C_R   0.701704 0.731432 0.675915 0.903998
C88   C     C_R   0.306648 0.248599 0.954153 -0.178442
C89   C     C_R   0.643525 0.326739 0.945903 -0.202092
C90   C     C_R   0.356371 0.673093 0.054175 -0.201590
C91   C     C_R   0.356611 0.325634 0.054009 -0.205058
C92   C     C_R   0.643037 0.674947 0.946273 -0.205535
C93   C     C_R   0.143431 0.826583 0.945996 -0.202518
C94   C     C_R   0.856432 0.173176 0.054123 -0.201421
C95   C     C_R   0.856487 0.825859 0.054120 -0.204860
C96   C     C_R   0.143175 0.174719 0.946173 -0.205057
C97   C     C_R   0.616529 0.347358 0.898257 -0.066184
C98   C     C_R   0.201807 0.768782 0.675765 0.889453
C99   C     C_R   0.383456 0.652636 0.101734 -0.065219
C100  C     C_R   0.383748 0.346598 0.101401 -0.067142
C101  C     C_R   0.616114 0.653589 0.898678 -0.067111
C102  C     C_R   0.116452 0.847233 0.898333 -0.065521
C103  C     C_R   0.883488 0.152673 0.101713 -0.065273
C104  C     C_R   0.883704 0.846667 0.101433 -0.066473
C105  C     C_R   0.116151 0.153546 0.898672 -0.067201
C106  C     C_R   0.633235 0.322400 0.813079 -0.260866
C107  C     C_R   0.366812 0.677721 0.186843 -0.266309
C108  C     C_R   0.367127 0.321794 0.186526 -0.261071
C109  C     C_R   0.798178 0.231188 0.324243 0.890402
C110  C     C_R   0.632817 0.678213 0.813444 -0.256375
C111  C     C_R   0.133142 0.822235 0.813170 -0.265293
C112  C     C_R   0.866833 0.177739 0.186834 -0.265338
C113  C     C_R   0.867128 0.821779 0.186509 -0.264262
C114  C     C_R   0.132813 0.178269 0.813493 -0.260974
C115  C     C_R   0.679468 0.281646 0.770813 -0.049510
C116  C     C_R   0.320507 0.718340 0.229183 -0.048990
C117  C     C_R   0.320555 0.281179 0.229110 -0.050037
C118  C     C_R   0.679237 0.719139 0.771008 -0.055947
C119  C     C_R   0.179396 0.781510 0.770878 -0.051348
C120  C     C_R   0.798232 0.768694 0.324113 0.876007
C121  C     C_R   0.820540 0.218382 0.229161 -0.051537
C122  C     C_R   0.820518 0.781245 0.229128 -0.047286
C123  C     C_R   0.179331 0.219000 0.770962 -0.051567
C124  C     C_R   0.707447 0.260024 0.816886 -0.193450
C125  C     C_R   0.292430 0.739780 0.183199 -0.192511
C126  C     C_R   0.292212 0.259429 0.183362 -0.200894
C127  C     C_R   0.707317 0.741369 0.817008 -0.194331
C128  C     C_R   0.207361 0.759873 0.816969 -0.192106
C129  C     C_R   0.792494 0.239870 0.183142 -0.195432
C130  C     C_R   0.792105 0.759626 0.183442 -0.204295
C131  C     C_R   0.201728 0.231389 0.675906 0.891099
C132  C     C_R   0.207551 0.240970 0.816830 -0.200403
C133  C     C_R   0.689610 0.282561 0.905559 0.071122
C134  C     C_R   0.310241 0.717189 0.094556 0.070861
C135  C     C_R   0.310261 0.281585 0.094663 0.073784
C136  C     C_R   0.689237 0.719279 0.905754 0.072744
C137  C     C_R   0.189508 0.782387 0.905661 0.071360
C138  C     C_R   0.810319 0.217300 0.094484 0.071892
C139  C     C_R   0.810108 0.781864 0.094788 0.073838
C140  C     C_R   0.189462 0.218888 0.905574 0.073649
C141  C     C_R   0.690472 0.130128 0.538020 0.896465
C142  C     C_R   0.084380 0.381702 0.411253 -0.222330
C143  C     C_R   0.309528 0.869872 0.461981 0.896141
C144  C     C_R   0.304839 0.127521 0.477401 0.899576
C145  C     C_R   0.695161 0.872479 0.522597 0.899688
C146  C     C_R   0.191109 0.629353 0.533936 0.897799
C147  C     C_R   0.808121 0.370814 0.468311 0.894242
C148  C     C_R   0.807752 0.629152 0.469024 0.901476
C149  C     C_R   0.195584 0.372234 0.520356 0.902247
C150  C     C_R   0.073929 0.099773 0.934132 0.910975
C151  C     C_R   0.926038 0.900270 0.065896 0.910621
C152  C     C_R   0.925891 0.099454 0.066180 0.909630
H1    H     H_    0.154785 0.338541 0.405934 0.176615
H2    H     H_    0.991393 0.684339 0.427009 0.141000
H3    H     H_    0.001201 0.323263 0.393780 0.138042
H4    H     H_    0.017439 0.677052 0.529220 0.142573
H5    H     H_    0.578423 0.847334 0.384489 0.134866
H6    H     H_    0.421582 0.152672 0.615495 0.135088
H7    H     H_    0.501173 0.830632 0.400312 0.137193
H8    H     H_    0.498827 0.169369 0.599693 0.137391
H9    H     H_    0.649079 0.249620 0.083921 0.131802
H10   H     H_    0.350730 0.750147 0.916245 0.131862
H11   H     H_    0.350661 0.246180 0.917259 0.128831
H12   H     H_    0.915912 0.681607 0.401184 0.177894
H13   H     H_    0.648792 0.754468 0.083324 0.128681
H14   H     H_    0.148975 0.749352 0.084009 0.130368
H15   H     H_    0.850830 0.250178 0.916129 0.131670
H16   H     H_    0.850446 0.746883 0.917296 0.130400
H17   H     H_    0.149018 0.254370 0.083015 0.129294
H18   H     H_    0.800565 0.276106 0.836921 0.133882
H19   H     H_    0.199256 0.723433 0.163218 0.133458
H20   H     H_    0.199448 0.278718 0.162839 0.127208
H21   H     H_    0.799999 0.722667 0.837541 0.133209
H22   H     H_    0.300457 0.776053 0.837048 0.134236
H23   H     H_    0.917303 0.322433 0.393146 0.175156
H24   H     H_    0.699347 0.223682 0.163133 0.134295
H25   H     H_    0.699257 0.778758 0.163113 0.126615
H26   H     H_    0.300239 0.221855 0.837449 0.126557
H27   H     H_    0.612286 0.339045 0.777205 0.177609
H28   H     H_    0.387854 0.661248 0.222628 0.175709
H29   H     H_    0.388314 0.338607 0.222217 0.177527
H30   H     H_    0.611833 0.661023 0.777561 0.179145
H31   H     H_    0.112186 0.838866 0.777305 0.175967
H32   H     H_    0.887854 0.161229 0.222640 0.175470
H33   H     H_    0.888378 0.838471 0.222142 0.175501
H34   H     H_    0.081542 0.672596 0.581519 0.168435
H35   H     H_    0.111717 0.161288 0.777716 0.177548
H36   H     H_    0.743637 0.227147 0.783238 0.152946
H37   H     H_    0.256190 0.772561 0.216890 0.152416
H38   H     H_    0.255604 0.226867 0.217215 0.150809
H39   H     H_    0.743789 0.774198 0.783276 0.152843
H40   H     H_    0.243562 0.727014 0.783315 0.152710
H41   H     H_    0.756265 0.272671 0.216821 0.150758
H42   H     H_    0.755481 0.727102 0.217314 0.149053
H43   H     H_    0.244111 0.273626 0.783022 0.151317
H44   H     H_    0.630289 0.347938 0.012584 0.149570
H45   H     H_    0.653956 0.849862 0.407753 0.170831
H46   H     H_    0.369575 0.651829 0.987532 0.149867
H47   H     H_    0.369853 0.346651 0.987352 0.149413
H48   H     H_    0.629767 0.654007 0.012972 0.149104
H49   H     H_    0.130198 0.847784 0.012676 0.149144
H50   H     H_    0.869644 0.151922 0.987474 0.149768
H51   H     H_    0.869695 0.846958 0.987511 0.149685
H52   H     H_    0.129909 0.153760 0.012863 0.149198
H53   H     H_    0.346048 0.150140 0.592239 0.170370
H54   H     H_    0.421887 0.829354 0.385431 0.161419
H55   H     H_    0.578115 0.170647 0.614565 0.161608
H56   H     H_    0.081304 0.334781 0.376250 0.135099
N1    N     N_1   0.733322 0.995254 0.650585 -0.209360
N2    N     N_1   0.266674 0.004746 0.349421 -0.209470
N3    N     N_1   0.223430 0.495505 0.657853 -0.205596
N4    N     N_1   0.707810 0.499348 0.604119 -0.195039
O1    O     O_R   0.746490 0.236330 0.638080 -0.635642
O2    O     O_R   0.325830 0.813840 0.483730 -0.632410
O3    O     O_R   0.325830 0.186160 0.483730 -0.637870
O4    O     O_R   0.674170 0.813840 0.516270 -0.638070
O5    O     O_R   0.174170 0.686160 0.516270 -0.640295
O6    O     O_R   0.825830 0.313840 0.483730 -0.641943
O7    O     O_R   0.825830 0.686160 0.483730 -0.646058
O8    O     O_R   0.174170 0.313840 0.516270 -0.642691
O9    O     O_R   0.739960 0.127620 0.525000 -0.609765
O10   O     O_R   0.260040 0.872380 0.475000 -0.610083
O11   O     O_R   0.260040 0.127620 0.475000 -0.614846
O12   O     O_R   0.253510 0.763670 0.361920 -0.634696
O13   O     O_R   0.739960 0.872380 0.525000 -0.615255
O14   O     O_R   0.239960 0.627620 0.525000 -0.607946
O15   O     O_R   0.760040 0.372380 0.475000 -0.613534
O16   O     O_R   0.760040 0.627620 0.475000 -0.614780
O17   O     O_R   0.239960 0.372380 0.525000 -0.612897
O18   O     O_R   0.680700 0.294870 0.629350 -0.632686
O19   O     O_R   0.319300 0.705130 0.370650 -0.635960
O20   O     O_R   0.319300 0.294870 0.370650 -0.628071
O21   O     O_R   0.680700 0.705130 0.629350 -0.622460
O22   O     O_R   0.180700 0.794870 0.629350 -0.633339
O23   O     O_R   0.253510 0.236330 0.361920 -0.647046
O24   O     O_R   0.819300 0.205130 0.370650 -0.633575
O25   O     O_R   0.819300 0.794870 0.370650 -0.636896
O26   O     O_R   0.180700 0.205130 0.629350 -0.627337
O27   O     O_R   0.062020 0.072840 0.007170 -0.627860
O28   O     O_R   0.937980 0.927160 0.992830 -0.627605
O29   O     O_R   0.937980 0.072840 0.992830 -0.627279
O30   O     O_R   0.062020 0.927160 0.007170 -0.628011
O31   O     O_R   0.562020 0.572840 0.007170 -0.628676
O32   O     O_R   0.437980 0.427160 0.992830 -0.628159
O33   O     O_R   0.437980 0.572840 0.992830 -0.627580
O34   O     O_R   0.746490 0.763670 0.638080 -0.633686
O35   O     O_R   0.562020 0.427160 0.007170 -0.628006
O36   O     O_R   0.947860 0.073950 0.109290 -0.624066
O37   O     O_R   0.052140 0.926050 0.890710 -0.623758
O38   O     O_R   0.052140 0.073950 0.890710 -0.623275
O39   O     O_R   0.947860 0.926050 0.109290 -0.624254
O40   O     O_R   0.447860 0.573950 0.109290 -0.624369
O41   O     O_R   0.552140 0.426050 0.890710 -0.621754
O42   O     O_R   0.552140 0.573950 0.890710 -0.620909
O43   O     O_R   0.447860 0.426050 0.109290 -0.623524
O44   O     O_R   0.246490 0.736330 0.638080 -0.632504
O45   O     O_R   0.753510 0.263670 0.361920 -0.634352
O46   O     O_R   0.753510 0.736330 0.361920 -0.648189
O47   O     O_R   0.246490 0.263670 0.638080 -0.644010
O48   O     O_R   0.674170 0.186160 0.516270 -0.632343
Zn1   Zn    Zn3+2 0.792340 0.208750 0.507670 0.954883
Zn2   Zn    Zn3+2 0.494040 0.500000 0.919480 0.941384
Zn3   Zn    Zn3+2 0.005960 0.000000 0.080520 0.933879
Zn4   Zn    Zn3+2 0.994040 0.000000 0.919480 0.937048
Zn5   Zn    Zn3+2 0.207660 0.791250 0.492330 0.954743
Zn6   Zn    Zn3+2 0.207660 0.208750 0.492330 0.954586
Zn7   Zn    Zn3+2 0.792340 0.791250 0.507670 0.952882
Zn8   Zn    Zn3+2 0.292340 0.708750 0.507670 0.959133
Zn9   Zn    Zn3+2 0.707660 0.291250 0.492330 0.956810
Zn10  Zn    Zn3+2 0.707660 0.708750 0.492330 0.955035
Zn11  Zn    Zn3+2 0.292340 0.291250 0.507670 0.957537
Zn12  Zn    Zn3+2 0.505960 0.500000 0.080520 0.935911

loop_
_geom_bond_atom_site_label_1
_geom_bond_atom_site_label_2
_ccdc_geom_bond_type
O41   Zn2   S    
C68   C80   A    
C96   C105  A    
C11   C18   A    
C70   C140  S    
O35   Zn12  S    
C81   H14   S    
C107  H28   S    
C78   H25   S    
C85   H9    S    
C73   C82   A    
C6    O33   A    
C11   C47   A    
C148  O16   A    
C8    C43   A    
C4    O42   A    
C74   C83   A    
C128  C137  A    
O8    Zn6   S    
C25   C43   A    
C143  O10   A    
C98   O44   A    
C123  C131  S    
C69   C78   A    
C67   C75   A    
C84   H10   S    
C98   C119  S    
C28   C47   A    
C105  C150  S    
C86   H13   S    
C11   C19   A    
C33   C39   A    
O30   Zn3   S    
C124  C133  A    
C30   C145  S    
O7    Zn7   S    
C104  C151  S    
C122  C130  A    
C68   C138  S    
O46   Zn10  S    
O9    Zn1   S    
C16   C35   A    
C90   C134  A    
C75   C84   A    
C64   C88   A    
C149  O8    A    
C40   C58   S    
O33   Zn2   S    
C131  O26   A    
C95   H51   S    
C66   C74   A    
C7    O35   A    
C21   C30   A    
O48   Zn9   S    
C152  O29   A    
C31   C40   A    
C93   C137  A    
C111  C119  A    
C8    C16   A    
C59   N3    T    
C31   C144  S    
C126  H38   S    
O31   Zn12  S    
C38   C146  S    
C144  O11   A    
C26   C45   A    
C21   C43   A    
C146  O5    A    
C36   C42   A    
C1    O18   A    
C36   C148  S    
C22   C44   A    
C129  C138  A    
C10   C20   A    
C32   C143  S    
O29   Zn4   S    
C141  O9    A    
C29   C38   A    
C76   O20   A    
C132  H43   S    
C53   H53   S    
C64   C73   A    
C5    C100  S    
C69   C83   A    
C96   H52   S    
C94   H50   S    
C142  H56   S    
C91   C100  A    
C93   H49   S    
C117  C126  A    
C4    O31   A    
C72   C81   A    
C26   C48   A    
C120  O25   A    
O36   Zn3   S    
C91   H47   S    
C119  C128  A    
C78   C86   A    
C24   C51   A    
C57   H7    S    
C82   H17   S    
C77   C85   A    
O24   Zn1   S    
C2    H2    S    
O19   Zn8   S    
C7    O41   A    
C75   H22   S    
O27   Zn3   S    
C102  C111  A    
C92   C136  A    
C34   C41   A    
C28   C50   A    
O28   Zn4   S    
C70   C82   A    
C130  C139  A    
C152  O36   A    
O4    Zn10  S    
C79   C88   A    
C34   C149  S    
O15   Zn9   S    
C150  O38   A    
C22   C53   A    
O43   Zn12  S    
C58   N2    T    
C62   C85   A    
O42   Zn2   S    
C100  C108  A    
C17   C24   A    
C89   C133  A    
C22   C31   A    
C113  C122  A    
C94   C103  A    
O44   Zn8   S    
O11   Zn6   S    
C63   C134  S    
C20   C142  A    
C105  C114  A    
O26   Zn6   S    
C71   C80   A    
C127  C136  A    
C41   C59   S    
C87   C118  S    
C112  H32   S    
C61   H8    S    
C42   C60   S    
O12   Zn5   S    
C124  H36   S    
O10   Zn5   S    
C65   O19   A    
C55   H55   S    
O40   Zn12  S    
O22   Zn5   S    
C151  O39   A    
C146  O14   A    
C54   H54   S    
C101  C110  A    
C89   H44   S    
C145  O13   A    
C127  H39   S    
C23   C44   A    
C104  C113  A    
O1    Zn1   S    
C50   H23   S    
C128  H40   S    
C3    O30   A    
C108  H29   S    
C13   H3    S    
C9    C14   A    
C72   H19   S    
C96   C140  A    
C7    C97   S    
C151  O28   A    
C2    C49   A    
C145  O4    A    
C39   C56   S    
C98   O22   A    
C12   C15   A    
C8    C12   A    
C113  H33   S    
C4    C101  S    
C10   C45   A    
C111  H31   S    
C79   H26   S    
C48   C142  A    
C69   C139  S    
O45   Zn9   S    
C37   C147  S    
C73   H20   S    
C110  C118  A    
C60   N4    T    
O38   Zn4   S    
C30   C39   A    
C92   C101  A    
C38   C41   A    
C143  O2    A    
C131  O47   A    
C97   C106  A    
C13   C18   A    
C3    C102  S    
C48   H1    S    
C126  C135  A    
C67   C81   A    
C77   H24   S    
O5    Zn5   S    
C116  C125  A    
C1    O1    A    
C94   C138  A    
C65   C116  S    
C14   C16   A    
O32   Zn2   S    
C118  C127  A    
C114  C123  A    
O34   Zn7   S    
C35   H5    S    
C106  H27   S    
O21   Zn10  S    
O47   Zn11  S    
C95   C104  A    
C120  C122  S    
C23   C54   A    
C29   C51   A    
C27   C47   A    
C68   C77   A    
C90   C99   A    
C14   C57   A    
O37   Zn4   S    
C9    C44   A    
C147  O15   A    
C115  C124  A    
C80   H15   S    
C74   H21   S    
C26   C34   A    
C2    C19   A    
C108  C117  A    
C3    O37   A    
C121  C129  A    
O16   Zn10  S    
C130  H42   S    
C123  C132  A    
C93   C102  A    
C66   C86   A    
C144  O3    A    
C129  H41   S    
C90   H46   S    
O18   Zn9   S    
O2    Zn8   S    
C27   C36   A    
C132  C140  A    
C88   H11   S    
C99   C107  A    
C83   H16   S    
C63   C84   A    
C95   C139  A    
C76   C117  S    
C87   O21   A    
C65   O12   A    
C49   H12   S    
C106  C115  A    
O25   Zn7   S    
C33   C141  S    
C6    C99   S    
C5    O43   A    
O14   Zn8   S    
C9    C15   A    
C149  O17   A    
C112  C121  A    
C125  C134  A    
C103  C152  S    
C23   C32   A    
C12   C61   A    
O17   Zn11  S    
C109  C121  S    
C70   C79   A    
C28   C37   A    
O23   Zn6   S    
C120  O46   A    
C55   C61   A    
C46   C53   A    
C17   C19   A    
C141  O48   A    
C25   C55   A    
C62   C71   A    
C66   C136  S    
C76   O23   A    
C18   C20   A    
C87   O34   A    
C32   C40   A    
C5    O32   A    
C109  O45   A    
C67   C137  S    
C148  O7    A    
C71   H18   S    
C107  C116  A    
C64   C135  S    
C25   C33   A    
C114  H35   S    
C13   C50   A    
C109  O24   A    
C24   H4    S    
C56   N1    T    
C91   C135  A    
C63   C72   A    
C110  H30   S    
C37   C42   A    
C150  O27   A    
C89   C97   A    
C35   C52   A    
C51   H34   S    
O6    Zn1   S    
C147  O6    A    
C103  C112  A    
C125  H37   S    
C52   H45   S    
C10   C17   A    
C15   C46   A    
O3    Zn11  S    
C1    C115  S    
C92   H48   S    
O20   Zn11  S    
C62   C133  S    
C6    O40   A    
O13   Zn7   S    
C21   C52   A    
C29   C45   A    
C27   C49   A    
O39   Zn3   S    
C54   C57   A    
C46   H6    S    
