data_mof_unit_56435.cif
_audit_creation_date              2012-12-11T14:31:11-0500
_audit_creation_method            fapswitch 2.2
_symmetry_space_group_name_H-M    P1
_symmetry_Int_Tables_number       1
_space_group_crystal_system       triclinic
_cell_length_a                    6.89967
_cell_length_b                    14.28935
_cell_length_c                    16.346751
_cell_angle_alpha                 89.956874
_cell_angle_beta                  89.918239
_cell_angle_gamma                 89.704623
_cell_volume                      1611.63209219

loop_
_atom_site_label
_atom_site_type_symbol
_atom_type_description
_atom_site_fract_x
_atom_site_fract_y
_atom_site_fract_z
_atom_type_partial_charge
O1    O     O_R   0.469910 0.836130 0.163900 -0.507604
O2    O     O_R   0.530090 0.163870 0.836100 -0.506687
O3    O     O_R   0.530090 0.163870 0.663900 -0.511538
O4    O     O_R   0.469910 0.836130 0.336100 -0.509788
O5    O     O_R   0.969910 0.663870 0.336100 -0.524988
O6    O     O_R   0.030090 0.336130 0.663900 -0.524702
O7    O     O_R   0.030090 0.336130 0.836100 -0.523396
O8    O     O_R   0.969910 0.663870 0.163900 -0.526073
O9    O     O_R   0.140100 0.847470 0.335520 -0.537949
O10   O     O_R   0.859900 0.152530 0.664480 -0.541563
O11   O     O_R   0.859900 0.152530 0.835520 -0.542164
O12   O     O_R   0.140100 0.847470 0.164480 -0.539031
O13   O     O_R   0.640100 0.652530 0.164480 -0.568350
O14   O     O_R   0.359900 0.347470 0.835520 -0.568976
O15   O     O_R   0.359900 0.347470 0.664480 -0.569830
O16   O     O_R   0.640100 0.652530 0.335520 -0.569631
C1    C     C_R   0.310085 0.869149 0.364520 0.767022
C2    C     C_R   0.689882 0.130732 0.635572 0.753369
C3    C     C_R   0.689424 0.128834 0.863020 0.766972
C4    C     C_R   0.310366 0.868928 0.135242 0.765943
C5    C     C_R   0.811008 0.630491 0.136054 0.764623
C6    C     C_R   0.188973 0.369803 0.863808 0.791964
C7    C     C_R   0.189154 0.369606 0.636029 0.761060
C8    C     C_R   0.810844 0.630405 0.363977 0.762978
O17   O     O_3   0.303300 0.689750 0.250000 -0.410190
O18   O     O_3   0.696700 0.310250 0.750000 -0.408808
O19   O     O_3   0.803300 0.810250 0.250000 -0.340250
O20   O     O_3   0.196700 0.189750 0.750000 -0.347800
V1    V     V_3+5 0.028490 0.761170 0.250000 1.494550
V2    V     V_3+5 0.971510 0.238830 0.750000 1.476898
V3    V     V_3+5 0.528490 0.738830 0.250000 1.421862
V4    V     V_3+5 0.471510 0.261170 0.750000 1.414127
C9    C     C_2   0.831053 0.552723 0.423360 -0.405566
C10   C     C_2   0.168943 0.447298 0.576652 -0.407951
C11   C     C_2   0.168636 0.447705 0.922977 -0.402225
C12   C     C_2   0.831522 0.552897 0.076820 -0.405829
C13   C     C_2   0.325988 0.935438 0.065502 -0.385527
C14   C     C_2   0.673896 0.057858 0.929314 -0.394393
C15   C     C_2   0.674894 0.061084 0.568421 -0.396179
C16   C     C_2   0.324958 0.938649 0.431794 -0.394849
C17   C     C_2   0.986424 0.543276 0.474271 0.378026
C18   C     C_2   0.013492 0.456791 0.525789 0.382103
C19   C     C_2   0.012162 0.457886 0.973332 0.387892
C20   C     C_2   0.985716 0.544168 0.025048 0.373211
C21   C     C_2   0.495648 0.952892 0.025057 0.385067
C22   C     C_2   0.501872 0.021307 0.955414 0.380664
C23   C     C_2   0.504208 0.038610 0.530986 0.377122
C24   C     C_2   0.495503 0.960925 0.469422 0.385773
H1    H     H_    0.276207 0.501847 0.581302 0.114069
H2    H     H_    0.723887 0.498133 0.418661 0.116754
H3    H     H_    0.725878 0.497665 0.082449 0.120184
H4    H     H_    0.277415 0.501611 0.918907 0.107391
H5    H     H_    0.808402 0.035009 0.957618 0.150172
H6    H     H_    0.193130 0.969620 0.045691 0.150232
H7    H     H_    0.191404 0.973141 0.450355 0.149461
H8    H     H_    0.808463 0.026667 0.549771 0.149925
O21   O     O_3   0.890069 0.381381 0.514825 -0.571052
C25   C     C_3   0.717461 0.394946 0.560072 -0.166366
H9    H     H_    0.597908 0.418289 0.519676 0.098773
H10   H     H_    0.731042 0.444352 0.612594 0.116868
H11   H     H_    0.674236 0.326168 0.585018 0.175187
O22   O     O_3   0.109749 0.618719 0.485274 -0.573658
C26   C     C_3   0.282492 0.605199 0.440104 -0.170584
H12   H     H_    0.269404 0.555431 0.387820 0.121632
H13   H     H_    0.402183 0.582354 0.480642 0.098366
H14   H     H_    0.325210 0.673894 0.414835 0.173152
O23   O     O_3   0.107784 0.620042 0.013358 -0.575734
C27   C     C_3   0.281902 0.607201 0.057603 -0.174128
H15   H     H_    0.402569 0.588894 0.015717 0.100184
H16   H     H_    0.273704 0.554313 0.107778 0.121987
H17   H     H_    0.320068 0.675120 0.085522 0.173562
O24   O     O_3   0.886792 0.383132 0.983720 -0.561754
C28   C     C_3   0.716168 0.397993 0.937719 -0.140801
H18   H     H_    0.737433 0.441323 0.881637 0.112323
H19   H     H_    0.600353 0.429578 0.975795 0.094739
H20   H     H_    0.663351 0.328551 0.918152 0.180734
O25   O     O_3   0.328669 0.049972 0.920198 -0.541231
C29   C     C_3   0.270355 0.981132 0.863664 -0.207892
H21   H     H_    0.133093 0.004343 0.834648 0.168520
H22   H     H_    0.241809 0.912963 0.894226 0.101893
H23   H     H_    0.379852 0.972039 0.814152 0.121602
O26   O     O_3   0.667338 0.911122 0.050414 -0.541801
C30   C     C_3   0.708269 0.834892 0.998283 -0.219652
H24   H     H_    0.844554 0.800966 0.019088 0.177623
H25   H     H_    0.730937 0.858048 0.933997 0.101665
H26   H     H_    0.591562 0.781453 0.001149 0.115657
O27   O     O_3   0.666637 0.915779 0.447867 -0.544854
C31   C     C_3   0.692631 0.837918 0.499973 -0.203045
H27   H     H_    0.703861 0.859458 0.565182 0.105919
H28   H     H_    0.830383 0.802363 0.483213 0.172237
H29   H     H_    0.573779 0.786265 0.492587 0.117580
O28   O     O_3   0.332961 0.083538 0.552739 -0.550022
C32   C     C_3   0.306352 0.161480 0.500775 -0.192009
H30   H     H_    0.168556 0.196873 0.517731 0.171855
H31   H     H_    0.294836 0.140064 0.435547 0.115263
H32   H     H_    0.425031 0.213236 0.508097 0.119681

loop_
_geom_bond_atom_site_label_1
_geom_bond_atom_site_label_2
_ccdc_geom_bond_type
O17   V3    S    
O27   C31   S    
C26   H13   S    
O18   V4    S    
C19   O24   S    
O12   V1    S    
O19   V1    S    
C17   C18   S    
C21   O26   S    
C10   C18   D    
C19   C20   S    
O15   V4    S    
C5    C12   S    
O25   C29   S    
O16   V3    S    
C6    C11   S    
C14   H5    S    
O11   C3    A    
C32   H30   S    
O8    V1    S    
C29   H22   S    
C25   H10   S    
O1    V3    S    
O3    C2    A    
O2    V4    S    
C23   O28   S    
C15   H8    S    
O11   V2    S    
C27   H15   S    
C10   H1    S    
C11   C19   D    
O9    V1    S    
C7    C10   S    
C25   H11   S    
O15   C7    A    
C26   H14   S    
O16   C8    A    
O7    V2    S    
C28   H19   S    
C17   O22   S    
C18   O21   S    
O5    V1    S    
C28   H18   S    
O17   V1    S    
O19   V3    S    
O23   C27   S    
C23   C24   S    
O20   V4    S    
C29   H21   S    
C9    H2    S    
C21   C22   S    
C1    C16   S    
C2    C15   S    
O22   C26   S    
C3    C14   S    
O10   V2    S    
C30   H24   S    
C31   H29   S    
C16   H7    S    
O12   C4    A    
O8    C5    A    
C24   O27   S    
O13   C5    A    
C12   H3    S    
C13   H6    S    
O9    C1    A    
C30   H25   S    
C31   H28   S    
O18   V2    S    
C32   H32   S    
C28   H20   S    
C12   C20   D    
O4    C1    A    
C13   C21   D    
C15   C23   D    
C16   C24   D    
O1    C4    A    
O6    V2    S    
O2    C3    A    
O13   V3    S    
O14   V4    S    
O24   C28   S    
C22   O25   S    
O7    C6    A    
C8    C9    S    
C9    C17   D    
O14   C6    A    
O20   V2    S    
C25   H9    S    
C4    C13   S    
C29   H23   S    
O21   C25   S    
O5    C8    A    
O10   C2    A    
C27   H17   S    
O6    C7    A    
O28   C32   S    
O3    V4    S    
C14   C22   D    
O4    V3    S    
C26   H12   S    
C30   H26   S    
C31   H27   S    
C32   H31   S    
O26   C30   S    
C11   H4    S    
C27   H16   S    
C20   O23   S    
