data_mof_unit_14248.cif
_audit_creation_date              2012-12-10T20:51:28-0500
_audit_creation_method            fapswitch 2.2
_symmetry_space_group_name_H-M    P1
_symmetry_Int_Tables_number       1
_space_group_crystal_system       triclinic
_cell_length_a                    17.557215
_cell_length_b                    8.930499
_cell_length_c                    8.107139
_cell_angle_alpha                 90.000011
_cell_angle_beta                  89.367591
_cell_angle_gamma                 90.000154
_cell_volume                      1271.0789233

loop_
_atom_site_label
_atom_site_type_symbol
_atom_type_description
_atom_site_fract_x
_atom_site_fract_y
_atom_site_fract_z
_atom_type_partial_charge
C1    C     C_R   0.499999 0.217989 0.500000 1.046034
C2    C     C_R   0.843044 0.661986 0.444560 -0.156061
C3    C     C_R   0.773292 0.399585 0.565892 -0.067256
C4    C     C_R   0.226707 0.399588 0.434096 -0.067247
C5    C     C_R   0.235873 0.648940 0.563354 -0.050827
C6    C     C_R   0.764128 0.648948 0.436656 -0.050840
C7    C     C_R   0.728947 0.515873 0.496311 -0.176820
C8    C     C_R   0.271053 0.515869 0.503688 -0.176813
C9    C     C_R   0.886050 0.546305 0.509417 0.095655
C10   C     C_R   0.113951 0.546306 0.490582 0.095661
C11   C     C_1   0.966201 0.554980 0.503278 -0.014474
C12   C     C_R   0.499999 0.782000 0.500000 0.940468
C13   C     C_1   0.033800 0.554980 0.496722 -0.014471
C14   C     C_2   0.739964 0.257373 0.629891 0.967952
C15   C     C_2   0.260036 0.257381 0.370085 0.967943
C16   C     C_2   0.278789 0.778856 0.629583 0.881096
C17   C     C_2   0.721214 0.778872 0.370438 0.881091
C18   C     C_1   0.499999 0.065135 0.500000 -0.164785
C19   C     C_1   0.499999 0.934763 0.500000 -0.187465
C20   C     C_R   0.353409 0.504649 0.501081 0.943432
C21   C     C_R   0.646591 0.504652 0.498919 0.943464
C22   C     C_R   0.852099 0.417245 0.571433 -0.170172
C23   C     C_R   0.147901 0.417249 0.428556 -0.170177
C24   C     C_R   0.156957 0.661982 0.555449 -0.156066
H1    H     H_    0.887590 0.328468 0.620042 0.177444
H2    H     H_    0.112410 0.328475 0.379940 0.177441
H3    H     H_    0.128688 0.761400 0.602819 0.171651
H4    H     H_    0.871315 0.761405 0.397197 0.171663
H5    H     H_    0.656772 0.102503 0.617905 0.353810
H6    H     H_    0.343226 0.102508 0.382062 0.353817
H7    H     H_    0.361127 0.855860 0.778937 0.351471
H8    H     H_    0.638864 0.855890 0.221122 0.351471
N1    N     N_1   0.500000 0.500000 0.073640 -0.007591
N2    N     N_1   0.500000 0.500000 0.926360 -0.007590
O1    O     O_R   0.500000 0.285350 0.636850 -0.610610
O2    O     O_R   0.672975 0.199859 0.563594 -0.801535
O3    O     O_2   0.227555 0.188038 0.261321 -0.598565
O4    O     O_R   0.327023 0.199858 0.436383 -0.801525
O5    O     O_2   0.260147 0.905890 0.590677 -0.602017
O6    O     O_R   0.337492 0.757979 0.742097 -0.771302
O7    O     O_2   0.739873 0.905904 0.409315 -0.602011
O8    O     O_R   0.662494 0.758004 0.257962 -0.771319
O9    O     O_R   0.500000 0.714650 0.363150 -0.607328
O10   O     O_R   0.500000 0.714650 0.636850 -0.607344
O11   O     O_R   0.500000 0.285350 0.363150 -0.610611
O12   O     O_R   0.389120 0.500000 0.636930 -0.558878
O13   O     O_R   0.610880 0.500000 0.363070 -0.558871
O14   O     O_R   0.610880 0.500000 0.636930 -0.623411
O15   O     O_R   0.389120 0.500000 0.363070 -0.623407
O16   O     O_2   0.772446 0.188019 0.738642 -0.598562
Zn1   Zn    Zn3+2 0.500000 0.500000 0.682780 1.057194
Zn2   Zn    Zn3+2 0.500000 0.500000 0.317220 1.057198

loop_
_geom_bond_atom_site_label_1
_geom_bond_atom_site_label_2
_ccdc_geom_bond_type
C5    C8    A    
C15   O4    S    
C6    C7    A    
C10   C23   A    
C20   O15   A    
C11   C13   T    
O11   Zn2   S    
C24   H3    S    
C4    C8    A    
C21   O14   A    
O15   Zn2   S    
C4    C15   S    
C5    C24   A    
N1    N2    T    
N2    Zn1   S    
C5    C16   S    
C12   O10   A    
C8    C20   S    
N1    Zn2   S    
O1    Zn1   S    
C9    C11   S    
H5    O2    S    
C1    O11   A    
C1    C18   S    
C14   O16   D    
C3    C14   S    
C16   O6    S    
O10   Zn1   S    
C12   C19   S    
C12   O9    A    
C3    C7    A    
C14   O2    S    
O9    Zn2   S    
C17   O7    D    
C9    C22   A    
C16   O5    D    
H7    O6    S    
C1    O1    A    
C18   C19   T    
C23   H2    S    
O13   Zn2   S    
C4    C23   A    
C6    C17   S    
H8    O8    S    
C17   O8    S    
C15   O3    D    
C3    C22   A    
C2    H4    S    
H6    O4    S    
C10   C24   A    
C7    C21   S    
C2    C9    A    
O12   Zn1   S    
C10   C13   S    
O14   Zn1   S    
C20   O12   A    
C2    C6    A    
C21   O13   A    
C22   H1    S    
