data_mof_unit_25950.cif
_audit_creation_date              2012-10-26T20:43:01-0400
_audit_creation_method            fapswitch 2.2
_symmetry_space_group_name_H-M    P1
_symmetry_Int_Tables_number       1
_space_group_crystal_system       triclinic
_cell_length_a                    10.77047
_cell_length_b                    9.500397
_cell_length_c                    15.18
_cell_angle_alpha                 88.292604
_cell_angle_beta                  90.190555
_cell_angle_gamma                 90.001165
_cell_volume                      1552.57617597

loop_
_atom_site_label
_atom_site_type_symbol
_atom_type_description
_atom_site_fract_x
_atom_site_fract_y
_atom_site_fract_z
_atom_type_partial_charge
C1    C     C_R   0.262564 0.499902 0.499683 0.547361
C2    C     C_R   0.128567 0.499164 0.499833 0.019545
C3    C     C_R   0.418348 0.076959 0.448470 0.026526
C4    C     C_R   0.581804 0.923226 0.551347 0.025749
C5    C     C_R   0.582128 0.072110 0.551091 0.029053
C6    C     C_R   0.418495 0.928049 0.448396 0.028845
C7    C     C_R   0.500639 0.502687 0.328409 0.529258
C8    C     C_R   0.501289 0.497397 0.671606 0.529259
C9    C     C_R   0.500347 0.619959 0.811697 -0.158948
C10   C     C_R   0.501141 0.380565 0.188296 -0.160388
C11   C     C_R   0.502468 0.491601 0.768802 -0.048842
C12   C     C_R   0.737435 0.499866 0.500363 0.546458
C13   C     C_R   0.501407 0.508864 0.231249 -0.048241
C14   C     C_R   0.503383 0.362616 0.819156 -0.004041
C15   C     C_R   0.500076 0.638053 0.180985 -0.001875
C16   C     C_R   0.500825 0.366057 0.912144 0.017301
C17   C     C_R   0.498503 0.634566 0.087931 0.020498
C18   C     C_R   0.498743 0.497576 0.953680 0.043215
C19   C     C_R   0.498449 0.503024 0.046364 0.042837
C20   C     C_R   0.499138 0.623928 0.902892 0.004845
C21   C     C_R   0.500168 0.376654 0.097124 0.005043
C22   C     C_R   0.503489 0.241404 0.965034 -0.117979
C23   C     C_R   0.502387 0.246959 0.056244 -0.141012
C24   C     C_R   0.500238 0.759224 0.035010 -0.115863
C25   C     C_2   0.510979 0.225045 0.775807 0.221778
C26   C     C_2   0.502579 0.775965 0.224503 0.207944
C27   C     C_3   0.137292 0.492478 0.331935 -0.284880
C28   C     C_3   0.173226 0.639053 0.296770 -0.406425
C29   C     C_3   0.862743 0.477526 0.668170 -0.273495
C30   C     C_3   0.826919 0.620949 0.703119 -0.436531
C31   C     C_3   0.860026 0.511644 0.332141 -0.272819
C32   C     C_3   0.824331 0.365570 0.300886 -0.431546
C33   C     C_3   0.139977 0.497496 0.667875 -0.284523
C34   C     C_R   0.499710 0.753639 0.943781 -0.141835
C35   C     C_3   0.176383 0.348942 0.699613 -0.401042
C36   C     C_R   0.064780 0.499021 0.418225 -0.004287
C37   C     C_R   0.935217 0.491877 0.581840 -0.000005
C38   C     C_R   0.933959 0.503090 0.418388 0.001158
C39   C     C_R   0.066035 0.496068 0.581659 -0.002195
C40   C     C_R   0.871427 0.499116 0.500219 0.020420
Cu1   Cu    Cu3+1 0.500000 0.640660 0.500000 0.921507
Cu2   Cu    Cu3+1 0.500000 0.359340 0.500000 0.920734
H1    H     H_    0.500156 0.718676 0.773909 0.148367
H2    H     H_    0.353392 0.874028 0.407020 0.130725
H3    H     H_    0.592331 0.199773 0.737517 0.096535
H4    H     H_    0.580804 0.803404 0.265846 0.120368
H5    H     H_    0.090222 0.707409 0.288557 0.143669
H6    H     H_    0.238895 0.689244 0.342422 0.189275
H7    H     H_    0.219212 0.630375 0.231801 0.171395
H8    H     H_    0.222517 0.427812 0.340505 0.156290
H9    H     H_    0.084488 0.437486 0.280592 0.143558
H10   H     H_    0.781069 0.606456 0.768164 0.138455
H11   H     H_    0.909931 0.688588 0.711090 0.146366
H12   H     H_    0.502264 0.281808 0.226039 0.145005
H13   H     H_    0.761180 0.675265 0.657436 0.172338
H14   H     H_    0.777472 0.413675 0.659741 0.143583
H15   H     H_    0.915594 0.417788 0.719560 0.139008
H16   H     H_    0.907728 0.298443 0.293577 0.143934
H17   H     H_    0.760284 0.312441 0.348189 0.189854
H18   H     H_    0.776737 0.375880 0.236024 0.138357
H19   H     H_    0.774619 0.575554 0.339303 0.149971
H20   H     H_    0.911821 0.568530 0.279220 0.139447
H21   H     H_    0.240728 0.300316 0.652511 0.209752
H22   H     H_    0.223916 0.354028 0.764454 0.172596
H23   H     H_    0.507528 0.138232 0.937015 0.148980
H24   H     H_    0.093311 0.280657 0.707156 0.141593
H25   H     H_    0.225076 0.562544 0.660467 0.164207
H26   H     H_    0.087986 0.549415 0.720662 0.144307
H27   H     H_    0.503290 0.862458 0.063002 0.151690
H28   H     H_    0.504469 0.149202 0.094962 0.129024
H29   H     H_    0.500962 0.851407 0.905065 0.130553
H30   H     H_    0.353051 0.135164 0.407144 0.118058
H31   H     H_    0.647217 0.865398 0.592536 0.099567
H32   H     H_    0.648412 0.126415 0.591527 0.094216
N1    N     N_R   0.500000 0.852070 0.500000 -0.231329
N2    N     N_R   0.500000 0.147930 0.500000 -0.227300
O1    O     O_R   0.319640 0.618740 0.499990 -0.506779
O2    O     O_2   0.416130 0.858344 0.215501 -0.553103
O3    O     O_R   0.680360 0.381260 0.500010 -0.515888
O4    O     O_R   0.680360 0.618740 0.500010 -0.512815
O5    O     O_R   0.319640 0.381260 0.499990 -0.510058
O6    O     O_R   0.499970 0.618800 0.370260 -0.509547
O7    O     O_R   0.500030 0.381200 0.629740 -0.501771
O8    O     O_R   0.500030 0.618800 0.629740 -0.508151
O9    O     O_R   0.499970 0.381200 0.370260 -0.512749
O10   O     O_2   0.425629 0.140739 0.781676 -0.534117

loop_
_geom_bond_atom_site_label_1
_geom_bond_atom_site_label_2
_ccdc_geom_bond_type
C28   H5    S    
C8    O7    A    
C1    O1    A    
Cu1   Cu2   S    
C31   H19   S    
C31   H20   S    
C32   H16   S    
C3    C6    A    
Cu1   O4    S    
C6    N1    A    
C26   O2    D    
C19   C21   A    
C18   C19   A    
C37   C40   A    
Cu1   O1    S    
C11   C14   A    
C1    O5    A    
C12   O3    A    
C1    C2    S    
C5    H32   S    
C4    N1    A    
C33   C35   S    
C2    C39   A    
C35   H22   S    
C27   H8    S    
C20   C34   A    
Cu2   O3    S    
C10   C21   A    
C6    H2    S    
C23   H28   S    
Cu2   O5    S    
C27   H9    S    
C24   H27   S    
C21   C23   A    
C30   H11   S    
C9    H1    S    
C17   C24   A    
C15   C26   S    
C35   H24   S    
Cu1   O8    S    
C24   C34   A    
C12   C40   S    
C22   H23   S    
C29   C30   S    
Cu1   N1    S    
C28   H7    S    
C9    C20   A    
C31   C32   S    
Cu2   O9    S    
C33   C39   S    
C3    N2    A    
C9    C11   A    
C4    H31   S    
C29   H15   S    
C13   C15   A    
C14   C16   A    
C32   H18   S    
C25   H3    S    
C33   H25   S    
C2    C36   A    
C15   C17   A    
C30   H10   S    
C28   H6    S    
C16   C22   A    
C8    O8    A    
Cu2   O7    S    
C4    C5    A    
C10   C13   A    
C29   H14   S    
C27   C36   S    
C30   H13   S    
Cu2   N2    S    
C31   C38   S    
C5    N2    A    
C36   C38   A    
C3    H30   S    
C37   C39   A    
C38   C40   A    
C7    O9    A    
C8    C11   S    
Cu1   O6    S    
C12   O4    A    
C25   O10   D    
C17   C19   A    
C18   C20   A    
C14   C25   S    
C10   H12   S    
C26   H4    S    
C7    C13   S    
C7    O6    A    
C16   C18   A    
C29   C37   S    
C27   C28   S    
C22   C23   A    
C35   H21   S    
C32   H17   S    
C34   H29   S    
C33   H26   S    
