data_mof_unit_30292.cif
_audit_creation_date              2012-12-10T18:00:46-0500
_audit_creation_method            fapswitch 2.2
_symmetry_space_group_name_H-M    P1
_symmetry_Int_Tables_number       1
_space_group_crystal_system       triclinic
_cell_length_a                    15.872673
_cell_length_b                    10.811063
_cell_length_c                    9.540823
_cell_angle_alpha                 90.818334
_cell_angle_beta                  91.022609
_cell_angle_gamma                 90.018608
_cell_volume                      1636.78169675

loop_
_atom_site_label
_atom_site_type_symbol
_atom_type_description
_atom_site_fract_x
_atom_site_fract_y
_atom_site_fract_z
_atom_type_partial_charge
C1    C     C_R   0.502863 0.262412 0.499047 0.873353
C2    C     C_R   0.497294 0.737694 0.501029 0.883090
C3    C     C_R   0.549469 0.930979 0.408364 -0.286753
C4    C     C_R   0.451402 0.069396 0.592385 -0.276515
C5    C     C_R   0.496889 0.871714 0.502666 -0.203501
C6    C     C_R   0.503716 0.128558 0.497823 -0.205318
C7    C     C_R   0.445224 0.426982 0.071538 0.044165
C8    C     C_R   0.554751 0.573055 0.928459 0.053801
C9    C     C_R   0.445272 0.426958 0.922881 0.023367
C10   C     C_R   0.554723 0.573047 0.077117 0.047682
C11   C     C_R   0.339933 0.498687 0.498610 0.841051
C12   C     C_R   0.660049 0.500618 0.501358 0.839600
C13   C     C_3   0.978874 0.415799 0.598270 -0.228455
C14   C     C_3   0.020966 0.581705 0.401049 -0.225867
C15   C     C_3   0.028572 0.386888 0.463623 0.275037
C16   C     C_3   0.971259 0.610682 0.535630 0.351042
C17   C     C_1   0.250454 0.499284 0.494619 -0.095008
C18   C     C_1   0.749471 0.499258 0.505290 -0.063523
C19   C     C_3   0.033997 0.532713 0.622977 0.370271
C20   C     C_3   0.965761 0.464876 0.376447 0.339552
C21   C     C_3   0.083466 0.503118 0.489125 -0.177316
C22   C     C_3   0.916384 0.494516 0.510347 -0.195272
C23   C     C_1   0.175055 0.500899 0.490554 0.140829
C24   C     C_1   0.824840 0.497161 0.509276 0.143783
C25   C     C_R   0.554470 0.059224 0.405686 0.365604
C26   C     C_R   0.446787 0.941247 0.595819 0.447783
Cu1   Cu    Cu3+1 0.500000 0.500020 0.640660 1.021156
Cu2   Cu    Cu3+1 0.500000 0.499980 0.359340 1.036326
H1    H     H_    0.588274 0.876293 0.338684 0.201264
H2    H     H_    0.412682 0.124189 0.662089 0.201061
H3    H     H_    0.401448 0.368202 0.125167 0.135797
H4    H     H_    0.598533 0.631823 0.874828 0.138567
H5    H     H_    0.401481 0.368147 0.864815 0.138636
H6    H     H_    0.598522 0.631844 0.135184 0.134724
N1    N     N_R   0.500020 0.500030 0.852070 -0.173138
N2    N     N_R   0.499980 0.499970 0.147930 -0.167772
O1    O     O_R   0.500000 0.319660 0.618740 -0.598461
O2    O     O_R   0.500000 0.680340 0.381260 -0.599927
O3    O     O_R   0.499990 0.319630 0.381170 -0.531085
O4    O     O_R   0.500010 0.680370 0.618830 -0.533531
O5    O     O_R   0.379080 0.500000 0.618760 -0.560834
O6    O     O_R   0.620920 0.500000 0.381240 -0.537994
O7    O     O_R   0.379080 0.499970 0.381190 -0.591875
O8    O     O_R   0.620920 0.500030 0.618810 -0.598909
S1    S     S_3+6 0.069135 0.239755 0.407579 0.075010
O9    O     O_2   0.108211 0.253047 0.266361 -0.201848
O10   O     O_2   0.135400 0.195436 0.509373 -0.293553
O11   O     O_3   0.990948 0.135019 0.395067 -0.428554
H7    H     H_    0.966062 0.133569 0.489411 0.349247
S2    S     S_3+6 0.931673 0.758847 0.589468 0.054027
O12   O     O_2   0.859297 0.795987 0.495627 -0.298151
O13   O     O_2   0.901636 0.751860 0.737616 -0.247106
O14   O     O_3   0.009026 0.864574 0.580300 -0.453721
H8    H     H_    0.989433 0.936018 0.637007 0.372383
C27   C     C_R   0.961952 0.319766 0.707700 0.121449
C28   C     C_R   0.030250 0.260412 0.773872 -0.055178
C29   C     C_R   0.016670 0.169770 0.873765 -0.109812
C30   C     C_R   0.934636 0.137432 0.908879 -0.059131
C31   C     C_R   0.866167 0.195141 0.843390 -0.090305
C32   C     C_R   0.879575 0.285835 0.743176 -0.131339
H9    H     H_    0.094227 0.284512 0.748653 0.208989
H10   H     H_    0.069902 0.126323 0.925315 0.176470
H11   H     H_    0.924036 0.069059 0.987996 0.168688
H12   H     H_    0.802591 0.170082 0.870862 0.185190
H13   H     H_    0.825304 0.328238 0.694665 0.158732
C33   C     C_R   0.037938 0.676910 0.290663 0.165493
C34   C     C_R   0.969699 0.737499 0.225895 -0.015398
C35   C     C_R   0.983164 0.824927 0.122416 -0.064374
C36   C     C_R   0.065070 0.853597 0.082962 -0.024252
C37   C     C_R   0.133559 0.795090 0.147509 -0.079948
C38   C     C_R   0.120240 0.707076 0.250827 -0.100927
H14   H     H_    0.905784 0.716399 0.254484 0.197715
H15   H     H_    0.929830 0.868658 0.071585 0.161997
H16   H     H_    0.075496 0.919715 0.001245 0.154711
H17   H     H_    0.197044 0.817100 0.116549 0.178791
H18   H     H_    0.174492 0.663207 0.297646 0.152852
S3    S     S_3+6 0.916030 0.411642 0.217189 0.058534
O15   O     O_2   0.870675 0.292308 0.242783 -0.186898
O16   O     O_2   0.853640 0.506036 0.166064 -0.312288
O17   O     O_3   0.989741 0.387967 0.096232 -0.485057
H19   H     H_    0.958189 0.389949 0.006054 0.393959
S4    S     S_3+6 0.082197 0.585736 0.783554 0.034678
O18   O     O_2   0.149850 0.496987 0.829060 -0.326592
O19   O     O_2   0.120630 0.710979 0.762827 -0.237670
O20   O     O_3   0.008440 0.596223 0.906668 -0.487236
H20   H     H_    0.040604 0.594928 0.996311 0.386635
S5    S     S_3+6 0.628258 0.127911 0.292654 0.055757
O21   O     O_2   0.677758 0.225376 0.372029 -0.250352
O22   O     O_2   0.688419 0.032685 0.236606 -0.259236
O23   O     O_3   0.577174 0.194014 0.157227 -0.492349
H21   H     H_    0.542042 0.127112 0.114810 0.338907
S6    S     S_3+6 0.374471 0.873239 0.711667 0.033843
O24   O     O_2   0.422291 0.815287 0.831233 -0.294164
O25   O     O_2   0.315367 0.969177 0.769289 -0.264890
O26   O     O_3   0.317871 0.764326 0.625105 -0.534078
H22   H     H_    0.287683 0.719695 0.698964 0.403865

loop_
_geom_bond_atom_site_label_1
_geom_bond_atom_site_label_2
_ccdc_geom_bond_type
S3    O15   D    
S5    O21   D    
C7    N2    A    
O26   H22   S    
C27   C28   A    
C29   C30   A    
C29   H10   S    
O20   H20   S    
C31   H12   S    
C17   C23   T    
C20   S3    S    
C18   C24   T    
C14   C21   S    
C19   C21   S    
C16   S2    S    
C38   H18   S    
S1    O11   S    
C6    C25   A    
C26   S6    S    
C25   S5    S    
C28   C29   A    
C34   H14   S    
C3    H1    S    
C2    O2    A    
C12   O6    A    
Cu1   O8    S    
C35   C36   A    
S2    O13   D    
C11   O7    A    
C37   C38   A    
C19   S4    S    
C1    O1    A    
S1    O10   D    
C33   C34   A    
C31   C32   A    
C27   C32   A    
C9    H5    S    
S3    O16   D    
C15   C20   S    
S2    O14   S    
C7    H3    S    
C13   C19   S    
C34   C35   A    
C8    H4    S    
C14   C20   S    
C3    C25   A    
C4    C6    A    
Cu2   O3    S    
Cu1   N1    S    
C35   H15   S    
S1    O9    D    
S6    O26   S    
C1    C6    S    
C8    N1    A    
Cu1   O5    S    
C33   C38   A    
Cu2   O2    S    
Cu1   O4    S    
S6    O25   D    
S2    O12   D    
C14   C33   S    
C36   H16   S    
C10   H6    S    
O11   H7    S    
C20   C22   S    
C32   H13   S    
S4    O19   D    
C13   C15   S    
C14   C16   S    
C2    C5    S    
C15   S1    S    
Cu1   Cu2   S    
S3    O17   S    
C30   H11   S    
C7    C9    A    
C11   C17   S    
C16   C22   S    
O17   H19   S    
C3    C5    A    
C4    C26   A    
O14   H8    S    
S4    O20   S    
Cu2   O7    S    
C21   C23   S    
C30   C31   A    
C12   O8    A    
O23   H21   S    
Cu1   O1    S    
C16   C19   S    
Cu2   O6    S    
S6    O24   D    
C13   C22   S    
C11   O5    A    
C22   C24   S    
C36   C37   A    
C1    O3    A    
C5    C26   A    
C2    O4    A    
C15   C21   S    
Cu2   N2    S    
C8    C10   A    
S4    O18   D    
S5    O23   S    
C12   C18   S    
C37   H17   S    
C9    N1    A    
S5    O22   D    
C28   H9    S    
C10   N2    A    
C4    H2    S    
C13   C27   S    
