data_mof_unit_40998.cif
_audit_creation_date              2012-12-10T19:09:28-0500
_audit_creation_method            fapswitch 2.2
_symmetry_space_group_name_H-M    P1
_symmetry_Int_Tables_number       1
_space_group_crystal_system       triclinic
_cell_length_a                    15.012724
_cell_length_b                    15.065448
_cell_length_c                    10.096573
_cell_angle_alpha                 89.70063
_cell_angle_beta                  89.746506
_cell_angle_gamma                 90.067701
_cell_volume                      2283.52119449

loop_
_atom_site_label
_atom_site_type_symbol
_atom_type_description
_atom_site_fract_x
_atom_site_fract_y
_atom_site_fract_z
_atom_type_partial_charge
C1    C     C_R   0.120475 0.379472 0.499702 0.816882
C2    C     C_R   0.120771 0.620130 0.499823 0.802877
C3    C     C_R   0.620730 0.879757 0.499933 0.798990
C4    C     C_R   0.622329 0.118479 0.499663 0.819809
C5    C     C_3   0.903331 0.506842 0.078039 0.494802
C6    C     C_3   0.905500 0.482327 0.921632 0.498870
C7    C     C_3   0.405265 0.017082 0.079980 0.503909
C8    C     C_3   0.403724 0.991384 0.923833 0.487509
C9    C     C_R   0.880777 0.377725 0.500066 0.811993
C10   C     C_R   0.878999 0.620501 0.499954 0.799253
C11   C     C_R   0.379115 0.879359 0.500307 0.798037
C12   C     C_R   0.379303 0.120774 0.499804 0.814103
C13   C     C_3   0.800546 0.268367 0.639486 -0.422709
C14   C     C_3   0.841881 0.230768 0.405555 -0.391344
C15   C     C_3   0.846495 0.774225 0.430399 -0.408837
C16   C     C_3   0.782483 0.712586 0.643000 -0.413228
C17   C     C_3   0.346344 0.725407 0.569245 -0.411276
C18   C     C_3   0.283025 0.787450 0.357325 -0.411709
C19   C     C_3   0.348174 0.276127 0.435866 -0.392677
C20   C     C_3   0.279485 0.209858 0.641121 -0.424363
C21   C     C_3   0.273459 0.653565 0.571968 -0.393318
C22   C     C_3   0.214720 0.713783 0.356589 -0.401554
C23   C     C_3   0.275997 0.348614 0.436480 -0.408454
C24   C     C_3   0.207715 0.279714 0.640750 -0.397768
C25   C     C_3   0.733527 0.193258 0.638614 -0.399832
C26   C     C_3   0.767561 0.160432 0.400513 -0.405169
C27   C     C_3   0.773954 0.846247 0.428154 -0.395421
C28   C     C_3   0.713525 0.785600 0.643207 -0.398145
C29   C     C_3   0.723674 0.346780 0.451542 -0.424650
C30   C     C_3   0.726284 0.655594 0.425988 -0.408501
C31   C     C_3   0.226372 0.843836 0.575255 -0.410245
C32   C     C_3   0.228742 0.157353 0.418850 -0.428992
C33   C     C_3   0.813450 0.307402 0.498919 0.203874
C34   C     C_3   0.810259 0.689263 0.499454 0.206784
C35   C     C_3   0.310424 0.810473 0.500987 0.208308
C36   C     C_3   0.310623 0.189542 0.498524 0.205328
C37   C     C_3   0.189244 0.688365 0.500292 0.210362
C38   C     C_3   0.188995 0.311112 0.498148 0.195447
C39   C     C_3   0.692053 0.185418 0.499042 0.200471
C40   C     C_3   0.689167 0.811385 0.499383 0.210012
C41   C     C_3   0.153761 0.771877 0.572692 -0.408299
C42   C     C_3   0.157190 0.230162 0.416619 -0.391221
C43   C     C_3   0.650669 0.275654 0.459036 -0.402089
C44   C     C_3   0.654137 0.727926 0.426782 -0.407680
C45   C     C_3   0.053145 0.425258 0.082352 -0.055519
C46   C     C_3   0.059981 0.429422 0.922754 -0.027462
C47   C     C_3   0.039053 0.583967 0.917879 -0.038385
C48   C     C_3   0.047675 0.580427 0.077808 -0.011752
C49   C     C_3   0.540543 0.917034 0.081379 -0.041393
C50   C     C_3   0.548918 0.920611 0.921493 -0.007660
C51   C     C_3   0.551800 0.076116 0.918121 -0.057127
C52   C     C_3   0.558241 0.072315 0.078475 -0.025289
H1    H     H_    0.773298 0.321099 0.703904 0.184403
H2    H     H_    0.855039 0.255521 0.303630 0.165487
H3    H     H_    0.867769 0.759800 0.327160 0.166803
H4    H     H_    0.751395 0.653376 0.689930 0.173703
H5    H     H_    0.367656 0.739587 0.672279 0.165774
H6    H     H_    0.251403 0.846537 0.311522 0.175205
H7    H     H_    0.370484 0.264550 0.332408 0.165891
H8    H     H_    0.249962 0.149149 0.685543 0.175237
H9    H     H_    0.864783 0.242949 0.679048 0.167084
H10   H     H_    0.904595 0.199948 0.441955 0.148548
H11   H     H_    0.905947 0.799255 0.484214 0.144179
H12   H     H_    0.841009 0.734306 0.702012 0.175682
H13   H     H_    0.405696 0.700400 0.514529 0.145257
H14   H     H_    0.341789 0.766501 0.297557 0.175897
H15   H     H_    0.407179 0.299271 0.492559 0.147564
H16   H     H_    0.336290 0.233872 0.701814 0.173196
H17   H     H_    0.298499 0.592413 0.522869 0.141834
H18   H     H_    0.242104 0.655330 0.302918 0.171069
H19   H     H_    0.299588 0.406707 0.494378 0.144773
H20   H     H_    0.229160 0.336201 0.703961 0.174265
H21   H     H_    0.766502 0.129819 0.667196 0.159434
H22   H     H_    0.795380 0.094059 0.425953 0.142816
H23   H     H_    0.798921 0.907143 0.477872 0.141213
H24   H     H_    0.739776 0.844064 0.697867 0.170665
H25   H     H_    0.257410 0.636033 0.676653 0.169524
H26   H     H_    0.154964 0.737563 0.302651 0.162736
H27   H     H_    0.263964 0.371786 0.333218 0.167996
H28   H     H_    0.145805 0.249686 0.682070 0.178042
H29   H     H_    0.681881 0.207818 0.714295 0.187248
H30   H     H_    0.741421 0.156663 0.297843 0.170679
H31   H     H_    0.758663 0.864266 0.323618 0.169135
H32   H     H_    0.653318 0.760833 0.695804 0.162400
H33   H     H_    0.704438 0.404643 0.513573 0.143525
H34   H     H_    0.729341 0.370343 0.347686 0.173535
H35   H     H_    0.742203 0.638202 0.322038 0.172181
H36   H     H_    0.700172 0.594377 0.474806 0.143611
H37   H     H_    0.242029 0.859947 0.679652 0.172493
H38   H     H_    0.200967 0.905695 0.527942 0.142015
H39   H     H_    0.247937 0.141283 0.315679 0.177271
H40   H     H_    0.200847 0.095754 0.464275 0.145250
H41   H     H_    0.134004 0.755088 0.676210 0.164464
H42   H     H_    0.093616 0.797914 0.521432 0.143213
H43   H     H_    0.145083 0.250101 0.312407 0.185107
H44   H     H_    0.093487 0.203611 0.457597 0.144193
H45   H     H_    0.599384 0.295492 0.533187 0.155049
H46   H     H_    0.616880 0.270925 0.361556 0.167422
H47   H     H_    0.635995 0.744683 0.322860 0.165013
H48   H     H_    0.593065 0.702272 0.476978 0.142845
H49   H     H_    0.123192 0.436152 0.115423 0.124879
H50   H     H_    0.130042 0.451245 0.901904 0.093307
H51   H     H_    0.108588 0.590312 0.879115 0.111601
H52   H     H_    0.120308 0.575088 0.100298 0.089445
H53   H     H_    0.610181 0.912181 0.119212 0.111809
H54   H     H_    0.621384 0.927104 0.897563 0.089895
H55   H     H_    0.622213 0.066119 0.885323 0.123104
H56   H     H_    0.628837 0.052752 0.098792 0.088590
N1    N     N_3   0.998760 0.500000 0.138610 -0.086853
N2    N     N_3   0.998760 0.500000 0.861390 -0.081029
N3    N     N_3   0.498760 1.000000 0.138610 -0.081214
N4    N     N_3   0.498760 1.000000 0.861390 -0.085648
O1    O     O_R   0.092530 0.407440 0.616040 -0.597744
O2    O     O_R   0.092530 0.407440 0.383960 -0.601231
O3    O     O_R   0.092530 0.592560 0.383960 -0.647190
O4    O     O_R   0.092530 0.592560 0.616040 -0.645475
O5    O     O_R   0.592530 0.907440 0.616040 -0.647537
O6    O     O_R   0.592530 0.907440 0.383960 -0.645658
O7    O     O_R   0.592530 0.092560 0.383960 -0.602103
O8    O     O_R   0.592530 0.092560 0.616040 -0.601737
O9    O     O_R   0.907330 0.407420 0.616040 -0.627034
O10   O     O_R   0.907330 0.407420 0.383960 -0.615146
O11   O     O_R   0.907330 0.592580 0.383960 -0.647811
O12   O     O_R   0.907330 0.592580 0.616040 -0.641498
O13   O     O_R   0.407330 0.907420 0.616040 -0.648362
O14   O     O_R   0.407330 0.907420 0.383960 -0.642479
O15   O     O_R   0.407330 0.092580 0.383960 -0.623766
O16   O     O_R   0.407330 0.092580 0.616040 -0.614354
Zn1   Zn    Zn3+2 0.999890 0.500000 0.654960 0.909656
Zn2   Zn    Zn3+2 0.999890 0.500000 0.345040 0.909967
Zn3   Zn    Zn3+2 0.499890 1.000000 0.654960 0.909704
Zn4   Zn    Zn3+2 0.499890 1.000000 0.345040 0.909515
N5    N     N_3   0.034998 0.339122 0.145742 -0.409831
H57   H     H_    0.081402 0.292480 0.112528 0.140407
H58   H     H_    0.972384 0.313128 0.131648 0.167382
N6    N     N_3   0.056869 0.342022 0.858803 -0.402033
H59   H     H_    0.119482 0.313292 0.872616 0.142355
H60   H     H_    0.016578 0.296640 0.908454 0.162898
N7    N     N_3   0.994418 0.664433 0.869776 -0.469243
H61   H     H_    0.997921 0.666902 0.767294 0.239936
H62   H     H_    0.031158 0.719941 0.898761 0.161058
N8    N     N_3   0.022205 0.666595 0.134173 -0.460160
H63   H     H_    0.009949 0.663820 0.234737 0.255588
H64   H     H_    0.073422 0.712494 0.117794 0.145783
N9    N     N_3   0.497134 0.835732 0.129862 -0.469028
H65   H     H_    0.499152 0.833864 0.232390 0.241332
H66   H     H_    0.535525 0.781028 0.102029 0.161131
N10   N     N_3   0.524327 0.833940 0.866118 -0.459775
H67   H     H_    0.510281 0.836156 0.766182 0.255299
H68   H     H_    0.576228 0.788870 0.881189 0.146900
N11   N     N_3   0.533386 0.161942 0.853976 -0.407831
H69   H     H_    0.580381 0.208621 0.885004 0.139065
H70   H     H_    0.471416 0.188844 0.870681 0.164395
N12   N     N_3   0.550105 0.158663 0.145647 -0.398739
H71   H     H_    0.613779 0.184827 0.160920 0.156109
H72   H     H_    0.519158 0.206832 0.088039 0.158327
C53   C     C_3   0.833021 0.449961 0.154344 -0.820502
H73   H     H_    0.812426 0.482198 0.248062 0.262425
H74   H     H_    0.769677 0.445777 0.098369 0.188344
H75   H     H_    0.852964 0.381377 0.173899 0.226292
C54   C     C_3   0.872626 0.383959 0.903216 -0.927743
H76   H     H_    0.798843 0.377981 0.900468 0.212895
H77   H     H_    0.899357 0.353117 0.815822 0.285956
H78   H     H_    0.889468 0.337688 0.981139 0.192960
C55   C     C_3   0.831967 0.532952 0.844079 -0.813102
H79   H     H_    0.766321 0.528069 0.894555 0.180986
H80   H     H_    0.847403 0.603504 0.833145 0.245712
H81   H     H_    0.818086 0.503562 0.746395 0.271012
C56   C     C_3   0.857614 0.602178 0.093553 -0.886844
H82   H     H_    0.879651 0.653818 0.024396 0.257735
H83   H     H_    0.784179 0.600128 0.080038 0.199508
H84   H     H_    0.864536 0.632935 0.188867 0.263260
C57   C     C_3   0.332213 0.965606 0.157738 -0.818799
H85   H     H_    0.348650 0.895297 0.167925 0.246429
H86   H     H_    0.317767 0.994810 0.255482 0.269926
H87   H     H_    0.266632 0.969707 0.107833 0.181751
C58   C     C_3   0.358915 0.895541 0.908525 -0.883905
H88   H     H_    0.381667 0.843993 0.977028 0.257416
H89   H     H_    0.285492 0.896653 0.923400 0.200477
H90   H     H_    0.365784 0.865458 0.812455 0.262123
C59   C     C_3   0.334022 0.047103 0.848752 -0.836991
H91   H     H_    0.314447 0.015729 0.754116 0.266037
H92   H     H_    0.270202 0.051243 0.904329 0.191042
H93   H     H_    0.356509 0.114809 0.832004 0.232825
C60   C     C_3   0.370488 0.115811 0.099151 -0.901448
H94   H     H_    0.296585 0.120679 0.099038 0.206908
H95   H     H_    0.392009 0.148814 0.188180 0.281144
H96   H     H_    0.389377 0.162574 0.022725 0.190770

loop_
_geom_bond_atom_site_label_1
_geom_bond_atom_site_label_2
_ccdc_geom_bond_type
C8    C59   S    
C16   C28   S    
C9    C33   S    
C53   H73   S    
C28   H32   S    
O8    Zn3   S    
C56   H83   S    
C56   H82   S    
C43   H46   S    
C13   C25   S    
C14   C33   S    
N9    H65   S    
C7    C8    S    
C12   O15   A    
C57   H85   S    
C46   H50   S    
C55   H79   S    
O1    Zn1   S    
C42   H44   S    
C32   C36   S    
C11   O13   A    
N10   H68   S    
C38   C42   S    
C10   O12   A    
C19   C36   S    
C8    N4    S    
C5    C6    S    
C44   H47   S    
C45   N1    S    
C26   C39   S    
C60   H95   S    
C32   H39   S    
C45   N5    S    
C28   C40   S    
C52   N12   S    
C48   H52   S    
C29   C33   S    
N2    Zn1   S    
O15   Zn4   S    
C3    O5    A    
C16   C34   S    
C2    O4    A    
C8    C58   S    
C24   H28   S    
C41   H41   S    
O4    Zn1   S    
C20   C24   S    
C7    N3    S    
C31   H37   S    
C24   C38   S    
N11   H69   S    
C4    C39   S    
C4    O7    A    
C19   H15   S    
C20   H8    S    
C18   C35   S    
C15   C34   S    
N12   H72   S    
C49   N3    S    
C58   H90   S    
C59   H92   S    
C48   N1    S    
C6    C55   S    
C51   N11   S    
C26   H30   S    
C29   C43   S    
C25   H29   S    
O2    Zn2   S    
C13   H9    S    
C30   C44   S    
C59   H93   S    
C1    O1    A    
C27   H23   S    
N9    H66   S    
C20   H16   S    
O7    Zn4   S    
C13   H1    S    
C57   H86   S    
C39   C43   S    
C15   C27   S    
C47   H51   S    
C30   C34   S    
C49   N9    S    
C42   H43   S    
C47   C48   S    
C23   H19   S    
C11   O14   A    
N10   H67   S    
C22   H26   S    
N6    H60   S    
C10   O11   A    
C60   H96   S    
C54   H77   S    
C52   N3    S    
C58   H89   S    
C59   H91   S    
C22   C37   S    
C17   C21   S    
C51   C52   S    
C21   H17   S    
C15   H3    S    
C6    N2    S    
C19   C23   S    
C16   H4    S    
C13   C33   S    
N7    H62   S    
C3    O6    A    
C2    O3    A    
O13   Zn3   S    
C9    O9    A    
C41   H42   S    
C6    C54   S    
O14   Zn4   S    
C27   C40   S    
C31   H38   S    
C50   N4    S    
C9    O10   A    
N12   H71   S    
C48   N8    S    
C10   C34   S    
C28   H24   S    
C14   C26   S    
C29   H34   S    
C45   H49   S    
C1    C38   S    
C51   H55   S    
C14   H2    S    
C3    C40   S    
C49   C50   S    
C55   H81   S    
C5    C53   S    
C46   N2    S    
O11   Zn2   S    
N5    H57   S    
C56   H84   S    
C31   C35   S    
C12   C36   S    
C1    O2    A    
C53   H74   S    
C47   N2    S    
O16   Zn3   S    
C54   H78   S    
C22   H18   S    
C24   H20   S    
C50   H54   S    
C57   H87   S    
C50   N10   S    
C15   H11   S    
C31   C41   S    
C18   C22   S    
C29   H33   S    
C7    C60   S    
C43   H45   S    
O9    Zn1   S    
N6    H59   S    
C47   N7    S    
C49   H53   S    
N7    H61   S    
C12   O16   A    
C53   H75   S    
C18   H14   S    
C23   C38   S    
C17   C35   S    
C17   H13   S    
C19   H7    S    
C11   C35   S    
C54   H76   S    
C25   C39   S    
C44   H48   S    
C2    C37   S    
C60   H94   S    
C32   H40   S    
C5    N1    S    
C32   C42   S    
C7    C57   S    
C27   H31   S    
C26   H22   S    
C18   H6    S    
O12   Zn1   S    
C25   H21   S    
N11   H70   S    
N4    Zn3   S    
C37   C41   S    
O5    Zn3   S    
O6    Zn4   S    
C51   N4    S    
C46   N6    S    
C20   C36   S    
C45   C46   S    
N3    Zn4   S    
C40   C44   S    
C21   C37   S    
C52   H56   S    
C55   H80   S    
C58   H88   S    
C21   H25   S    
N1    Zn2   S    
N5    H58   S    
C5    C56   S    
N8    H63   S    
C4    O8    A    
C16   H12   S    
C23   H27   S    
C30   H35   S    
C30   H36   S    
O10   Zn2   S    
N8    H64   S    
C17   H5    S    
O3    Zn2   S    
C14   H10   S    
