data_mof_unit_44411.cif
_audit_creation_date              2012-12-10T17:46:21-0500
_audit_creation_method            fapswitch 2.2
_symmetry_space_group_name_H-M    P1
_symmetry_Int_Tables_number       1
_space_group_crystal_system       triclinic
_cell_length_a                    14.133166
_cell_length_b                    10.680047
_cell_length_c                    9.952012
_cell_angle_alpha                 87.712721
_cell_angle_beta                  87.942569
_cell_angle_gamma                 95.421776
_cell_volume                      1493.08440676

loop_
_atom_site_label
_atom_site_type_symbol
_atom_type_description
_atom_site_fract_x
_atom_site_fract_y
_atom_site_fract_z
_atom_type_partial_charge
C1    C     C_R   0.512645 0.262619 0.503722 1.019563
C2    C     C_R   0.566894 0.076685 0.402564 0.189514
C3    C     C_R   0.548685 0.947301 0.388790 0.168286
C4    C     C_R   0.330163 0.509107 0.501520 0.940030
C5    C     C_R   0.494647 0.874545 0.491713 -0.185818
C6    C     C_R   0.343636 0.327799 0.136435 0.224208
C7    C     C_R   0.269035 0.288795 0.045594 0.281232
C8    C     C_R   0.265470 0.358026 0.927799 0.319988
C9    C     C_R   0.351501 0.381897 0.863012 -0.276212
C10   C     C_R   0.427764 0.432391 0.932219 -0.034431
C11   C     C_R   0.425796 0.422151 0.078435 -0.011150
C12   C     C_1   0.772659 0.504538 0.493669 -0.202942
C13   C     C_R   0.567387 0.569201 0.065330 -0.167390
C14   C     C_R   0.568776 0.567679 0.922474 0.269872
C15   C     C_R   0.497044 0.740106 0.497141 0.860577
C16   C     C_R   0.670864 0.502035 0.497796 0.863488
C17   C     C_1   0.228812 0.512113 0.502635 -0.083486
C18   C     C_1   0.143630 0.512968 0.499387 0.113875
C19   C     C_1   0.043694 0.511800 0.495999 0.070840
C20   C     C_1   0.958295 0.509800 0.493904 0.034556
C21   C     C_1   0.858167 0.506943 0.492797 -0.004320
C22   C     C_3   0.718815 0.192122 0.342295 -0.776711
C23   C     C_R   0.476668 0.098825 0.758931 -0.169618
C24   C     C_3   0.734922 0.602046 0.855072 -0.733607
C25   C     C_3   0.523346 0.884623 0.161486 -0.685285
C26   C     C_R   0.421786 0.026849 0.857683 -0.110845
C27   C     C_R   0.376034 0.911186 0.827294 -0.050004
C28   C     C_R   0.392936 0.862894 0.701711 -0.123110
C29   C     C_R   0.456914 0.930284 0.605405 0.052337
C30   C     C_R   0.487579 0.055329 0.626919 0.075939
C31   C     C_R   0.527967 0.130796 0.515348 -0.197499
H1    H     H_    0.358968 0.348617 0.764053 0.254686
H2    H     H_    0.717918 0.237015 0.441019 0.226063
H3    H     H_    0.008701 0.338710 0.880560 0.374129
H4    H     H_    0.640270 0.737990 0.863837 0.206460
H5    H     H_    0.761721 0.615396 0.957635 0.220640
H6    H     H_    0.784293 0.658106 0.781360 0.246499
H7    H     H_    0.734063 0.501130 0.831381 0.252381
H8    H     H_    0.655197 0.921731 0.245632 0.218047
H9    H     H_    0.510817 0.980726 0.124767 0.233990
H10   H     H_    0.453803 0.831854 0.191462 0.268667
H11   H     H_    0.556316 0.836559 0.077557 0.202632
H12   H     H_    0.514097 0.184513 0.791025 0.165181
H13   H     H_    0.215402 0.082545 0.368302 0.393133
H14   H     H_    0.226025 0.939229 0.102116 0.368096
H15   H     H_    0.414403 0.062383 0.957140 0.192162
H16   H     H_    0.330334 0.856871 0.902313 0.158486
H17   H     H_    0.357291 0.771726 0.681631 0.151463
H18   H     H_    0.622027 0.626393 0.114492 0.152066
H19   H     H_    0.620072 0.126481 0.205836 0.238588
H20   H     H_    0.754107 0.261447 0.265914 0.258026
H21   H     H_    0.760384 0.108991 0.349041 0.242715
N1    N     N_R   0.499190 0.498800 0.142780 -0.091780
N2    N     N_R   0.499160 0.498720 0.857170 -0.095474
N3    N     N_2   0.623052 0.154274 0.303528 -0.291367
N4    N     N_2   0.640727 0.643592 0.845935 -0.266990
N5    N     N_2   0.585891 0.889927 0.273770 -0.301462
O1    O     O_R   0.500000 0.316780 0.614690 -0.661713
O2    O     O_2   0.160933 0.296244 0.716294 -0.252524
O3    O     O_3   0.063065 0.325683 0.937948 -0.482890
O4    O     O_2   0.391041 0.123951 0.277914 -0.313765
O5    O     O_2   0.331651 0.277892 0.424683 -0.301359
O6    O     O_3   0.212787 0.155902 0.304766 -0.454080
O7    O     O_2   0.111642 0.123764 0.089824 -0.190714
O8    O     O_2   0.206865 0.099329 0.885705 -0.259016
O9    O     O_3   0.268715 0.017751 0.107755 -0.546164
O10   O     O_R   0.499990 0.316750 0.385360 -0.502640
O11   O     O_R   0.373720 0.500010 0.614690 -0.604182
O12   O     O_R   0.373710 0.499990 0.385360 -0.575035
O13   O     O_R   0.500010 0.683250 0.614640 -0.613300
O14   O     O_R   0.500000 0.683220 0.385310 -0.593695
O15   O     O_R   0.626290 0.500010 0.614640 -0.581027
O16   O     O_R   0.626280 0.499990 0.385310 -0.602797
O17   O     O_2   0.157756 0.509041 0.799238 -0.342562
S1    S     S_3+6 0.160308 0.372497 0.839985 0.070200
S2    S     S_3+6 0.324733 0.225102 0.289283 0.086076
S3    S     S_3+6 0.211706 0.130474 0.031447 0.107665
Zn1   Zn    Zn3+2 0.500010 0.500020 0.653130 0.958118
Zn2   Zn    Zn3+2 0.499990 0.499980 0.346870 1.006490

loop_
_geom_bond_atom_site_label_1
_geom_bond_atom_site_label_2
_ccdc_geom_bond_type
C14   N4    S    
O13   Zn1   S    
O7    S3    D    
C19   C20   T    
C16   O15   A    
O14   Zn2   S    
C7    C8    A    
C26   C27   A    
C24   H5    S    
C28   C29   A    
N1    Zn2   S    
C2    N3    S    
C25   H9    S    
C30   C31   A    
O6    S2    S    
H8    N5    S    
C1    C31   S    
C23   H12   S    
C18   C19   S    
C23   C26   A    
C15   O13   A    
O15   Zn1   S    
C9    H1    S    
C12   C16   S    
C8    C9    A    
C24   H7    S    
C9    C10   A    
C5    C29   A    
C11   N1    A    
C7    S3    S    
O4    S2    D    
C13   C14   A    
H3    O3    S    
O5    S2    D    
C25   N5    S    
C4    O12   A    
C17   C18   T    
C13   N1    A    
H13   O6    S    
O11   Zn1   S    
O8    S3    D    
O17   S1    D    
C16   O16   A    
C23   C30   A    
O10   Zn2   S    
C25   H10   S    
C6    C11   A    
C4    O11   A    
C26   H15   S    
C12   C21   T    
C8    S1    S    
C2    C31   A    
C29   C30   A    
C24   H6    S    
O16   Zn2   S    
C6    C7    A    
C13   H18   S    
C4    C17   S    
C3    N5    S    
C14   N2    A    
O12   Zn2   S    
O2    S1    D    
H14   O9    S    
C22   H21   S    
C27   H16   S    
C22   H2    S    
C28   H17   S    
H4    N4    S    
C3    C5    A    
C25   H11   S    
C6    S2    S    
C22   N3    S    
C24   N4    S    
C15   O14   A    
O3    S1    S    
H19   N3    S    
C2    C3    A    
C1    O1    A    
C1    O10   A    
O9    S3    S    
C10   N2    A    
C5    C15   S    
C10   C11   A    
O1    Zn1   S    
C20   C21   S    
C27   C28   A    
C22   H20   S    
N2    Zn1   S    
