data_mof_unit_5466.cif
_audit_creation_date              2013-03-05T16:07:15-0500
_audit_creation_method            fapswitch 2.2
_symmetry_space_group_name_H-M    P1
_symmetry_Int_Tables_number       1
_space_group_crystal_system       triclinic
_cell_length_a                    10.707682
_cell_length_b                    11.562851
_cell_length_c                    10.770079
_cell_angle_alpha                 90.005313
_cell_angle_beta                  89.470904
_cell_angle_gamma                 89.988631
_cell_volume                      1333.40093421

loop_
_atom_site_label
_atom_site_type_symbol
_atom_site_description
_atom_site_fract_x
_atom_site_fract_y
_atom_site_fract_z
_atom_type_partial_charge
O1    O     O_R   0.500000 0.334450 0.602530 -0.638279
O2    O     O_R   0.500000 0.334450 0.397470 -0.636413
C1    C     C_R   0.499998 0.281175 0.499996 0.927959
O3    O     O_R   0.314800 0.499980 0.602530 -0.584564
O4    O     O_R   0.314800 0.499980 0.397470 -0.637800
O5    O     O_R   0.685200 0.499980 0.602530 -0.637282
O6    O     O_R   0.685200 0.499980 0.397470 -0.584036
C2    C     C_1   0.500166 0.940850 0.500020 0.077819
C3    C     C_R   0.257006 0.499819 0.500726 1.056969
C4    C     C_R   0.742975 0.499651 0.499253 1.056029
Zn1   Zn    Zn3+2 0.500000 0.500000 0.636920 1.041158
Zn2   Zn    Zn3+2 0.500000 0.500000 0.363080 1.040619
C5    C     C_1   0.500000 0.499971 0.069740 0.060705
C6    C     C_1   0.499998 0.499971 0.930261 0.064024
O7    O     O_R   0.500000 0.665550 0.602530 -0.578153
O8    O     O_R   0.500000 0.665550 0.397470 -0.577554
C7    C     C_R   0.500085 0.718829 0.500007 1.000079
C8    C     C_1   0.500069 0.161082 0.499993 -0.150060
C9    C     C_3   0.068869 0.443266 0.623158 0.337440
C10   C     C_3   0.073657 0.430939 0.386909 0.302306
C11   C     C_3   0.926385 0.427812 0.610587 0.301237
C12   C     C_3   0.931168 0.446615 0.374816 0.337572
H1    H     H_    0.085584 0.502246 0.702565 0.132836
H2    H     H_    0.116313 0.465698 0.299714 0.096311
H3    H     H_    0.883698 0.460101 0.698870 0.095337
H4    H     H_    0.914326 0.507784 0.297359 0.133129
C13   C     C_1   0.500130 0.059168 0.500006 0.034367
C14   C     C_3   0.074551 0.635211 0.494978 0.191783
C15   C     C_3   0.925115 0.634958 0.508828 0.192270
C16   C     C_3   0.120901 0.503146 0.502341 -0.400620
C17   C     C_3   0.879042 0.503093 0.497549 -0.399987
N1    N     N_1   0.500000 0.500010 0.180630 -0.080284
N2    N     N_1   0.500000 0.500010 0.819370 -0.078805
C18   C     C_1   0.500150 0.838936 0.500022 -0.039943
O9    O     O_3   0.127937 0.334210 0.642542 -0.496218
C19   C     C_3   0.159109 0.318138 0.768533 -0.204596
H5    H     H_    0.189564 0.227320 0.781719 0.200091
H6    H     H_    0.077969 0.334006 0.831373 0.117752
H7    H     H_    0.237931 0.375407 0.794648 0.166576
O10   O     O_3   0.102929 0.311512 0.403325 -0.463053
C20   C     C_3   0.171470 0.266205 0.301828 -0.154977
H8    H     H_    0.264854 0.307258 0.294190 0.148573
H9    H     H_    0.120167 0.276349 0.213405 0.123065
H10   H     H_    0.185975 0.172364 0.317397 0.209787
O11   O     O_3   0.897282 0.308884 0.590331 -0.463332
C21   C     C_3   0.828155 0.260995 0.690009 -0.156405
H11   H     H_    0.735708 0.303499 0.700063 0.145959
H12   H     H_    0.880218 0.266750 0.778435 0.126587
H13   H     H_    0.811498 0.168146 0.670304 0.210402
O12   O     O_3   0.872325 0.338080 0.351872 -0.495526
C22   C     C_3   0.841196 0.325512 0.225397 -0.203447
H14   H     H_    0.922343 0.343048 0.163115 0.118070
H15   H     H_    0.762439 0.383548 0.201033 0.167486
H16   H     H_    0.810686 0.235134 0.209301 0.198223
N3    N     N_R   0.126851 0.712198 0.592555 0.247695
O13   O     O_R   0.101811 0.822365 0.588657 -0.251138
O14   O     O_R   0.198069 0.675842 0.681483 -0.376038
N4    N     N_R   0.118301 0.684283 0.373968 0.226806
O15   O     O_R   0.062873 0.662898 0.269424 -0.382846
O16   O     O_R   0.221002 0.744547 0.369383 -0.339726
N5    N     N_R   0.881400 0.681032 0.631228 0.227506
O17   O     O_R   0.936361 0.656324 0.735174 -0.384675
O18   O     O_R   0.779477 0.742363 0.637446 -0.336645
N6    N     N_R   0.872527 0.714162 0.413467 0.246727
O19   O     O_R   0.897908 0.824147 0.419907 -0.250664
O20   O     O_R   0.799907 0.679994 0.324670 -0.378188

loop_
_geom_bond_atom_site_label_1
_geom_bond_atom_site_label_2
_geom_bond_distance
_ccdc_geom_bond_type
O5    C4    1.267765 A    
O6    C4    1.263697 A    
C9    H1    1.109630 S    
N3    O13   1.302472 A    
O4    C3    1.267658 A    
C14   N4    1.492966 S    
C19   H5    1.109053 S    
C11   C17   1.583740 S    
C20   H8    1.109326 S    
C5    N1    1.194299 T    
O9    C19   1.412663 S    
O1    Zn1   1.949701 S    
C12   O12   1.426940 S    
C22   H16   1.109057 S    
O2    Zn2   1.949768 S    
N6    O19   1.302492 A    
C6    N2    1.194300 T    
C14   C16   1.607777 S    
O12   C22   1.412813 S    
N4    O15   1.301351 A    
C15   N6    1.490391 S    
C15   C17   1.607589 S    
C15   N5    1.493019 S    
C10   C16   1.584348 S    
O11   C21   1.411589 S    
Zn2   N1    1.965001 S    
O3    Zn1   2.020716 S    
C20   H9    1.110004 S    
C21   H13   1.109145 S    
O6    Zn2   2.020714 S    
C3    C16   1.457820 S    
O4    Zn2   2.013991 S    
C19   H6    1.111583 S    
O10   C20   1.411713 S    
C9    C11   1.543325 S    
C14   N3    1.490417 S    
C10   C12   1.543122 S    
C9    O9    1.426848 S    
O2    C1    1.264468 A    
C11   O11   1.427270 S    
N3    O14   1.299605 A    
C12   H4    1.109749 S    
N5    O17   1.301314 A    
C10   O10   1.427354 S    
C20   H10   1.109080 S    
C21   H12   1.109948 S    
C7    C18   1.388777 S    
N4    O16   1.302537 A    
C22   H14   1.111469 S    
C10   H2    1.115467 S    
Zn1   N2    1.965000 S    
C1    C8    1.388615 S    
N5    O18   1.302612 A    
C12   C17   1.572044 S    
O5    Zn1   2.013990 S    
O7    C7    1.264454 A    
C2    C13   1.368097 S    
C11   H3    1.115435 S    
C21   H11   1.109496 S    
C14   C15   1.605682 S    
C2    C18   1.178416 T    
O1    C1    1.264446 A    
O3    C3    1.263990 A    
C5    C6    1.502200 S    
C9    C16   1.571581 S    
Zn1   O7    1.949767 S    
C4    C17   1.457457 S    
C19   H7    1.111083 S    
C8    C13   1.178418 T    
Zn2   O8    1.949700 S    
O8    C7    1.264502 A    
C22   H15   1.110965 S    
N6    O20   1.299667 A    
