data_mof_unit_62811.cif
_audit_creation_date              2012-12-10T19:34:20-0500
_audit_creation_method            fapswitch 2.2
_symmetry_space_group_name_H-M    P1
_symmetry_Int_Tables_number       1
_space_group_crystal_system       triclinic
_cell_length_a                    18.728291
_cell_length_b                    18.649483
_cell_length_c                    18.732951
_cell_angle_alpha                 109.264273
_cell_angle_beta                  109.964647
_cell_angle_gamma                 109.237773
_cell_volume                      5033.24187806

loop_
_atom_site_label
_atom_site_type_symbol
_atom_type_description
_atom_site_fract_x
_atom_site_fract_y
_atom_site_fract_z
_atom_type_partial_charge
C1    C     C_R   0.619587 0.620084 0.499967 0.858626
C2    C     C_R   0.835166 0.779810 0.554423 -0.136066
C3    C     C_3   0.889008 0.735599 0.556130 -0.356889
C4    C     C_R   0.379352 0.499946 0.379107 0.851015
C5    C     C_3   0.817283 0.663284 0.552966 1.087267
C6    C     C_R   0.702734 0.431928 0.672221 -0.074771
C7    C     C_R   0.689471 0.503172 0.688751 -0.225089
C8    C     C_R   0.744202 0.577212 0.774129 0.684109
C9    C     C_R   0.808982 0.576445 0.838888 -0.264873
C10   C     C_R   0.818215 0.501796 0.818874 -0.092781
C11   C     C_R   0.764126 0.431065 0.734977 -0.107413
C12   C     C_3   0.199891 0.418615 0.181485 -0.078979
C13   C     C_3   0.745357 0.342045 0.676188 -0.295640
C14   C     C_3   0.673794 0.342644 0.603781 1.073989
C15   C     C_R   0.320528 0.245283 0.504251 0.087613
C16   C     C_R   0.380050 0.379971 0.499861 0.850748
C17   C     C_R   0.312987 0.314584 0.498276 -0.071855
C18   C     C_R   0.238150 0.319931 0.492393 -0.198281
C19   C     C_R   0.173178 0.255048 0.492055 -0.195528
C20   C     C_R   0.184725 0.186679 0.500298 -0.079728
C21   C     C_R   0.259832 0.184884 0.506923 0.114830
C22   C     C_3   0.308243 0.136241 0.516656 -0.478823
C23   C     C_3   0.214026 0.443747 0.274623 -0.218877
C24   C     C_3   0.378645 0.206454 0.514883 -0.377756
C25   C     C_R   0.003545 0.620572 0.123610 0.869413
C26   C     C_R   0.124637 0.499927 0.124444 0.905605
C27   C     C_R   0.003903 0.379700 0.883883 0.924855
C28   C     C_R   0.621842 0.501002 0.621329 0.954016
C29   C     C_R   0.883316 0.499953 0.883033 0.960240
C30   C     C_R   0.999167 0.119823 0.618968 0.863273
C31   C     C_R   0.879633 0.880277 0.500594 0.913282
C32   C     C_R   0.000490 0.879865 0.380841 0.903255
C33   C     C_R   0.119863 0.120216 0.500143 0.854343
C34   C     C_3   0.312454 0.499665 0.311721 -0.106544
C35   C     C_R   0.924851 0.672847 0.189096 -0.007491
C36   C     C_R   0.001942 0.688119 0.186848 -0.104865
C37   C     C_R   0.076575 0.772032 0.242815 -0.152899
C38   C     C_R   0.076490 0.835867 0.307444 -0.187563
C39   C     C_R   0.001266 0.815971 0.314449 0.018818
C40   C     C_3   0.303390 0.579815 0.320183 0.700692
C41   C     C_R   0.924382 0.736780 0.251989 -0.170693
C42   C     C_3   0.865644 0.671798 0.264954 0.406616
C43   C     C_3   0.865564 0.600909 0.194817 0.380665
C44   C     C_R   0.971896 0.229364 0.801508 -0.099322
C45   C     C_R   0.770636 0.714648 0.551560 -0.017724
C46   C     C_R   0.000003 0.313703 0.814434 -0.056030
C47   C     C_R   0.025115 0.332950 0.757076 -0.132019
C48   C     C_R   0.023137 0.268157 0.690549 -0.195444
C49   C     C_R   0.999158 0.185466 0.683659 -0.031031
C50   C     C_R   0.974467 0.168883 0.740451 -0.085295
C51   C     C_3   0.948263 0.102011 0.766854 0.482432
C52   C     C_3   0.204543 0.525150 0.283158 -0.228652
C53   C     C_3   0.945606 0.171401 0.837896 0.456712
C54   C     C_3   0.191877 0.500059 0.191367 -0.092302
C55   C     C_3   0.290427 0.556187 0.228382 -0.229224
C56   C     C_R   0.683078 0.687213 0.499519 -0.118288
C57   C     C_3   0.299534 0.474679 0.219826 -0.232083
C58   C     C_2   0.975173 0.788242 0.640608 0.578655
C59   C     C_2   0.819275 0.342129 0.660072 0.569047
C60   C     C_2   0.710449 0.276876 0.703546 0.439278
C61   C     C_2   0.779186 0.669082 0.241500 0.527617
C62   C     C_2   0.856683 0.148380 0.828651 0.397340
C63   C     C_2   0.566923 0.711273 0.409450 0.496154
C64   C     C_R   0.659676 0.734082 0.459040 -0.057084
C65   C     C_R   0.726026 0.800439 0.462444 -0.099435
C66   C     C_R   0.813193 0.819084 0.505293 -0.054436
F1    F     F_    0.772828 0.583875 0.476243 -0.596367
F2    F     F_    0.010197 0.203726 0.922483 -0.610251
F3    F     F_    0.841850 0.655453 0.627460 -0.654821
F4    F     F_    0.736676 0.650299 0.794621 -0.617725
F5    F     F_    0.689104 0.344286 0.536850 -0.613439
F6    F     F_    0.588391 0.282599 0.573621 -0.707749
F7    F     F_    0.358301 0.662682 0.393088 -0.630458
F8    F     F_    0.907560 0.681100 0.347107 -0.636937
F9    F     F_    0.785566 0.545744 0.117497 -0.651528
F10   F     F_    0.015746 0.086216 0.801481 -0.571696
H1    H     H_    0.164756 0.546538 0.307608 0.169077
H2    H     H_    0.135157 0.899433 0.352935 0.136706
H3    H     H_    0.896828 0.565906 0.218808 0.143206
H4    H     H_    0.320665 0.602830 0.209026 0.196032
H5    H     H_    0.046064 0.397363 0.763520 0.198683
H6    H     H_    0.042303 0.283063 0.646518 0.151066
H7    H     H_    0.884797 0.041859 0.714128 0.065820
H8    H     H_    0.339768 0.453990 0.195588 0.192686
H9    H     H_    0.155395 0.352403 0.122513 0.203308
H10   H     H_    0.184846 0.397807 0.295143 0.165641
H11   H     H_    0.709215 0.834700 0.428564 0.199621
H12   H     H_    0.851189 0.633304 0.904076 0.176775
H13   H     H_    0.894643 0.714198 0.496324 0.257354
H14   H     H_    0.977867 0.815723 0.703021 0.109969
H15   H     H_    0.807592 0.283108 0.609037 0.097187
H16   H     H_    0.658198 0.272697 0.717899 0.118899
H17   H     H_    0.741793 0.665291 0.180194 0.066191
H18   H     H_    0.846073 0.199332 0.863622 0.124346
H19   H     H_    0.514580 0.656975 0.402464 0.058431
H20   H     H_    0.229741 0.373138 0.487276 0.163368
H21   H     H_    0.115323 0.258975 0.486857 0.167753
H22   H     H_    0.330641 0.138760 0.581000 0.227774
H23   H     H_    0.273145 0.069946 0.458411 0.203119
H24   H     H_    0.441183 0.250034 0.578604 0.237348
H25   H     H_    0.385023 0.180693 0.456123 0.241832
H26   H     H_    0.135991 0.786780 0.239543 0.174207
O1    O     O_R   0.592030 0.539910 0.448670 -0.566506
O2    O     O_R   0.051340 0.091660 0.643070 -0.575075
O3    O     O_R   0.856270 0.908420 0.447910 -0.629685
O4    O     O_R   0.591210 0.643320 0.551340 -0.605626
O5    O     O_R   0.960500 0.908460 0.552180 -0.589194
O6    O     O_R   0.948660 0.908440 0.357030 -0.630320
O7    O     O_R   0.052890 0.908480 0.461300 -0.588247
O8    O     O_R   0.039500 0.091640 0.447920 -0.622640
O9    O     O_R   0.143730 0.091680 0.552190 -0.622401
O10   O     O_R   0.408090 0.448300 0.356360 -0.629602
O11   O     O_R   0.407280 0.551720 0.459030 -0.590565
O12   O     O_R   0.054880 0.643340 0.094730 -0.628163
O13   O     O_R   0.408790 0.356680 0.448660 -0.612870
O14   O     O_R   0.407970 0.460090 0.551330 -0.626617
O15   O     O_R   0.592720 0.448280 0.540970 -0.557858
O16   O     O_R   0.591910 0.551700 0.643640 -0.573295
O17   O     O_R   0.951440 0.539930 0.094760 -0.604124
O18   O     O_2   0.042890 0.800837 0.639505 -0.513715
O19   O     O_2   0.891861 0.407336 0.703322 -0.567321
O20   O     O_2   0.740434 0.228884 0.710561 -0.571288
O21   O     O_2   0.750603 0.671581 0.291349 -0.526081
O22   O     O_2   0.796380 0.072764 0.783753 -0.543993
O23   O     O_R   0.044460 0.448310 0.096120 -0.613742
O24   O     O_2   0.547689 0.752920 0.375497 -0.530224
O25   O     O_R   0.147900 0.551710 0.096100 -0.625312
O26   O     O_R   0.952840 0.356700 0.912890 -0.635053
O27   O     O_R   0.056280 0.460110 0.912860 -0.615847
O28   O     O_R   0.859820 0.448330 0.911520 -0.617865
O29   O     O_R   0.963270 0.551730 0.911500 -0.591114
O30   O     O_R   0.947110 0.091620 0.538800 -0.629561
Zn1   Zn    Zn3+2 0.500550 0.430950 0.431450 1.111050
Zn2   Zn    Zn3+2 0.499450 0.569050 0.568550 1.089215
Zn3   Zn    Zn3+2 0.934790 0.430980 0.003830 1.043442
Zn4   Zn    Zn3+2 0.072930 0.569070 0.003790 1.034493
Zn5   Zn    Zn3+2 0.930400 0.000020 0.430430 1.010486
Zn6   Zn    Zn3+2 0.069600 0.000080 0.569670 1.091062

loop_
_geom_bond_atom_site_label_1
_geom_bond_atom_site_label_2
_ccdc_geom_bond_type
C59   O19   D    
C31   C66   S    
C22   H22   S    
C63   H19   S    
C18   H20   S    
C41   C42   S    
C35   C36   A    
O10   Zn1   S    
C5    F1    S    
O15   Zn1   S    
C62   O22   D    
C19   H21   S    
C7    C8    A    
C39   C41   A    
C13   C60   S    
C12   C23   S    
C12   H9    S    
C34   C40   S    
C36   C37   A    
C1    C56   S    
C18   C19   A    
C28   O15   A    
C9    H12   S    
O6    Zn5   S    
C61   H17   S    
O14   Zn2   S    
C43   H3    S    
C16   O14   A    
C40   F7    S    
C24   H25   S    
C14   F5    S    
C32   C39   S    
C53   F2    S    
C5    F3    S    
C46   C47   A    
C44   C53   S    
C29   O28   A    
C45   C56   A    
C52   C54   S    
C8    C9    A    
C23   H10   S    
C34   C57   S    
C56   C64   A    
C33   O9    A    
C35   C43   S    
C9    C10   A    
C1    O1    A    
O16   Zn2   S    
C1    O4    A    
O23   Zn3   S    
C4    O10   A    
C13   C14   S    
C31   O3    A    
C31   O5    A    
C26   C54   S    
C44   C46   A    
C65   H11   S    
C60   H16   S    
C2    C45   A    
C43   F9    S    
C38   C39   A    
C4    C34   S    
C42   F8    S    
C32   O7    A    
C4    O11   A    
O25   Zn4   S    
O29   Zn4   S    
O26   Zn3   S    
C6    C11   A    
C16   C17   S    
O13   Zn1   S    
C50   C51   S    
O30   Zn5   S    
C40   C52   S    
C5    C45   S    
O17   Zn3   S    
C37   H26   S    
O7    Zn6   S    
C51   C53   S    
C26   O23   A    
C37   C38   A    
C6    C14   S    
O27   Zn4   S    
C53   C62   S    
C47   C48   A    
C42   C61   S    
O4    Zn2   S    
C40   C55   S    
C58   O18   D    
C17   C18   A    
C57   H8    S    
C59   H15   S    
C51   F10   S    
C60   O20   D    
C58   H14   S    
C27   O26   A    
C20   C33   S    
C27   C46   S    
C48   C49   A    
O28   Zn3   S    
C49   C50   A    
O11   Zn2   S    
C55   C57   S    
C27   O27   A    
C22   C24   S    
C42   C43   S    
C12   C57   S    
C52   H1    S    
C16   O13   A    
C51   H7    S    
C48   H6    S    
C44   C50   A    
C15   C17   A    
C54   C55   S    
C15   C24   S    
C23   C34   S    
C22   H23   S    
C24   H24   S    
C14   F6    S    
C30   C49   S    
O8    Zn5   S    
C3    C5    S    
C2    C66   A    
C6    C7    A    
C13   C59   S    
C38   H2    S    
C8    F4    S    
C25   O17   A    
C61   O21   D    
C3    H13   S    
C64   C65   A    
C19   C20   A    
C62   H18   S    
C2    C3    S    
O1    Zn1   S    
C28   O16   A    
C25   O12   A    
C55   H4    S    
C11   C13   S    
C10   C29   S    
C23   C52   S    
C29   O29   A    
O5    Zn6   S    
C30   O30   A    
O2    Zn6   S    
C26   O25   A    
C47   H5    S    
C35   C41   A    
C63   O24   D    
C10   C11   A    
C7    C28   S    
C25   C36   S    
O3    Zn5   S    
C63   C64   S    
C3    C58   S    
C15   C21   A    
C20   C21   A    
C65   C66   A    
C32   O6    A    
C30   O2    A    
O12   Zn4   S    
C33   O8    A    
C21   C22   S    
C12   C54   S    
O9    Zn6   S    
