data_mof_unit_16340.cif
_audit_creation_date              2012-12-10T17:11:32-0500
_audit_creation_method            fapswitch 2.2
_symmetry_space_group_name_H-M    P1
_symmetry_Int_Tables_number       1
_space_group_crystal_system       triclinic
_cell_length_a                    15.0192
_cell_length_b                    12.987035
_cell_length_c                    11.747352
_cell_angle_alpha                 99.666189
_cell_angle_beta                  92.548238
_cell_angle_gamma                 91.693906
_cell_volume                      2255.01794214

loop_
_atom_site_label
_atom_site_type_symbol
_atom_type_description
_atom_site_fract_x
_atom_site_fract_y
_atom_site_fract_z
_atom_type_partial_charge
C1    C     C_R   0.497945 0.299289 0.478763 0.832407
C2    C     C_R   0.499288 0.700658 0.521460 0.813510
C3    C     C_R   0.037566 0.387166 0.313437 -0.216035
C4    C     C_R   0.962374 0.627740 0.679938 -0.209107
C5    C     C_R   0.495824 0.814061 0.534553 -0.132592
C6    C     C_R   0.493990 0.185790 0.466717 -0.131962
C7    C     C_R   0.477699 0.014755 0.345860 0.446810
C8    C     C_R   0.505852 0.984802 0.656305 0.449324
C9    C     C_R   0.483778 0.123424 0.357024 -0.288977
C10   C     C_R   0.507808 0.876312 0.644155 -0.273073
C11   C     C_R   0.500391 0.139649 0.565838 -0.223500
C12   C     C_R   0.480943 0.860422 0.436764 -0.261891
C13   C     C_R   0.496735 0.031448 0.556695 -0.001027
C14   C     C_R   0.484655 0.968588 0.445884 0.025036
C15   C     C_R   0.411612 0.406594 0.027173 -0.342983
C16   C     C_R   0.600337 0.576032 0.969790 -0.312231
C17   C     C_R   0.419574 0.415977 0.147492 -0.012114
C18   C     C_R   0.588093 0.572149 0.850277 -0.014353
C19   C     C_R   0.544253 0.535035 0.154955 0.613042
C20   C     C_R   0.455094 0.467938 0.846976 0.606224
C21   C     C_R   0.537391 0.528023 0.031834 -0.071373
C22   C     C_R   0.466803 0.467915 0.968480 -0.075457
C23   C     C_R   0.328908 0.501618 0.501020 0.805171
C24   C     C_R   0.671108 0.501424 0.498831 0.816602
C25   C     C_R   0.818320 0.564155 0.589117 -0.248370
C26   C     C_R   0.181450 0.444211 0.408830 -0.249816
C27   C     C_R   0.767719 0.504932 0.496549 -0.065020
C28   C     C_R   0.232210 0.504178 0.500797 -0.065579
C29   C     C_R   0.809388 0.448570 0.402774 -0.220057
C30   C     C_R   0.190598 0.568852 0.588564 -0.259340
C31   C     C_R   0.902186 0.448337 0.402650 0.100214
C32   C     C_R   0.097777 0.569173 0.588808 0.113181
C33   C     C_R   0.953283 0.507923 0.495992 0.058043
C34   C     C_R   0.046622 0.507763 0.496838 0.062908
C35   C     C_R   0.911105 0.567135 0.588843 0.110767
C36   C     C_R   0.088756 0.446154 0.405692 0.110034
C37   C     C_R   0.944730 0.388746 0.311584 -0.204617
C38   C     C_R   0.055260 0.629407 0.679450 -0.223543
Cu1   Cu    Cu3+1 0.506660 0.507730 0.615930 0.970020
Cu2   Cu    Cu3+1 0.493340 0.492270 0.384070 0.965705
H1    H     H_    0.785326 0.608658 0.660666 0.141450
H2    H     H_    0.214266 0.395559 0.340059 0.138989
H3    H     H_    0.361879 0.351240 0.980915 0.180131
H4    H     H_    0.659853 0.616001 0.011771 0.180557
H5    H     H_    0.769566 0.402764 0.331684 0.160769
H6    H     H_    0.230303 0.619617 0.655638 0.128148
H7    H     H_    0.906209 0.342656 0.239586 0.148790
H8    H     H_    0.093840 0.676712 0.750549 0.139725
H9    H     H_    0.069334 0.339874 0.242824 0.140313
H10   H     H_    0.930629 0.673812 0.751426 0.143340
H11   H     H_    0.467194 0.812119 0.352988 0.187600
H12   H     H_    0.509082 0.188239 0.650355 0.215447
H13   H     H_    0.519061 0.841287 0.720765 0.171333
H14   H     H_    0.481412 0.158621 0.279667 0.168837
H15   H     H_    0.636936 0.610661 0.805281 0.146662
H16   H     H_    0.375172 0.370230 0.191170 0.139106
N1    N     N_R   0.516670 0.519360 0.790130 -0.214520
N2    N     N_R   0.483330 0.480640 0.209870 -0.211004
O1    O     O_R   0.504720 0.354460 0.582000 -0.550909
O2    O     O_R   0.495280 0.645540 0.418000 -0.594208
O3    O     O_R   0.493480 0.341410 0.386200 -0.597617
O4    O     O_R   0.506520 0.658590 0.613800 -0.597231
O5    O     O_R   0.375880 0.506510 0.597910 -0.557103
O6    O     O_R   0.624120 0.493490 0.402090 -0.527827
O7    O     O_R   0.364640 0.493450 0.402110 -0.596581
O8    O     O_R   0.635360 0.506550 0.597890 -0.598425
O9    O     O_3   0.475844 0.953443 0.237281 -0.592404
C39   C     C_3   0.389916 0.954131 0.183849 0.048178
H17   H     H_    0.376533 0.032547 0.162001 0.140835
H18   H     H_    0.337488 0.931878 0.240503 0.138626
C40   C     C_3   0.384540 0.874857 0.072364 -0.809231
H19   H     H_    0.395231 0.795204 0.091854 0.239404
H20   H     H_    0.317863 0.875875 0.027853 0.194885
H21   H     H_    0.436408 0.894235 0.014063 0.255010
O10   O     O_3   0.521102 0.044882 0.764695 -0.580459
C41   C     C_3   0.439208 0.055848 0.819165 0.040917
H22   H     H_    0.410812 0.978448 0.831378 0.136217
H23   H     H_    0.390112 0.094350 0.767690 0.147487
C42   C     C_3   0.454648 0.123989 0.937458 -0.756145
H24   H     H_    0.483745 0.201527 0.927980 0.262431
H25   H     H_    0.390357 0.135213 0.980255 0.182043
H26   H     H_    0.501128 0.086172 0.992517 0.258696
O11   O     O_3   0.385635 0.409212 0.783776 -0.566592
C43   C     C_3   0.303632 0.457207 0.809766 0.053835
H27   H     H_    0.301163 0.532810 0.778571 0.153363
H28   H     H_    0.292170 0.475247 0.903477 0.118085
C44   C     C_3   0.227191 0.384267 0.753014 -0.767685
H29   H     H_    0.225143 0.312327 0.792454 0.227843
H30   H     H_    0.162858 0.423582 0.765824 0.207996
H31   H     H_    0.236360 0.361817 0.659020 0.257796
O12   O     O_3   0.619869 0.581197 0.217610 -0.566859
C45   C     C_3   0.622600 0.691479 0.226891 0.055672
H32   H     H_    0.593195 0.726655 0.307486 0.189829
H33   H     H_    0.586525 0.721128 0.154802 0.133979
C46   C     C_3   0.719439 0.731666 0.236717 -0.792727
H34   H     H_    0.755055 0.698514 0.159039 0.235374
H35   H     H_    0.722152 0.818257 0.245811 0.216981
H36   H     H_    0.753916 0.709158 0.314053 0.254865

loop_
_geom_bond_atom_site_label_1
_geom_bond_atom_site_label_2
_ccdc_geom_bond_type
C44   H29   S    
C16   C21   A    
Cu2   O2    S    
C27   C29   A    
C46   H34   S    
C43   C44   S    
C6    C9    A    
C3    H9    S    
C46   H36   S    
C8    C13   A    
C41   H23   S    
C19   C21   A    
C43   H28   S    
C1    O1    A    
C2    O2    A    
Cu1   N1    S    
C7    C9    A    
C10   H13   S    
C11   H12   S    
C15   C22   A    
C39   H17   S    
C41   C42   S    
C32   C38   A    
C37   H7    S    
C16   H4    S    
C38   H8    S    
C24   O8    A    
C17   N2    A    
C23   O5    A    
C4    C35   A    
C24   O6    A    
C13   C14   A    
C7    C14   A    
C19   N2    A    
Cu2   N2    S    
C31   C33   A    
O9    C39   S    
C43   H27   S    
C5    C12   A    
C25   H1    S    
O12   C45   S    
C40   H20   S    
C8    O10   S    
Cu2   O3    S    
C1    C6    S    
C4    H10   S    
C32   C34   A    
O10   C41   S    
C42   H26   S    
C18   N1    A    
O11   C43   S    
C24   C27   S    
Cu1   O1    S    
C45   H33   S    
C33   C34   A    
C23   C28   S    
C41   H22   S    
C17   H16   S    
C18   H15   S    
C25   C35   A    
C26   C36   A    
C20   C22   A    
Cu2   O7    S    
C6    C11   A    
Cu1   O8    S    
C20   O11   S    
C2    C5    S    
Cu1   Cu2   S    
C12   H11   S    
C26   H2    S    
C42   H25   S    
C15   C17   A    
Cu1   O4    S    
C30   H6    S    
C8    C10   A    
C12   C14   A    
C1    O3    A    
C40   H21   S    
C46   H35   S    
C25   C27   A    
Cu1   O5    S    
C26   C28   A    
Cu2   O6    S    
C23   O7    A    
C44   H30   S    
C15   H3    S    
C40   H19   S    
C29   C31   A    
C30   C32   A    
C11   C13   A    
C3    C36   A    
C39   C40   S    
C28   C30   A    
C45   H32   S    
C33   C35   A    
C34   C36   A    
C45   C46   S    
C19   O12   S    
C7    O9    S    
C42   H24   S    
C31   C37   A    
C5    C10   A    
C3    C37   A    
C16   C18   A    
C44   H31   S    
C29   H5    S    
C39   H18   S    
C4    C38   A    
C9    H14   S    
C20   N1    A    
C21   C22   A    
C2    O4    A    
