data_mof_unit_23398.cif
_audit_creation_date              2012-12-11T14:50:31-0500
_audit_creation_method            fapswitch 2.2
_symmetry_space_group_name_H-M    P1
_symmetry_Int_Tables_number       1
_space_group_crystal_system       triclinic
_cell_length_a                    10.863281
_cell_length_b                    10.941068
_cell_length_c                    18.884518
_cell_angle_alpha                 90.330902
_cell_angle_beta                  89.97134
_cell_angle_gamma                 60.219113
_cell_volume                      1948.05590309

loop_
_atom_site_label
_atom_site_type_symbol
_atom_type_description
_atom_site_fract_x
_atom_site_fract_y
_atom_site_fract_z
_atom_type_partial_charge
C1    C     C_R   0.235232 0.646439 0.609083 0.541669
C2    C     C_R   0.567564 0.167169 0.786649 -0.122693
C3    C     C_R   0.560109 0.171511 0.714642 -0.138828
C4    C     C_R   0.653282 0.619783 0.602148 0.538583
C5    C     C_R   0.665830 0.175659 0.674952 -0.011963
C6    C     C_R   0.210281 0.544069 0.721113 -0.111498
C7    C     C_R   0.195468 0.551745 0.794890 0.019914
C8    C     C_R   0.156850 0.681277 0.829440 0.008191
C9    C     C_R   0.128782 0.799134 0.788884 -0.097306
C10   C     C_R   0.140637 0.791110 0.716253 -0.127342
C11   C     C_R   0.185177 0.662886 0.681902 -0.029354
C12   C     C_3   0.790439 0.514729 0.791558 -0.231070
C13   C     C_R   0.792566 0.616851 0.291314 -0.006624
C14   C     C_R   0.802023 0.624227 0.218457 -0.153351
C15   C     C_R   0.679817 0.686635 0.175897 0.010814
C16   C     C_R   0.628921 0.227606 0.602787 0.537172
C17   C     C_R   0.545877 0.748739 0.207085 -0.162667
C18   C     C_R   0.534846 0.739434 0.280081 -0.162951
C19   C     C_R   0.657769 0.668830 0.322238 0.035895
C20   C     C_R   0.592785 0.084638 0.301165 -0.096768
C21   C     C_R   0.604987 0.049548 0.229856 -0.084028
C22   C     C_R   0.684004 0.086119 0.185339 0.038564
C23   C     C_3   0.696043 0.671733 0.813748 -0.010270
C24   C     C_R   0.755453 0.153143 0.212871 -0.144548
C25   C     C_R   0.745296 0.186035 0.283863 -0.151707
C26   C     C_R   0.660100 0.156345 0.327811 0.024772
C27   C     C_R   0.084371 0.791857 0.303264 -0.134352
C28   C     C_R   0.223432 0.647472 0.401134 0.571068
C29   C     C_R   0.062485 0.804764 0.231737 -0.142169
C30   C     C_R   0.124760 0.685509 0.187103 -0.009530
C31   C     C_R   0.205509 0.549666 0.214858 -0.034017
C32   C     C_R   0.228240 0.538029 0.287513 -0.112655
C33   C     C_R   0.170085 0.659278 0.330908 0.032231
C34   C     C_3   0.670473 0.641712 0.678223 -0.024651
C35   C     C_R   0.701732 0.102850 0.895857 0.535355
C36   C     C_R   0.722167 0.687229 0.888907 0.527440
C37   C     C_R   0.113545 0.708715 0.903950 0.523763
C38   C     C_R   0.700248 0.045676 0.111387 0.552460
C39   C     C_R   0.700644 0.694008 0.100251 0.542145
C40   C     C_R   0.642876 0.624853 0.393010 0.586662
C41   C     C_R   0.089751 0.711478 0.113472 0.514728
C42   C     C_R   0.619507 0.225405 0.396090 0.540830
C43   C     C_3   0.535735 0.720157 0.797452 0.012565
C44   C     C_3   0.527703 0.684792 0.717802 -0.182564
C45   C     C_3   0.708592 0.758658 0.690084 -0.274814
C46   C     C_3   0.746415 0.759059 0.768716 -0.259608
C47   C     C_2   0.439192 0.878461 0.808597 0.203837
C48   C     C_2   0.935035 0.448095 0.681129 0.307675
C49   C     C_2   0.912573 0.169118 0.818566 0.201306
C50   C     C_2   0.224699 0.423171 0.834103 0.239629
C51   C     C_2   0.482591 0.646314 0.846875 0.228769
C52   C     C_2   0.925859 0.551286 0.332502 0.237438
C53   C     C_2   0.271988 0.421751 0.169250 0.230880
C54   C     C_3   0.787611 0.499387 0.711491 -0.088034
C55   C     C_R   0.785393 0.165618 0.709081 -0.124332
C56   C     C_R   0.795674 0.158894 0.783535 -0.023089
C57   C     C_R   0.686863 0.153847 0.822662 0.006359
Cr1   Cr    Cr6+3 0.392930 0.397900 0.502230 1.059626
Cr2   Cr    Cr6+3 0.398240 0.708600 0.501260 1.036084
Cr3   Cr    Cr6+3 0.708800 0.393470 0.496460 1.072923
Cr4   Cr    Cr6+3 0.937620 0.938540 0.007640 1.023104
Cr5   Cr    Cr6+3 0.625150 0.937450 0.994520 1.029985
Cr6   Cr    Cr6+3 0.937990 0.625080 0.001190 1.023282
H1    H     H_    0.863391 0.712160 0.773690 0.129862
H2    H     H_    0.450976 0.800446 0.175084 0.137483
H3    H     H_    0.430046 0.779847 0.302853 0.150558
H4    H     H_    0.525968 0.061601 0.334670 0.141429
H5    H     H_    0.550396 0.997230 0.209061 0.146934
H6    H     H_    0.818303 0.181787 0.179614 0.145584
H7    H     H_    0.796749 0.242859 0.303153 0.143039
H8    H     H_    0.040047 0.885471 0.336428 0.137616
H9    H     H_    0.503189 0.597972 0.711523 0.160439
H10   H     H_    0.997518 0.909439 0.211047 0.147800
H11   H     H_    0.297701 0.435066 0.309693 0.183000
H12   H     H_    0.798930 0.742321 0.655874 0.121053
H13   H     H_    0.438521 0.776689 0.691262 0.178425
H14   H     H_    0.700582 0.869113 0.787884 0.127318
H15   H     H_    0.616668 0.862739 0.676017 0.143239
H16   H     H_    0.902323 0.471360 0.809086 0.196150
H17   H     H_    0.752118 0.449650 0.818002 0.159735
H18   H     H_    0.757534 0.417886 0.700923 0.162511
H19   H     H_    0.480277 0.946101 0.824776 0.145879
H20   H     H_    0.982914 0.514210 0.683883 0.102091
H21   H     H_    0.910265 0.188501 0.874948 0.142567
H22   H     H_    0.260491 0.408954 0.888583 0.136395
H23   H     H_    0.865692 0.172107 0.677961 0.194585
H24   H     H_    0.440578 0.691745 0.898651 0.131790
H25   H     H_    0.022759 0.469933 0.308193 0.116751
H26   H     H_    0.282187 0.429883 0.112602 0.134723
H27   H     H_    0.480394 0.166391 0.813749 0.183093
H28   H     H_    0.465838 0.179454 0.690618 0.172341
H29   H     H_    0.247849 0.443495 0.694654 0.177598
H30   H     H_    0.094302 0.899924 0.813471 0.212902
H31   H     H_    0.120771 0.884401 0.687334 0.182798
H32   H     H_    0.906397 0.582700 0.194874 0.142057
O1    O     O_R   0.507430 0.255570 0.581420 -0.519497
O2    O     O_R   0.837200 0.593290 0.915250 -0.512225
O3    O     O_R   0.065330 0.635370 0.931590 -0.516130
O4    O     O_R   0.280190 0.527390 0.578910 -0.497929
O5    O     O_R   0.068300 0.828790 0.091860 -0.522713
O6    O     O_R   0.798730 0.057480 0.079370 -0.512470
O7    O     O_R   0.584680 0.080480 0.076790 -0.484196
O8    O     O_R   0.626790 0.809640 0.067050 -0.517198
O9    O     O_R   0.816010 0.596460 0.076500 -0.513231
O10   O     O_R   0.045680 0.638310 0.081070 -0.522655
O11   O     O_3   0.833590 0.833690 0.001120 -0.271450
O12   O     O_R   0.524460 0.695920 0.424060 -0.516713
O13   O     O_R   0.260310 0.739740 0.584580 -0.518093
O14   O     O_R   0.532250 0.695150 0.573830 -0.510163
O15   O     O_R   0.744930 0.503430 0.576380 -0.480688
O16   O     O_R   0.699250 0.276390 0.571950 -0.503484
O17   O     O_R   0.499020 0.256400 0.419850 -0.521765
O18   O     O_R   0.272400 0.528160 0.429140 -0.491050
O19   O     O_R   0.251910 0.740570 0.423020 -0.526184
O20   O     O_2   0.311778 0.933476 0.798674 -0.475372
O21   O     O_2   0.001549 0.331455 0.653939 -0.445724
O22   O     O_2   0.011391 0.161458 0.784153 -0.435157
O23   O     O_R   0.736530 0.504260 0.414810 -0.477409
O24   O     O_2   0.208899 0.331284 0.805762 -0.497424
O25   O     O_2   0.490915 0.533930 0.831249 -0.561849
O26   O     O_2   0.929734 0.590029 0.392825 -0.491041
O27   O     O_2   0.315985 0.305016 0.194586 -0.522095
O28   O     O_R   0.691460 0.277160 0.422180 -0.512291
O29   O     O_3   0.499990 0.499990 0.499980 -0.270917
O30   O     O_R   0.089490 0.825610 0.930610 -0.513753
O31   O     O_R   0.818370 0.054540 0.929880 -0.515118
O32   O     O_R   0.605870 0.077310 0.915530 -0.527391
O33   O     O_R   0.646440 0.806700 0.917570 -0.527306

loop_
_geom_bond_atom_site_label_1
_geom_bond_atom_site_label_2
_ccdc_geom_bond_type
C40   O23   A    
C4    O14   A    
C27   C29   A    
C20   H4    S    
C1    C11   S    
C55   C56   A    
C1    O4    A    
C2    C57   A    
C7    C8    A    
C45   C46   S    
C27   C33   A    
C48   C54   S    
C12   C23   S    
C41   O10   A    
Cr1   O17   S    
C49   H21   S    
Cr6   O3    S    
C53   O27   D    
C32   H11   S    
C30   C31   A    
C29   H10   S    
C10   H31   S    
C22   C38   S    
C12   H16   S    
C23   C43   S    
C56   C57   A    
C3    H28   S    
C18   C19   A    
C47   H19   S    
C44   H13   S    
Cr1   O1    S    
C5    C16   S    
C42   O17   A    
C47   O20   D    
C50   H22   S    
C49   O22   D    
C8    C9    A    
C42   O28   A    
Cr1   O18   S    
C30   C41   S    
Cr3   O23   S    
C45   H15   S    
Cr6   O10   S    
C39   O9    A    
C9    C10   A    
C48   O21   D    
C23   C46   S    
C21   C22   A    
C36   O33   A    
C37   O3    A    
C24   H6    S    
C51   O25   D    
C37   O30   A    
C4    C34   S    
C16   O1    A    
C13   C19   A    
C50   O24   D    
C52   H25   S    
C34   C44   S    
C24   C25   A    
C19   C40   S    
C51   H24   S    
C6    C11   A    
C25   C26   A    
Cr2   O12   S    
C35   O31   A    
C46   H1    S    
Cr3   O28   S    
Cr4   O6    S    
C43   C44   S    
C29   C30   A    
C13   C52   S    
C52   O26   D    
C31   C32   A    
C17   C18   A    
C41   O5    A    
C38   O6    A    
C34   C45   S    
C31   C53   S    
Cr6   O11   S    
C35   O32   A    
Cr4   O11   S    
C15   C39   S    
C36   O2    A    
C28   O19   A    
C40   O12   A    
C28   C33   S    
C34   C54   S    
C21   H5    S    
C53   H26   S    
C22   C24   A    
Cr4   O5    S    
Cr3   O29   S    
C8    C37   S    
C9    H30   S    
C14   H32   S    
C27   H8    S    
C26   C42   S    
Cr5   O8    S    
Cr2   O29   S    
C15   C17   A    
C4    O15   A    
Cr1   O29   S    
C5    C55   A    
Cr1   O4    S    
Cr6   O2    S    
C7    C50   S    
Cr6   O9    S    
C3    C5    A    
C46   H14   S    
C39   O8    A    
C6    C7    A    
Cr5   O11   S    
C18   H3    S    
C49   C56   S    
C17   H2    S    
Cr2   O13   S    
C48   H20   S    
C35   C57   S    
C45   H12   S    
C32   C33   A    
C55   H23   S    
C2    C3    A    
C38   O7    A    
Cr3   O16   S    
Cr5   O33   S    
C43   C51   S    
Cr5   O32   S    
C20   C26   A    
Cr2   O19   S    
C6    H29   S    
C12   H17   S    
Cr2   O14   S    
C44   H9    S    
Cr3   O15   S    
C10   C11   A    
C1    O13   A    
C28   O18   A    
Cr4   O31   S    
C20   C21   A    
C2    H27   S    
C23   C36   S    
C14   C15   A    
Cr4   O30   S    
C25   H7    S    
C13   C14   A    
C43   C47   S    
C54   H18   S    
C12   C54   S    
C16   O16   A    
Cr5   O7    S    
