data_mof_unit_39582.cif
_audit_creation_date              2012-12-11T14:46:21-0500
_audit_creation_method            fapswitch 2.2
_symmetry_space_group_name_H-M    P1
_symmetry_Int_Tables_number       1
_space_group_crystal_system       triclinic
_cell_length_a                    17.240173
_cell_length_b                    17.694161
_cell_length_c                    6.955252
_cell_angle_alpha                 90.189444
_cell_angle_beta                  90.442497
_cell_angle_gamma                 89.901356
_cell_volume                      2121.62445827

loop_
_atom_site_label
_atom_site_type_symbol
_atom_type_description
_atom_site_fract_x
_atom_site_fract_y
_atom_site_fract_z
_atom_type_partial_charge
O1    O     O_R   0.796490 0.328940 0.373020 -0.528688
O2    O     O_R   0.203510 0.671060 0.626980 -0.547394
O3    O     O_R   0.203510 0.828940 0.626980 -0.527903
O4    O     O_R   0.796490 0.171060 0.373020 -0.531680
O5    O     O_R   0.805560 0.173330 0.702970 -0.545025
O6    O     O_R   0.194440 0.826670 0.297030 -0.547026
O7    O     O_R   0.194440 0.673330 0.297030 -0.529698
O8    O     O_R   0.805560 0.326670 0.702970 -0.546955
O9    O     O_R   0.658440 0.172360 0.870170 -0.540622
O10   O     O_R   0.341560 0.827640 0.129830 -0.541269
O11   O     O_R   0.341560 0.672360 0.129830 -0.529264
O12   O     O_R   0.658440 0.327640 0.870170 -0.541696
C1    C     C_R   0.823911 0.146346 0.535081 0.745694
C2    C     C_R   0.175925 0.853602 0.465135 0.751122
C3    C     C_R   0.175463 0.646922 0.464579 0.740776
C4    C     C_R   0.825293 0.352453 0.535129 0.748383
O13   O     O_3   0.679200 0.250000 0.537050 -0.370773
O14   O     O_3   0.320800 0.750000 0.462950 -0.372532
V1    V     V_3+5 0.736420 0.250000 0.813120 1.392888
V2    V     V_3+5 0.263580 0.750000 0.186880 1.414136
O15   O     O_R   0.649370 0.327980 0.199650 -0.529908
O16   O     O_R   0.350630 0.672020 0.800350 -0.544996
O17   O     O_R   0.350630 0.827980 0.800350 -0.530076
O18   O     O_R   0.649370 0.172020 0.199650 -0.530872
C5    C     C_R   0.630603 0.354353 0.030266 0.725979
C6    C     C_R   0.369372 0.645627 0.969691 0.722050
C7    C     C_R   0.369405 0.854351 0.970100 0.725633
C8    C     C_R   0.630659 0.145594 0.029911 0.725240
H1    H     H_    0.977470 0.152442 0.571889 0.153626
H2    H     H_    0.021822 0.845352 0.451620 0.156500
H3    H     H_    0.021972 0.654724 0.495705 0.162667
H4    H     H_    0.979932 0.343441 0.521045 0.148000
V3    V     V_3+5 0.718510 0.250000 0.312740 1.450401
V4    V     V_3+5 0.281490 0.750000 0.687260 1.419213
O19   O     O_3   0.775740 0.250000 0.038930 -0.367871
O20   O     O_3   0.224260 0.750000 0.961070 -0.366146
C9    C     C_1   0.574277 0.083115 0.017639 -0.195928
C10   C     C_1   0.425870 0.916760 0.982389 -0.198776
C11   C     C_1   0.425798 0.583177 0.981341 -0.199889
C12   C     C_1   0.574164 0.416792 0.018406 -0.197616
C13   C     C_1   0.527595 0.030804 0.006644 0.009114
C14   C     C_1   0.472595 0.969034 0.993401 0.008112
C15   C     C_1   0.472501 0.530866 0.992694 0.006674
C16   C     C_1   0.527465 0.469102 0.006841 0.006713
C17   C     C_R   0.878264 0.081755 0.526887 -0.207947
C18   C     C_R   0.120908 0.917845 0.472572 -0.215885
C19   C     C_R   0.121378 0.582314 0.473295 -0.216273
C20   C     C_R   0.880558 0.416267 0.529173 -0.200565
C21   C     C_R   0.093036 0.053147 0.495086 0.402958
C22   C     C_R   0.905584 0.949020 0.455581 0.389252
C23   C     C_R   0.907505 0.551719 0.515778 0.374902
C24   C     C_R   0.095913 0.446872 0.500663 0.402984
C25   C     C_R   0.147269 0.993444 0.487507 0.378445
C26   C     C_R   0.851599 0.007735 0.486294 0.370058
C27   C     C_R   0.853695 0.491688 0.522025 0.367498
C28   C     C_R   0.148569 0.506684 0.471063 0.375906
C29   C     C_R   0.041013 0.903446 0.464570 -0.286991
C30   C     C_R   0.958055 0.095420 0.540769 -0.300310
C31   C     C_R   0.960621 0.401742 0.522939 -0.283335
C32   C     C_R   0.041815 0.596548 0.494246 -0.263026
C33   C     C_R   0.986283 0.962739 0.476411 -0.068361
C34   C     C_R   0.012550 0.037473 0.505826 -0.066799
C35   C     C_R   0.015024 0.461306 0.512645 -0.066717
C36   C     C_R   0.988013 0.536891 0.508407 -0.048430
O21   O     O_3   0.120684 0.126773 0.490345 -0.565511
C37   C     C_3   0.100408 0.161426 0.312807 0.058117
H5    H     H_    0.106768 0.223498 0.331104 0.165216
H6    H     H_    0.038889 0.152111 0.270179 0.119332
C38   C     C_3   0.153441 0.136004 0.148825 -0.316788
H7    H     H_    0.212173 0.160492 0.170690 0.203926
H8    H     H_    0.158447 0.073695 0.145814 0.192322
C39   C     C_3   0.120498 0.160163 0.954528 -0.811234
H9    H     H_    0.070469 0.123760 0.914166 0.240881
H10   H     H_    0.166020 0.154411 0.843544 0.276337
H11   H     H_    0.100244 0.219595 0.960152 0.216624
O22   O     O_3   0.877657 0.877344 0.413832 -0.561515
C40   C     C_3   0.892521 0.858991 0.219122 0.075729
H12   H     H_    0.900201 0.796724 0.209409 0.144282
H13   H     H_    0.946979 0.884310 0.162605 0.113015
C41   C     C_3   0.824219 0.881651 0.090135 -0.320689
H14   H     H_    0.772758 0.846945 0.126352 0.208664
H15   H     H_    0.809318 0.942069 0.112825 0.220496
C42   C     C_3   0.845010 0.870609 0.879465 -0.809390
H16   H     H_    0.886933 0.914796 0.836350 0.233058
H17   H     H_    0.792060 0.874746 0.788772 0.257390
H18   H     H_    0.872004 0.814501 0.855615 0.234228
O23   O     O_3   0.880677 0.625393 0.504022 -0.565573
C43   C     C_3   0.852840 0.649275 0.685569 0.118058
H19   H     H_    0.896783 0.687111 0.752539 0.104996
H20   H     H_    0.842811 0.602403 0.789669 0.107735
C44   C     C_3   0.777036 0.693118 0.656840 -0.266200
H21   H     H_    0.789993 0.749324 0.594072 0.215230
H22   H     H_    0.738782 0.662371 0.553909 0.229854
C45   C     C_3   0.733693 0.703195 0.846011 -0.852095
H23   H     H_    0.710609 0.648092 0.895378 0.235543
H24   H     H_    0.684394 0.742853 0.825054 0.235512
H25   H     H_    0.772809 0.725893 0.959418 0.243625
O24   O     O_3   0.124881 0.373762 0.502698 -0.564910
C46   C     C_3   0.128755 0.346262 0.694000 0.047195
H26   H     H_    0.139725 0.284623 0.683845 0.175183
H27   H     H_    0.073056 0.353554 0.771856 0.106437
C47   C     C_3   0.195211 0.382326 0.810562 -0.331837
H28   H     H_    0.250008 0.377553 0.728626 0.222450
H29   H     H_    0.181722 0.442802 0.836756 0.182109
C48   C     C_3   0.206585 0.344624 0.005650 -0.765410
H30   H     H_    0.151525 0.344900 0.087586 0.250603
H31   H     H_    0.251046 0.376032 0.090030 0.262027
H32   H     H_    0.227242 0.285707 0.986231 0.229761
O25   O     O_3   0.773489 0.991980 0.456880 -0.554128
C49   C     C_3   0.729594 0.007089 0.623662 -0.215699
H33   H     H_    0.694938 0.059280 0.601770 0.155663
H34   H     H_    0.764612 0.012451 0.758560 0.113041
H35   H     H_    0.688019 0.960087 0.644357 0.156205
O26   O     O_3   0.225166 0.010992 0.513384 -0.543739
C50   C     C_3   0.269995 0.989761 0.352472 -0.200210
H36   H     H_    0.235890 0.971704 0.223563 0.095388
H37   H     H_    0.309933 0.943339 0.394619 0.156673
H38   H     H_    0.306074 0.038655 0.309597 0.155960
O27   O     O_3   0.223567 0.487869 0.415477 -0.547675
C51   C     C_3   0.280463 0.517414 0.542220 -0.211720
H39   H     H_    0.258313 0.532609 0.687268 0.104162
H40   H     H_    0.308507 0.567208 0.475787 0.158874
H41   H     H_    0.326462 0.474215 0.562507 0.148684
O28   O     O_3   0.775583 0.508600 0.497516 -0.549710
C52   C     C_3   0.732723 0.489991 0.663153 -0.231455
H42   H     H_    0.768364 0.483672 0.796748 0.106447
H43   H     H_    0.699281 0.437593 0.635524 0.165276
H44   H     H_    0.689757 0.535446 0.689574 0.155498

loop_
_geom_bond_atom_site_label_1
_geom_bond_atom_site_label_2
_ccdc_geom_bond_type
O10   C7    A    
C30   C34   A    
C20   C27   A    
C37   H6    S    
O23   C43   S    
C13   C14   S    
C3    C19   S    
C4    C20   S    
O26   C50   S    
O1    V3    S    
C2    C18   S    
C40   H12   S    
C51   H39   S    
C48   H31   S    
C22   C26   A    
C21   O21   S    
C10   C14   T    
C41   C42   S    
C5    C12   S    
C6    C11   S    
C37   C38   S    
O15   V3    S    
C7    C10   S    
C50   H36   S    
H2    C29   S    
C18   C25   A    
C47   C48   S    
O4    C1    A    
C38   H8    S    
C49   H33   S    
O13   V1    S    
C19   C32   A    
O4    V3    S    
O9    V1    S    
C42   H16   S    
O10   V2    S    
C50   H37   S    
C52   H44   S    
O17   C7    A    
O5    C1    A    
C33   C34   A    
C51   H41   S    
C45   H25   S    
O2    V4    S    
O7    C3    A    
C37   H5    S    
O8    C4    A    
C38   H7    S    
O13   V3    S    
C39   H11   S    
C51   H40   S    
C40   H13   S    
O16   V4    S    
C48   H32   S    
C17   C30   A    
O8    V1    S    
C47   H28   S    
O22   C40   S    
C39   H10   S    
C23   O23   S    
C44   H21   S    
C41   H14   S    
C11   C15   T    
O3    V4    S    
O11   V2    S    
O7    V2    S    
C26   O25   S    
H3    C32   S    
C38   C39   S    
C47   H29   S    
C15   C16   S    
C22   O22   S    
O6    C2    A    
C46   H26   S    
C43   C44   S    
C50   H38   S    
C42   H18   S    
O1    C4    A    
C43   H19   S    
C45   H24   S    
O2    C3    A    
O14   V4    S    
C49   H35   S    
O3    C2    A    
C41   H15   S    
C46   H27   S    
C43   H20   S    
C17   C26   A    
O21   C37   S    
C18   C29   A    
C52   H42   S    
C28   O27   S    
C25   O26   S    
C20   C31   A    
C40   C41   S    
O15   C5    A    
C27   O28   S    
O17   V4    S    
C21   C34   A    
C42   H17   S    
C44   H22   S    
C23   C36   A    
O18   C8    A    
C39   H9    S    
C24   C35   A    
O14   V2    S    
O27   C51   S    
C29   C33   A    
O5    V1    S    
O6    V2    S    
C48   H30   S    
C31   C35   A    
O18   V3    S    
O11   C6    A    
O12   C5    A    
C32   C36   A    
V1    O19   S    
O25   C49   S    
C44   C45   S    
C1    C17   S    
C8    C9    S    
C21   C25   A    
O12   V1    S    
C24   O24   S    
V3    O19   S    
V4    O20   S    
C23   C27   A    
C9    C13   T    
C45   H23   S    
C49   H34   S    
C35   C36   A    
V2    O20   S    
C12   C16   T    
C46   C47   S    
H1    C30   S    
O24   C46   S    
O16   C6    A    
C52   H43   S    
C22   C33   A    
O28   C52   S    
H4    C31   S    
C24   C28   A    
O9    C8    A    
C19   C28   A    
