data_mof_unit_38343.cif
_audit_creation_date              2012-12-10T17:58:57-0500
_audit_creation_method            fapswitch 2.2
_symmetry_space_group_name_H-M    P1
_symmetry_Int_Tables_number       1
_space_group_crystal_system       triclinic
_cell_length_a                    9.639235
_cell_length_b                    10.807875
_cell_length_c                    13.864055
_cell_angle_alpha                 91.810805
_cell_angle_beta                  84.902537
_cell_angle_gamma                 89.711249
_cell_volume                      1437.87684294

loop_
_atom_site_label
_atom_site_type_symbol
_atom_type_description
_atom_site_fract_x
_atom_site_fract_y
_atom_site_fract_z
_atom_type_partial_charge
C1    C     C_R   0.499757 0.737082 0.498528 0.839483
C2    C     C_R   0.499489 0.262700 0.503445 0.833469
C3    C     C_R   0.498721 0.128376 0.506419 -0.116353
C4    C     C_R   0.498132 0.870692 0.496713 -0.120145
C5    C     C_R   0.477412 0.501583 0.682765 0.854392
C6    C     C_R   0.522582 0.498306 0.317235 0.849300
C7    C     C_R   0.919265 0.581759 0.559257 0.258305
C8    C     C_R   0.080668 0.419966 0.440183 0.244656
C9    C     C_R   0.067936 0.578712 0.560748 0.285240
C10   C     C_R   0.934408 0.429798 0.433576 0.286199
C11   C     C_1   0.536055 0.496572 0.213941 -0.154095
C12   C     C_1   0.463907 0.503169 0.786053 -0.159571
C13   C     C_2   0.557177 0.494104 0.023187 -0.149766
C14   C     C_2   0.442638 0.505531 0.976797 -0.151104
C15   C     C_1   0.453153 0.504368 0.873019 0.002809
C16   C     C_1   0.546715 0.495305 0.126970 0.006460
C17   C     C_R   0.588175 0.935063 0.430698 -0.007799
C18   C     C_R   0.407060 0.063890 0.572041 -0.013247
C19   C     C_R   0.585384 0.063454 0.436189 -0.254668
C20   C     C_R   0.407108 0.934788 0.565275 -0.249105
Cu1   Cu    Cu3+1 0.359340 0.499980 0.500000 0.981399
Cu2   Cu    Cu3+1 0.640660 0.500020 0.500000 0.984209
H1    H     H_    0.340587 0.515796 0.016442 0.156757
H2    H     H_    0.659222 0.483854 0.983529 0.157561
H3    H     H_    0.645395 0.112935 0.381460 0.151763
H4    H     H_    0.339964 0.883394 0.616346 0.165850
N1    N     N_R   0.147930 0.499970 0.499980 -0.227872
N2    N     N_R   0.852070 0.500030 0.500020 -0.225477
O1    O     O_R   0.381260 0.680340 0.500000 -0.565063
O2    O     O_R   0.618740 0.319660 0.500000 -0.566798
O3    O     O_R   0.618830 0.680370 0.500010 -0.564192
O4    O     O_R   0.381170 0.319630 0.499990 -0.568564
O5    O     O_R   0.364420 0.499960 0.637840 -0.530674
O6    O     O_R   0.635580 0.500040 0.362160 -0.526917
O7    O     O_R   0.601990 0.499990 0.637850 -0.600982
O8    O     O_R   0.398010 0.500010 0.362150 -0.601707
N3    N     N_2   0.843988 0.677461 0.614843 -0.427361
H5    H     H_    0.750844 0.659620 0.652894 0.285115
C21   C     C_3   0.865932 0.804266 0.586056 -0.638890
H6    H     H_    0.765140 0.848903 0.575007 0.233539
H7    H     H_    0.935370 0.809505 0.517833 0.230180
H8    H     H_    0.912455 0.857406 0.644750 0.233698
N4    N     N_2   0.153955 0.323379 0.384295 -0.423102
H9    H     H_    0.249768 0.339811 0.349536 0.285856
C22   C     C_3   0.132795 0.197983 0.417036 -0.615317
H10   H     H_    0.231868 0.157517 0.436116 0.229817
H11   H     H_    0.097586 0.138661 0.357464 0.226891
H12   H     H_    0.055204 0.194300 0.481223 0.228826
N5    N     N_2   0.135278 0.656592 0.626432 -0.368067
H13   H     H_    0.131935 0.749349 0.612067 0.252721
C23   C     C_3   0.106614 0.630670 0.728078 -0.632694
H14   H     H_    0.000659 0.663175 0.755568 0.225259
H15   H     H_    0.183259 0.679911 0.770277 0.218162
H16   H     H_    0.116105 0.529819 0.739779 0.232611
N6    N     N_2   0.881797 0.394865 0.344298 -0.380075
H17   H     H_    0.933317 0.434425 0.284656 0.235429
C24   C     C_3   0.847305 0.266972 0.327701 -0.571108
H18   H     H_    0.925067 0.222909 0.273226 0.215485
H19   H     H_    0.843223 0.215226 0.395779 0.233342
H20   H     H_    0.745070 0.263502 0.296937 0.206951
C25   C     C_2   0.681322 0.872604 0.352656 0.840014
O9    O     O_2   0.793757 0.918364 0.326572 -0.616027
O10   O     O_R   0.639249 0.764172 0.306583 -0.766367
H21   H     H_    0.711585 0.731559 0.254261 0.332500
C26   C     C_2   0.313265 0.127011 0.649325 0.838355
O11   O     O_2   0.201588 0.080515 0.676289 -0.613328
O12   O     O_R   0.353714 0.237239 0.693622 -0.766583
H22   H     H_    0.280960 0.270364 0.745462 0.330417

loop_
_geom_bond_atom_site_label_1
_geom_bond_atom_site_label_2
_ccdc_geom_bond_type
C14   H1    S    
N4    H9    S    
C8    N4    S    
N5    C23   S    
C3    C19   A    
N3    H5    S    
Cu2   O7    S    
Cu2   O2    S    
C11   C16   T    
C26   O12   S    
C12   C15   T    
C1    O3    A    
C2    O2    A    
C1    C4    S    
C6    O6    A    
C23   H16   S    
N6    H17   S    
C22   H11   S    
C2    C3    S    
C7    N3    S    
C21   H7    S    
Cu1   O8    S    
Cu2   N2    S    
Cu1   Cu2   S    
C18   C26   S    
C10   N6    S    
N4    C22   S    
C6    C11   S    
C24   H18   S    
C20   H4    S    
C5    C12   S    
Cu2   O6    S    
C4    C17   A    
C5    O7    A    
C13   H2    S    
C1    O1    A    
C17   C19   A    
C6    O8    A    
C26   O11   D    
C21   H8    S    
C18   C20   A    
N6    C24   S    
Cu1   N1    S    
C25   O9    D    
C19   H3    S    
Cu1   O4    S    
C24   H19   S    
Cu1   O5    S    
Cu2   O3    S    
C23   H14   S    
C4    C20   A    
C22   H10   S    
N3    C21   S    
C9    N5    S    
C9    N1    A    
C3    C18   A    
C2    O4    A    
N5    H13   S    
C13   C16   S    
C10   N2    A    
C21   H6    S    
C7    C9    A    
C8    N1    A    
C14   C15   S    
C24   H20   S    
C22   H12   S    
C17   C25   S    
C13   C14   D    
Cu1   O1    S    
C8    C10   A    
C7    N2    A    
O12   H22   S    
C25   O10   S    
O10   H21   S    
C23   H15   S    
C5    O5    A    
