data_mof_unit_61206.cif
_audit_creation_date              2012-12-10T20:45:36-0500
_audit_creation_method            fapswitch 2.2
_symmetry_space_group_name_H-M    P1
_symmetry_Int_Tables_number       1
_space_group_crystal_system       triclinic
_cell_length_a                    28.196687
_cell_length_b                    25.786991
_cell_length_c                    15.083052
_cell_angle_alpha                 89.698479
_cell_angle_beta                  98.36479
_cell_angle_gamma                 89.995928
_cell_volume                      10850.1814579

loop_
_atom_site_label
_atom_site_type_symbol
_atom_type_description
_atom_site_fract_x
_atom_site_fract_y
_atom_site_fract_z
_atom_type_partial_charge
C1    C     C_R   0.407889 0.098516 0.490951 0.817283
C2    C     C_R   0.022185 0.485355 0.117614 -0.288752
C3    C     C_3   0.877980 0.626118 0.210930 -0.741268
C4    C     C_3   0.585885 0.890114 0.039074 0.074927
C5    C     C_3   0.627769 0.863291 0.096149 -0.709429
C6    C     C_3   0.086925 0.391038 0.039528 0.074891
C7    C     C_3   0.129067 0.364723 0.096720 -0.709380
C8    C     C_3   0.366998 0.023182 0.944607 0.104103
C9    C     C_3   0.325501 0.049985 0.886418 -0.757625
C10   C     C_3   0.866765 0.521325 0.944544 0.103976
C11   C     C_3   0.824941 0.547489 0.886207 -0.757471
C12   C     C_R   0.445789 0.030331 0.108853 0.359854
C13   C     C_R   0.945498 0.529738 0.108689 0.360022
C14   C     C_R   0.443060 0.033586 0.015319 0.385487
C15   C     C_R   0.942705 0.532840 0.015130 0.384711
C16   C     C_R   0.630085 0.862165 0.519894 -0.303052
C17   C     C_R   0.626738 0.140684 0.510736 -0.311669
C18   C     C_R   0.130083 0.362168 0.519883 -0.303022
C19   C     C_R   0.126757 0.640668 0.510795 -0.311590
C20   C     C_R   0.678094 0.879057 0.524815 0.343453
C21   C     C_R   0.408257 0.900918 0.491136 0.840577
C22   C     C_R   0.637882 0.159973 0.428413 0.342309
C23   C     C_R   0.178096 0.379065 0.524930 0.343297
C24   C     C_R   0.137867 0.660020 0.428494 0.342229
C25   C     C_R   0.715465 0.842739 0.531894 0.375383
C26   C     C_R   0.671506 0.199909 0.427553 0.376631
C27   C     C_R   0.215469 0.342748 0.532017 0.375380
C28   C     C_R   0.171472 0.699978 0.427675 0.376756
C29   C     C_R   0.704985 0.789037 0.533342 0.022491
C30   C     C_R   0.695482 0.219666 0.509513 0.023899
C31   C     C_R   0.204983 0.289043 0.533306 0.022485
C32   C     C_R   0.907886 0.598506 0.490970 0.817374
C33   C     C_R   0.195485 0.719672 0.509652 0.023935
C34   C     C_R   0.657895 0.772594 0.537550 0.118340
C35   C     C_R   0.681902 0.203048 0.590992 0.121641
C36   C     C_R   0.157880 0.272587 0.537349 0.118342
C37   C     C_R   0.181937 0.702991 0.591123 0.121666
C38   C     C_R   0.591163 0.900863 0.509348 0.887263
C39   C     C_R   0.591604 0.098500 0.510264 0.875385
C40   C     C_R   0.091162 0.400864 0.509345 0.887295
C41   C     C_R   0.091607 0.598497 0.510273 0.875937
C42   C     C_R   0.620041 0.808735 0.528121 0.070624
C43   C     C_R   0.908259 0.400914 0.491127 0.840683
C44   C     C_R   0.648308 0.162778 0.592316 0.060831
C45   C     C_R   0.120029 0.308731 0.527953 0.070532
C46   C     C_R   0.148347 0.662713 0.592402 0.060627
C47   C     C_R   0.290488 0.174212 0.434134 0.151327
C48   C     C_R   0.337550 0.778466 0.534509 0.144261
C49   C     C_R   0.790405 0.674054 0.434408 0.151441
C50   C     C_R   0.837587 0.278405 0.534337 0.144170
C51   C     C_R   0.323002 0.132211 0.441067 0.091676
C52   C     C_R   0.373393 0.817133 0.547248 0.116241
C53   C     C_R   0.822940 0.632074 0.441435 0.091621
C54   C     C_R   0.480950 0.014257 0.973501 -0.053821
C55   C     C_R   0.873440 0.317061 0.547096 0.116248
C56   C     C_R   0.304237 0.221426 0.476791 0.230977
C57   C     C_R   0.299133 0.783385 0.464231 0.232649
C58   C     C_R   0.804183 0.721357 0.476730 0.230883
C59   C     C_R   0.799136 0.283379 0.464141 0.232773
C60   C     C_R   0.370745 0.139565 0.484987 -0.108028
C61   C     C_R   0.371448 0.859406 0.485335 -0.114054
C62   C     C_R   0.870729 0.639533 0.485026 -0.107807
C63   C     C_R   0.871452 0.359399 0.485304 -0.114118
C64   C     C_R   0.384002 0.188051 0.522948 -0.240672
C65   C     C_R   0.980786 0.513929 0.973399 -0.053429
C66   C     C_R   0.333468 0.861864 0.413766 -0.218915
C67   C     C_R   0.884014 0.688095 0.522640 -0.240639
C68   C     C_R   0.833422 0.361924 0.413832 -0.218797
C69   C     C_R   0.351022 0.228322 0.519377 -0.225919
C70   C     C_R   0.297757 0.824406 0.403601 -0.217127
C71   C     C_R   0.851013 0.728349 0.519028 -0.225868
C72   C     C_R   0.797711 0.324466 0.403637 -0.217158
C73   C     C_R   0.489332 0.000825 0.257229 0.839163
C74   C     C_R   0.989327 0.500827 0.257219 0.839348
C75   C     C_R   0.511348 0.999781 0.742577 0.868851
C76   C     C_R   0.520348 0.988932 0.024890 -0.045200
C77   C     C_R   0.011343 0.499783 0.742567 0.869008
C78   C     C_R   0.484998 0.004892 0.159649 -0.217162
C79   C     C_R   0.984968 0.504803 0.159608 -0.217211
C80   C     C_R   0.516591 0.998598 0.839546 -0.130471
C81   C     C_R   0.016575 0.498618 0.839516 -0.130110
C82   C     C_R   0.557427 0.967737 0.982674 0.482679
C83   C     C_R   0.057720 0.468298 0.982749 0.482803
C84   C     C_R   0.555964 0.973634 0.889918 0.069863
C85   C     C_R   0.056184 0.474113 0.889961 0.069626
C86   C     C_R   0.479818 0.019210 0.881000 -0.240319
C87   C     C_R   0.020446 0.489111 0.024893 -0.045276
C88   C     C_R   0.979595 0.518812 0.880883 -0.240567
C89   C     C_3   0.787435 0.854138 0.621104 0.101494
C90   C     C_3   0.832370 0.887409 0.630379 -0.756700
C91   C     C_3   0.662295 0.267409 0.327733 0.100034
C92   C     C_3   0.662225 0.280325 0.229261 -0.752127
C93   C     C_3   0.287385 0.354103 0.621411 0.101488
C94   C     C_3   0.332371 0.387296 0.630809 -0.756648
C95   C     C_3   0.162185 0.767664 0.328221 0.099759
C96   C     C_3   0.161490 0.780514 0.229563 -0.752608
C97   C     C_3   0.690046 0.955521 0.600559 0.128440
C98   C     C_R   0.522031 0.985069 0.117586 -0.288438
C99   C     C_3   0.708208 0.010751 0.594094 -0.706106
C100  C     C_3   0.573348 0.158507 0.317454 0.140695
C101  C     C_3   0.557467 0.141521 0.221294 -0.766358
C102  C     C_3   0.189987 0.455500 0.600786 0.128451
C103  C     C_3   0.208206 0.510716 0.594464 -0.705905
C104  C     C_3   0.073374 0.658743 0.317490 0.140225
C105  C     C_3   0.057149 0.641167 0.221775 -0.766455
C106  C     C_3   0.420704 0.103034 0.172534 0.128006
C107  C     C_3   0.379286 0.127407 0.211653 -0.741857
C108  C     C_3   0.919466 0.602354 0.171172 0.127599
H1    H     H_    0.552236 0.966278 0.157797 0.228999
H2    H     H_    0.768366 0.327837 0.348966 0.165995
H3    H     H_    0.449734 0.037907 0.840164 0.194485
H4    H     H_    0.949330 0.537148 0.839974 0.194302
H5    H     H_    0.798531 0.813065 0.632999 0.156421
H6    H     H_    0.766032 0.865885 0.674231 0.113600
H7    H     H_    0.822398 0.928919 0.620209 0.265228
H8    H     H_    0.853020 0.882311 0.698381 0.207422
H9    H     H_    0.855247 0.875776 0.579793 0.256853
H10   H     H_    0.684127 0.297060 0.368288 0.156208
H11   H     H_    0.624747 0.270191 0.342131 0.105187
H12   H     H_    0.052583 0.466940 0.157888 0.229334
H13   H     H_    0.639944 0.251778 0.186841 0.261504
H14   H     H_    0.647184 0.319742 0.214402 0.206802
H15   H     H_    0.699410 0.279252 0.213109 0.261614
H16   H     H_    0.298417 0.313010 0.633309 0.156312
H17   H     H_    0.265959 0.365884 0.674481 0.113627
H18   H     H_    0.322465 0.428824 0.620642 0.265246
H19   H     H_    0.352972 0.382159 0.698844 0.207401
H20   H     H_    0.355269 0.375628 0.580279 0.256822
H21   H     H_    0.184332 0.797262 0.368300 0.156742
H22   H     H_    0.124808 0.770599 0.343526 0.104556
H23   H     H_    0.420134 0.194927 0.556207 0.189803
H24   H     H_    0.138898 0.752004 0.187630 0.261327
H25   H     H_    0.146473 0.819966 0.214977 0.206934
H26   H     H_    0.198494 0.779321 0.212518 0.261959
H27   H     H_    0.714406 0.935093 0.654113 0.131554
H28   H     H_    0.653610 0.957290 0.620338 0.129997
H29   H     H_    0.745274 0.010327 0.577308 0.260060
H30   H     H_    0.684636 0.032516 0.541302 0.263156
H31   H     H_    0.708325 0.030707 0.659188 0.220405
H32   H     H_    0.573763 0.201605 0.318404 0.114037
H33   H     H_    0.546488 0.144464 0.359132 0.098132
H34   H     H_    0.331035 0.893200 0.365210 0.201872
H35   H     H_    0.554188 0.098632 0.218172 0.259457
H36   H     H_    0.522212 0.159161 0.195477 0.173195
H37   H     H_    0.584066 0.154352 0.178217 0.274235
H38   H     H_    0.214278 0.435032 0.654392 0.131569
H39   H     H_    0.153521 0.457296 0.620421 0.130140
H40   H     H_    0.245294 0.510267 0.577786 0.260035
H41   H     H_    0.184690 0.532528 0.541653 0.262988
H42   H     H_    0.208289 0.530640 0.659578 0.220652
H43   H     H_    0.074075 0.701838 0.317525 0.115585
H44   H     H_    0.046556 0.645272 0.359733 0.097744
H45   H     H_    0.920184 0.695041 0.555650 0.189626
H46   H     H_    0.021917 0.658857 0.195947 0.173421
H47   H     H_    0.083652 0.653498 0.178138 0.274290
H48   H     H_    0.053690 0.598281 0.219549 0.259467
H49   H     H_    0.426786 0.126212 0.112615 0.161129
H50   H     H_    0.453204 0.104925 0.224053 0.104026
H51   H     H_    0.372724 0.105555 0.272207 0.276689
H52   H     H_    0.388051 0.168211 0.230674 0.192107
H53   H     H_    0.346289 0.126773 0.161501 0.267071
H54   H     H_    0.924725 0.625365 0.110589 0.162409
H55   H     H_    0.952219 0.605095 0.221956 0.103868
H56   H     H_    0.830949 0.393314 0.365376 0.201967
H57   H     H_    0.872371 0.604565 0.272364 0.276631
H58   H     H_    0.886053 0.667241 0.228664 0.192424
H59   H     H_    0.844670 0.624412 0.161663 0.267437
H60   H     H_    0.580440 0.871690 0.971742 0.174116
H61   H     H_    0.553232 0.883861 0.071422 0.134044
H62   H     H_    0.633602 0.880336 0.164350 0.259053
H63   H     H_    0.620028 0.821274 0.101755 0.211144
H64   H     H_    0.660841 0.868064 0.064926 0.269717
H65   H     H_    0.081645 0.372492 0.972296 0.173948
H66   H     H_    0.054341 0.384461 0.071935 0.134098
H67   H     H_    0.361768 0.264933 0.550985 0.165587
H68   H     H_    0.134754 0.381902 0.164822 0.259249
H69   H     H_    0.121721 0.322630 0.102571 0.211078
H70   H     H_    0.162084 0.369815 0.065438 0.269660
H71   H     H_    0.353967 0.008703 0.006458 0.186215
H72   H     H_    0.378525 0.989641 0.906524 0.132367
H73   H     H_    0.337225 0.064299 0.823492 0.253077
H74   H     H_    0.295503 0.022219 0.869314 0.215707
H75   H     H_    0.312707 0.083268 0.922986 0.265745
H76   H     H_    0.853920 0.506740 0.006503 0.185985
H77   H     H_    0.878683 0.487898 0.906673 0.132708
H78   H     H_    0.268450 0.827724 0.348849 0.166084
H79   H     H_    0.836481 0.561902 0.823183 0.253175
H80   H     H_    0.795281 0.519291 0.869291 0.215705
H81   H     H_    0.811746 0.580629 0.922569 0.265715
H82   H     H_    0.861781 0.765025 0.550372 0.165625
I1    I     I_    0.547560 0.781342 0.516426 -0.198695
I2    I     I_    0.927348 0.310461 0.662974 -0.196142
I3    I     I_    0.221305 0.169308 0.354911 -0.222331
I4    I     I_    0.340750 0.710411 0.617018 -0.191780
I5    I     I_    0.721156 0.668977 0.355477 -0.222429
I6    I     I_    0.840790 0.210303 0.616735 -0.191862
I7    I     I_    0.645337 0.691762 0.556028 -0.187265
I8    I     I_    0.714852 0.238884 0.711928 -0.207988
I9    I     I_    0.145299 0.191730 0.555487 -0.187442
I10   I     I_    0.214898 0.738770 0.712100 -0.207689
I11   I     I_    0.634638 0.131565 0.718281 -0.242083
I12   I     I_    0.047540 0.281349 0.516061 -0.198833
I13   I     I_    0.134700 0.631420 0.718324 -0.241759
I14   I     I_    0.614744 0.946630 0.828031 -0.329140
I15   I     I_    0.115167 0.447674 0.828095 -0.329965
I16   I     I_    0.296734 0.057933 0.392312 -0.259330
I17   I     I_    0.427207 0.810668 0.663298 -0.196287
I18   I     I_    0.796649 0.557659 0.393445 -0.260245
N1    N     N_2   0.740622 0.750460 0.529610 -0.118960
N2    N     N_2   0.734025 0.255417 0.512889 -0.121562
N3    N     N_2   0.240627 0.250474 0.529560 -0.119018
N4    N     N_2   0.234033 0.755417 0.513037 -0.121607
N5    N     N_2   0.270765 0.261889 0.479748 -0.099956
N6    N     N_2   0.260777 0.747795 0.455400 -0.093643
N7    N     N_2   0.770703 0.761818 0.479649 -0.099997
N8    N     N_2   0.760789 0.247781 0.455292 -0.093463
O1    O     O_3   0.500000 0.000000 0.500000 -0.511302
O2    O     O_R   0.057820 0.602510 0.558190 -0.627621
O3    O     O_R   0.402690 0.940060 0.437800 -0.635832
O4    O     O_R   0.402690 0.059940 0.437800 -0.619421
O5    O     O_R   0.902690 0.440060 0.437800 -0.635731
O6    O     O_R   0.902690 0.559940 0.437800 -0.619891
O7    O     O_R   0.592810 0.059930 0.457190 -0.596909
O8    O     O_R   0.592810 0.940070 0.457190 -0.598513
O9    O     O_R   0.092810 0.559930 0.457190 -0.596697
O10   O     O_R   0.092810 0.440070 0.457190 -0.598588
O11   O     O_R   0.451940 0.000000 0.295720 -0.594530
O12   O     O_3   0.000000 0.500000 0.500000 -0.511258
O13   O     O_R   0.951940 0.500000 0.295720 -0.594160
O14   O     O_R   0.508560 0.042600 0.700250 -0.620974
O15   O     O_R   0.508560 0.957400 0.700250 -0.620450
O16   O     O_R   0.008560 0.542600 0.700250 -0.620802
O17   O     O_R   0.008560 0.457400 0.700250 -0.620673
O18   O     O_R   0.530930 0.000000 0.303780 -0.645142
O19   O     O_R   0.030930 0.500000 0.303780 -0.645510
O20   O     O_3   0.761886 0.860720 0.533841 -0.546958
O21   O     O_3   0.681970 0.217309 0.345556 -0.542972
O22   O     O_3   0.261897 0.360736 0.534112 -0.546942
O23   O     O_R   0.446670 0.102520 0.546820 -0.647031
O24   O     O_3   0.181828 0.717517 0.345687 -0.543189
O25   O     O_3   0.688987 0.931105 0.516589 -0.539240
O26   O     O_3   0.619043 0.137242 0.347908 -0.529285
O27   O     O_3   0.188995 0.431119 0.516803 -0.539377
O28   O     O_3   0.118999 0.637326 0.347976 -0.529335
O29   O     O_3   0.409226 0.051048 0.149611 -0.574544
O30   O     O_3   0.908742 0.550060 0.149380 -0.574604
O31   O     O_3   0.596339 0.943471 0.032440 -0.582654
O32   O     O_3   0.096872 0.444499 0.032599 -0.582562
O33   O     O_3   0.404765 0.058986 0.965764 -0.605009
O34   O     O_R   0.446670 0.897480 0.546820 -0.605942
O35   O     O_3   0.904106 0.557665 0.965435 -0.605552
O36   O     O_R   0.946670 0.602520 0.546820 -0.646891
O37   O     O_R   0.946670 0.397480 0.546820 -0.605994
O38   O     O_R   0.557820 0.897490 0.558190 -0.614385
O39   O     O_R   0.557820 0.102510 0.558190 -0.627520
O40   O     O_R   0.057820 0.397490 0.558190 -0.614528
Zn1   Zn    Zn3+2 0.503210 0.939150 0.575020 1.030968
Zn2   Zn    Zn3+2 0.503210 0.060850 0.575020 0.990513
Zn3   Zn    Zn3+2 0.003210 0.439150 0.575020 1.030853
Zn4   Zn    Zn3+2 0.003210 0.560850 0.575020 0.990767
Zn5   Zn    Zn3+2 0.440370 0.000000 0.419230 1.005245
Zn6   Zn    Zn3+2 0.940370 0.500000 0.419230 1.005239
Zn7   Zn    Zn3+2 0.553220 0.000000 0.430750 1.014607
Zn8   Zn    Zn3+2 0.053220 0.500000 0.430750 1.014646

loop_
_geom_bond_atom_site_label_1
_geom_bond_atom_site_label_2
_ccdc_geom_bond_type
C83   C87   A    
C13   C79   A    
O19   Zn8   S    
O1    Zn7   S    
C32   O6    A    
C16   C42   A    
C52   I17   S    
C10   H76   S    
O23   Zn2   S    
O4    Zn5   S    
C34   C42   A    
C93   H16   S    
C80   C84   A    
C39   O7    A    
C53   I18   S    
O7    Zn7   S    
C41   O2    A    
C19   C46   A    
C43   C63   S    
C48   C57   A    
O17   Zn3   S    
C14   O33   S    
O13   Zn6   S    
C1    O23   A    
O15   Zn1   S    
O11   Zn5   S    
N1    N7    D    
C103  H41   S    
C15   O35   S    
C82   O31   S    
C19   C24   A    
C67   H45   S    
C11   H79   S    
C50   C59   A    
C104  H43   S    
C6    O32   S    
C43   O5    A    
C52   C61   A    
C101  H36   S    
C49   C53   A    
C58   C71   A    
C39   O39   A    
C106  C107  S    
C76   C98   A    
C12   O29   S    
C15   C65   A    
O40   Zn3   S    
C108  O30   S    
C10   H77   S    
O1    Zn1   S    
C7    H69   S    
C10   O35   S    
C17   C39   S    
C37   I10   S    
C38   O8    A    
C18   C40   S    
C80   C86   A    
C9    H74   S    
C100  H32   S    
C103  H42   S    
C97   C99   S    
C89   H6    S    
C50   I6    S    
C42   I1    S    
O36   Zn4   S    
O16   Zn4   S    
O14   Zn2   S    
C25   O20   S    
C45   I12   S    
C12   C78   A    
C83   O32   S    
C78   C98   A    
C95   H22   S    
C73   C78   S    
C36   I9    S    
C99   H30   S    
C65   C87   A    
C2    C79   A    
C90   H8    S    
C57   C70   A    
C75   C80   S    
O34   Zn1   S    
C21   C61   S    
C83   C85   A    
C16   C20   A    
C59   C72   A    
C96   H24   S    
C58   N7    S    
C84   I14   S    
C94   H18   S    
C13   O30   S    
O39   Zn2   S    
C14   C54   A    
C98   H1    S    
C26   O21   S    
C40   O10   A    
C99   H31   S    
C74   O13   A    
C61   C66   A    
C104  C105  S    
O6    Zn6   S    
O12   Zn6   S    
C103  H40   S    
C107  H52   S    
O8    Zn7   S    
C89   H5    S    
C68   H56   S    
C25   C29   A    
C20   O25   S    
C108  H55   S    
C41   O9    A    
C8    O33   S    
C51   I16   S    
O1    Zn5   S    
C4    H61   S    
C5    H62   S    
C85   I15   S    
C11   H80   S    
C21   O34   A    
C90   H9    S    
C107  H53   S    
C2    C87   A    
C9    H73   S    
C102  O27   S    
O5    Zn6   S    
C1    C60   S    
C76   C82   A    
C91   C92   S    
C73   O11   A    
C34   I7    S    
C59   N8    S    
C8    C9    S    
C96   H26   S    
O3    Zn5   S    
C49   I5    S    
O38   Zn1   S    
C104  O28   S    
C27   C31   A    
C29   C34   A    
C33   C37   A    
C49   C58   A    
C4    H60   S    
C7    H70   S    
C55   C63   A    
C11   H81   S    
C88   H4    S    
C75   O14   A    
O12   Zn3   S    
C4    O31   S    
C9    H75   S    
C92   H14   S    
C102  H39   S    
C53   C62   A    
C8    H72   S    
C107  H51   S    
C18   C23   A    
C64   H23   S    
C77   C81   S    
C93   O22   S    
C68   C72   A    
C50   C55   A    
C101  H37   S    
C7    H68   S    
C91   O21   S    
C77   O17   A    
C5    H63   S    
C91   H10   S    
C36   C45   A    
C93   C94   S    
C64   C69   A    
C75   O15   A    
C35   C44   A    
C73   O18   A    
C6    C7    S    
O9    Zn8   S    
C54   C76   A    
C62   C67   A    
C46   I13   S    
C105  H47   S    
C12   C14   A    
C28   C33   A    
C26   C30   A    
C23   C27   A    
C74   C79   S    
C13   C15   A    
C22   C26   A    
C44   I11   S    
C91   H11   S    
C92   H15   S    
C97   H27   S    
C23   O27   S    
C18   C45   A    
O10   Zn8   S    
C22   O26   S    
C100  O26   S    
C3    H57   S    
C65   C88   A    
C54   C86   A    
C30   C35   A    
N3    N5    D    
C63   C68   A    
O18   Zn7   S    
C77   O16   A    
C2    H12   S    
C48   I4    S    
C3    H59   S    
C21   O3    A    
C47   I3    S    
C99   H29   S    
C24   C28   A    
N4    N6    D    
C4    C5    S    
C97   O25   S    
C30   N2    S    
C47   C51   A    
O12   Zn4   S    
C29   N1    S    
C96   H25   S    
C66   H34   S    
C6    H65   S    
C94   H20   S    
C3    C108  S    
C106  H49   S    
C6    H66   S    
C32   O36   A    
C82   C84   A    
C17   C22   A    
C71   H82   S    
C60   C64   A    
C100  H33   S    
O2    Zn4   S    
C55   I2    S    
C104  H44   S    
C90   H7    S    
C86   H3    S    
C37   C46   A    
C70   H78   S    
C32   C62   S    
C106  H50   S    
C92   H13   S    
C28   O24   S    
C101  H35   S    
C8    H71   S    
C43   O37   A    
C66   C70   A    
C108  H54   S    
C72   H2    S    
C38   O38   A    
N2    N8    D    
C105  H46   S    
C100  C101  S    
C33   N4    S    
C5    H64   S    
C24   O28   S    
C1    O4    A    
C67   C71   A    
C95   O24   S    
C74   O19   A    
C106  O29   S    
C94   H19   S    
C102  C103  S    
C93   H17   S    
C17   C44   A    
C81   C88   A    
C56   N5    S    
C10   C11   S    
O1    Zn2   S    
C89   O20   S    
C35   I8    S    
C40   O40   A    
O12   Zn8   S    
C48   C52   A    
C105  H48   S    
C31   N3    S    
C57   N6    S    
C27   O22   S    
C81   C85   A    
C56   C69   A    
C20   C25   A    
C95   C96   S    
C95   H21   S    
C31   C36   A    
O37   Zn3   S    
C51   C60   A    
C69   H67   S    
C97   H28   S    
C89   C90   S    
C102  H38   S    
C19   C41   S    
C3    H58   S    
C16   C38   S    
C47   C56   A    
