data_mof_unit_6842.cif
_audit_creation_date              2012-12-10T18:14:36-0500
_audit_creation_method            fapswitch 2.2
_symmetry_space_group_name_H-M    P1
_symmetry_Int_Tables_number       1
_space_group_crystal_system       triclinic
_cell_length_a                    18.461907
_cell_length_b                    18.461965
_cell_length_c                    36.07299
_cell_angle_alpha                 89.999964
_cell_angle_beta                  90.000482
_cell_angle_gamma                 90.000292
_cell_volume                      12295.2290471

loop_
_atom_site_label
_atom_site_type_symbol
_atom_type_description
_atom_site_fract_x
_atom_site_fract_y
_atom_site_fract_z
_atom_type_partial_charge
C1    C     C_R   0.565739 0.001232 0.480659 -0.084195
C2    C     C_R   0.934253 0.499323 0.019341 -0.084188
C3    C     C_R   0.803835 0.696168 0.750001 -0.065294
C4    C     C_R   0.696662 0.196663 0.250000 -0.060633
C5    C     C_R   0.303834 0.803840 0.750001 -0.065201
C6    C     C_R   0.803343 0.696666 0.249995 -0.060588
C7    C     C_R   0.196173 0.303837 0.749999 -0.065345
C8    C     C_R   0.303346 0.196665 0.749994 -0.060537
C9    C     C_R   0.696171 0.803838 0.249999 -0.065288
C10   C     C_R   0.196662 0.696667 0.750003 -0.060696
C11   C     C_R   0.803833 0.303835 0.250001 -0.065255
C12   C     C_R   0.696662 0.803340 0.750001 -0.060603
C13   C     C_R   0.501689 0.065729 0.980658 -0.084156
C14   C     C_R   0.303831 0.196163 0.249999 -0.065271
C15   C     C_R   0.803331 0.303339 0.749995 -0.060693
C16   C     C_R   0.196164 0.696165 0.250000 -0.065231
C17   C     C_R   0.498316 0.934271 0.019342 -0.084222
C18   C     C_R   0.934253 0.499327 0.980658 -0.084192
C19   C     C_R   0.065746 0.500680 0.019342 -0.084186
C20   C     C_R   0.498312 0.934271 0.980658 -0.084178
C21   C     C_R   0.501684 0.065729 0.019341 -0.084213
C22   C     C_1   0.500001 0.000000 0.421686 -0.012502
C23   C     C_1   0.499999 0.000000 0.578314 -0.012562
C24   C     C_1   0.000000 0.500000 0.421686 -0.012517
C25   C     C_R   0.434261 0.998765 0.519341 -0.084195
C26   C     C_1   0.000000 0.500000 0.578314 -0.012550
C27   C     C_1   0.000000 0.500001 0.921686 -0.012468
C28   C     C_1   0.999999 0.500001 0.078314 -0.012531
C29   C     C_1   0.500000 1.000000 0.921686 -0.012507
C30   C     C_1   0.500000 0.000000 0.078314 -0.012544
C31   C     C_1   0.999999 0.500000 0.111584 0.069737
C32   C     C_1   0.000001 0.500001 0.888416 0.069790
C33   C     C_1   0.500000 0.000000 0.111584 0.069719
C34   C     C_1   0.500000 1.000000 0.888416 0.069768
C35   C     C_1   0.499999 0.000000 0.611584 0.069715
C36   C     C_R   0.001263 0.565738 0.480658 -0.084188
C37   C     C_1   0.500001 0.000000 0.388416 0.069759
C38   C     C_1   0.000000 0.500000 0.611584 0.069714
C39   C     C_1   0.000000 0.500000 0.388416 0.069755
C40   C     C_R   1.000000 0.500000 0.348910 0.522132
C41   C     C_R   1.000000 0.500000 0.651090 0.522089
C42   C     C_R   0.500000 0.000000 0.348910 0.522103
C43   C     C_R   0.500000 0.000000 0.651090 0.522141
C44   C     C_R   0.500000 1.000000 0.848910 0.522159
C45   C     C_R   0.500000 0.000000 0.151090 0.522110
C46   C     C_R   0.000000 0.500000 0.848910 0.522098
C47   C     C_R   0.998742 0.434262 0.519342 -0.084226
C48   C     C_R   1.000000 0.500000 0.151090 0.522124
C49   C     C_R   0.140305 0.359694 0.249999 0.552583
C50   C     C_R   0.859880 0.640121 0.750000 0.572601
C51   C     C_R   0.640306 0.140306 0.250000 0.552562
C52   C     C_R   0.359880 0.859881 0.750000 0.572787
C53   C     C_R   0.859695 0.640306 0.249999 0.552610
C54   C     C_R   0.140121 0.359879 0.750000 0.572477
C55   C     C_R   0.359694 0.859694 0.250000 0.552522
C56   C     C_R   0.640119 0.140119 0.750000 0.572817
C57   C     C_R   0.140306 0.640307 0.750001 0.552492
C58   C     C_R   0.434261 0.998769 0.480658 -0.084208
C59   C     C_R   0.859880 0.359880 0.250000 0.572670
C60   C     C_R   0.640306 0.859695 0.750000 0.552611
C61   C     C_R   0.359880 0.140120 0.250000 0.572638
C62   C     C_R   0.859692 0.359694 0.749999 0.552477
C63   C     C_R   0.140119 0.640120 0.250000 0.572733
C64   C     C_R   0.359696 0.140306 0.749998 0.552683
C65   C     C_R   0.640121 0.859880 0.250000 0.572600
C66   C     C_R   0.248246 0.699058 0.221227 0.175059
C67   C     C_R   0.740913 0.310119 0.772906 0.159733
C68   C     C_R   0.300956 0.248262 0.221233 0.175020
C69   C     C_R   0.565739 0.001237 0.519342 -0.084207
C70   C     C_R   0.689841 0.740880 0.772877 0.159773
C71   C     C_R   0.751737 0.300956 0.221233 0.175060
C72   C     C_R   0.259084 0.689889 0.772913 0.159710
C73   C     C_R   0.699036 0.751730 0.221236 0.175019
C74   C     C_R   0.310201 0.259151 0.772848 0.159851
C75   C     C_R   0.248328 0.301005 0.778742 0.175074
C76   C     C_R   0.740884 0.689849 0.227117 0.159700
C77   C     C_R   0.300922 0.751781 0.778784 0.175123
C78   C     C_R   0.689853 0.259111 0.227113 0.159712
C79   C     C_R   0.751722 0.699032 0.778761 0.175064
C80   C     C_R   0.998738 0.434262 0.480658 -0.084176
C81   C     C_R   0.259110 0.310146 0.227113 0.159703
C82   C     C_R   0.699076 0.248227 0.778781 0.175111
C83   C     C_R   0.310133 0.740900 0.227104 0.159694
C84   C     C_R   0.748209 0.199086 0.721212 0.175041
C85   C     C_R   0.240900 0.810133 0.272897 0.159728
C86   C     C_R   0.800971 0.748283 0.721241 0.175002
C87   C     C_R   0.189841 0.240880 0.272878 0.159735
C88   C     C_R   0.251770 0.800928 0.721221 0.175073
C89   C     C_R   0.759110 0.189854 0.272887 0.159744
C90   C     C_R   0.199010 0.251698 0.721249 0.174998
C91   C     C_R   0.001259 0.565738 0.519341 -0.084221
C92   C     C_R   0.810170 0.759127 0.272870 0.159775
C93   C     C_R   0.748290 0.800975 0.278757 0.175051
C94   C     C_R   0.240864 0.189823 0.727135 0.159706
C95   C     C_R   0.800954 0.251738 0.278767 0.175101
C96   C     C_R   0.189879 0.759090 0.727095 0.159688
C97   C     C_R   0.251723 0.199034 0.278761 0.175021
C98   C     C_R   0.759123 0.810163 0.727124 0.159711
C99   C     C_R   0.199057 0.748247 0.278773 0.175116
C100  C     C_R   0.810102 0.240923 0.727081 0.159621
C101  C     C_R   0.500000 0.000000 0.461338 0.035091
C102  C     C_R   0.065747 0.500676 0.980659 -0.084161
C103  C     C_R   0.500000 0.000001 0.538662 0.035063
C104  C     C_R   0.000000 0.500000 0.461338 0.035085
C105  C     C_R   0.000000 0.500000 0.538662 0.035063
C106  C     C_R   0.000000 0.500002 0.961338 0.035102
C107  C     C_R   1.000000 0.500001 0.038662 0.035074
C108  C     C_R   0.500000 1.000000 0.961338 0.035096
C109  C     C_R   0.500000 0.000000 0.038662 0.035076
C110  C     C_R   0.303337 0.803337 0.250000 -0.060684
C111  C     C_R   0.696159 0.196167 0.749999 -0.065184
C112  C     C_R   0.196659 0.303335 0.249997 -0.060611
H1    H     H_    0.116804 0.501210 0.034155 0.146659
H2    H     H_    0.383209 0.997814 0.465845 0.146672
H3    H     H_    0.002234 0.616789 0.534154 0.146680
H4    H     H_    0.997755 0.383211 0.465846 0.146645
H5    H     H_    0.383209 0.997803 0.534154 0.146651
H6    H     H_    0.616791 0.002187 0.465846 0.146666
H7    H     H_    0.997767 0.383212 0.534154 0.146686
H8    H     H_    0.002246 0.616788 0.465845 0.146641
H9    H     H_    0.272672 0.681394 0.120697 0.378450
H10   H     H_    0.594181 0.378810 0.775390 0.363193
H11   H     H_    0.318636 0.272710 0.120705 0.378581
H12   H     H_    0.883195 0.498805 0.965845 0.146666
H13   H     H_    0.621095 0.594152 0.775245 0.363100
H14   H     H_    0.727104 0.318785 0.120727 0.378517
H15   H     H_    0.405824 0.621115 0.775412 0.363150
H16   H     H_    0.681294 0.727216 0.120715 0.378596
H17   H     H_    0.378939 0.405867 0.775116 0.363126
H18   H     H_    0.274722 0.320220 0.879032 0.379193
H19   H     H_    0.594154 0.621100 0.224726 0.363069
H20   H     H_    0.318543 0.727416 0.879319 0.378414
H21   H     H_    0.621122 0.405840 0.224707 0.363097
H22   H     H_    0.726591 0.680800 0.879209 0.378777
H23   H     H_    0.502990 0.116773 0.034154 0.146669
H24   H     H_    0.405842 0.378884 0.224706 0.363083
H25   H     H_    0.681131 0.273019 0.879266 0.378562
H26   H     H_    0.378867 0.594167 0.224665 0.363096
H27   H     H_    0.771823 0.182081 0.620591 0.378182
H28   H     H_    0.094162 0.878915 0.275343 0.363138
H29   H     H_    0.818712 0.772804 0.620720 0.378594
H30   H     H_    0.121138 0.094157 0.275259 0.363096
H31   H     H_    0.227397 0.818545 0.620686 0.378441
H32   H     H_    0.905839 0.121122 0.275293 0.363146
H33   H     H_    0.181189 0.227089 0.620737 0.378604
H34   H     H_    0.496998 0.883228 0.965845 0.146636
H35   H     H_    0.878886 0.905849 0.275221 0.363134
H36   H     H_    0.773844 0.819536 0.379152 0.378937
H37   H     H_    0.094138 0.121070 0.724814 0.363013
H38   H     H_    0.819124 0.226680 0.379223 0.378633
H39   H     H_    0.121152 0.905824 0.724616 0.363139
H40   H     H_    0.226625 0.180826 0.379212 0.378785
H41   H     H_    0.905851 0.878899 0.724756 0.363045
H42   H     H_    0.181395 0.772670 0.379304 0.378420
H43   H     H_    0.878831 0.094184 0.724560 0.363092
H44   H     H_    0.883195 0.498793 0.034154 0.146657
H45   H     H_    0.116805 0.501198 0.965847 0.146669
H46   H     H_    0.497010 0.883228 0.034155 0.146675
H47   H     H_    0.503002 0.116772 0.965845 0.146620
H48   H     H_    0.616791 0.002199 0.534155 0.146658
O1    O     O_3   0.000000 0.500000 0.250000 -0.533054
O2    O     O_R   0.000000 0.560700 0.668450 -0.504708
O3    O     O_3   0.389324 0.618020 0.200652 -0.385272
O4    O     O_2   0.751316 0.083750 0.675201 -0.156582
O5    O     O_2   0.653437 0.171712 0.666202 -0.283970
O6    O     O_3   0.782035 0.207022 0.644334 -0.445368
O7    O     O_2   0.246877 0.916813 0.323886 -0.133518
O8    O     O_2   0.216593 0.952530 0.260368 -0.277009
O9    O     O_3   0.118026 0.889324 0.299358 -0.385308
O10   O     O_2   0.916408 0.751514 0.675307 -0.156896
O11   O     O_2   0.828467 0.653662 0.666174 -0.283244
O12   O     O_3   0.793208 0.782318 0.644381 -0.445296
O13   O     O_R   0.560700 0.000000 0.331550 -0.504726
O14   O     O_2   0.083114 0.246794 0.323843 -0.133527
O15   O     O_2   0.047453 0.216604 0.260305 -0.276993
O16   O     O_3   0.110615 0.117976 0.299273 -0.385564
O17   O     O_2   0.248618 0.916296 0.675239 -0.157110
O18   O     O_2   0.346490 0.828349 0.666189 -0.283343
O19   O     O_3   0.217875 0.793048 0.644348 -0.445476
O20   O     O_2   0.753175 0.083150 0.323863 -0.133641
O21   O     O_2   0.783397 0.047463 0.260333 -0.276937
O22   O     O_3   0.882004 0.110644 0.299308 -0.385534
O23   O     O_2   0.083543 0.248433 0.675334 -0.156831
O24   O     O_R   0.439300 0.000000 0.668450 -0.504729
O25   O     O_2   0.171477 0.346278 0.666167 -0.283207
O26   O     O_3   0.206721 0.217607 0.644394 -0.445311
O27   O     O_2   0.916915 0.753240 0.323827 -0.133596
O28   O     O_2   0.952555 0.783388 0.260281 -0.277006
O29   O     O_3   0.889411 0.882043 0.299239 -0.385736
O30   O     O_2   0.751555 0.916437 0.324662 -0.157751
O31   O     O_2   0.653702 0.828517 0.333841 -0.282309
O32   O     O_3   0.782367 0.793256 0.355614 -0.445461
O33   O     O_2   0.246728 0.083056 0.676191 -0.133307
O34   O     O_2   0.216611 0.047445 0.739745 -0.277134
O35   O     O_R   0.500000 0.060700 0.831550 -0.504722
O36   O     O_3   0.117936 0.110573 0.700791 -0.385361
O37   O     O_2   0.916377 0.248521 0.324706 -0.157500
O38   O     O_2   0.828448 0.346385 0.333828 -0.282777
O39   O     O_3   0.793166 0.217744 0.355632 -0.445570
O40   O     O_2   0.083222 0.753091 0.676093 -0.133517
O41   O     O_2   0.047478 0.783413 0.739602 -0.276949
O42   O     O_3   0.110707 0.881953 0.700606 -0.385221
O43   O     O_2   0.248489 0.083590 0.324685 -0.157447
O44   O     O_2   0.346341 0.171525 0.333834 -0.282676
O45   O     O_3   0.217684 0.206784 0.355621 -0.445409
O46   O     O_R   0.500000 0.939300 0.168450 -0.504711
O47   O     O_2   0.753219 0.916901 0.676164 -0.133319
O48   O     O_2   0.783398 0.952548 0.739704 -0.277143
O49   O     O_3   0.882032 0.889390 0.700738 -0.385328
O50   O     O_2   0.083666 0.751422 0.324739 -0.157056
O51   O     O_2   0.171612 0.653557 0.333816 -0.283336
O52   O     O_3   0.206897 0.782186 0.355643 -0.445476
O53   O     O_2   0.916730 0.246959 0.676066 -0.133375
O54   O     O_2   0.952508 0.216578 0.739563 -0.276955
O55   O     O_3   0.889249 0.118077 0.700553 -0.384938
O56   O     O_R   0.939300 0.500000 0.831550 -0.504703
O57   O     O_R   0.060700 0.500000 0.168450 -0.504709
O58   O     O_R   0.500000 0.939300 0.831550 -0.504703
O59   O     O_R   0.500000 0.060700 0.168450 -0.504719
O60   O     O_R   0.060700 0.500000 0.831550 -0.504716
O61   O     O_3   0.000000 0.500000 0.750000 -0.533039
O62   O     O_R   0.939300 0.500000 0.168450 -0.504720
O63   O     O_R   0.085400 0.353840 0.271430 -0.477241
O64   O     O_R   0.914600 0.646160 0.728570 -0.467813
O65   O     O_R   0.646160 0.085400 0.271430 -0.477234
O66   O     O_R   0.353840 0.914600 0.728570 -0.467799
O67   O     O_R   0.914600 0.646160 0.271430 -0.477231
O68   O     O_R   0.085400 0.353840 0.728570 -0.467823
O69   O     O_R   0.353840 0.914600 0.271430 -0.477259
O70   O     O_R   0.646160 0.085400 0.728570 -0.467826
O71   O     O_R   0.085400 0.646160 0.728570 -0.477272
O72   O     O_3   0.500000 0.000000 0.250000 -0.533042
O73   O     O_R   0.914600 0.353840 0.271430 -0.467788
O74   O     O_R   0.646160 0.914600 0.728570 -0.477301
O75   O     O_R   0.353840 0.085400 0.271430 -0.467801
O76   O     O_R   0.914600 0.353840 0.728570 -0.477305
O77   O     O_R   0.085400 0.646160 0.271430 -0.467788
O78   O     O_R   0.353840 0.085400 0.728570 -0.477305
O79   O     O_R   0.646160 0.914600 0.271430 -0.467784
O80   O     O_R   0.585400 0.853840 0.771430 -0.477245
O81   O     O_R   0.414600 0.146160 0.228570 -0.467806
O82   O     O_R   0.146160 0.585400 0.771430 -0.477229
O83   O     O_3   0.500000 0.000000 0.750000 -0.533061
O84   O     O_R   0.853840 0.414600 0.228570 -0.467804
O85   O     O_R   0.414600 0.146160 0.771430 -0.477195
O86   O     O_R   0.585400 0.853840 0.228570 -0.467813
O87   O     O_R   0.853840 0.414600 0.771430 -0.477227
O88   O     O_R   0.146160 0.585400 0.228570 -0.467812
O89   O     O_R   0.585400 0.146160 0.228570 -0.477281
O90   O     O_R   0.414600 0.853840 0.771430 -0.467804
O91   O     O_R   0.146160 0.414600 0.228570 -0.477283
O92   O     O_R   0.853840 0.585400 0.771430 -0.467800
O93   O     O_R   0.414600 0.853840 0.228570 -0.477276
O94   O     O_R   0.000000 0.560700 0.331550 -0.504714
O95   O     O_R   0.585400 0.146160 0.771430 -0.467774
O96   O     O_R   0.853840 0.585400 0.228570 -0.477285
O97   O     O_R   0.146160 0.414600 0.771430 -0.467780
O98   O     O_2   0.251426 0.583665 0.175262 -0.157039
O99   O     O_2   0.153559 0.671609 0.166183 -0.283305
O100  O     O_3   0.282188 0.706896 0.144359 -0.445472
O101  O     O_2   0.746912 0.416773 0.823909 -0.133656
O102  O     O_2   0.716587 0.452520 0.760400 -0.276890
O103  O     O_3   0.618049 0.389288 0.799396 -0.385453
O104  O     O_2   0.416368 0.251467 0.175282 -0.156956
O105  O     O_R   0.000000 0.439300 0.668450 -0.504705
O106  O     O_2   0.328426 0.153606 0.166179 -0.283236
O107  O     O_3   0.293151 0.282247 0.144369 -0.445327
O108  O     O_2   0.583107 0.746782 0.823839 -0.133514
O109  O     O_2   0.547453 0.716607 0.760299 -0.277066
O110  O     O_3   0.610611 0.617971 0.799263 -0.385634
O111  O     O_2   0.748530 0.416370 0.175285 -0.157130
O112  O     O_2   0.846391 0.328432 0.166177 -0.283152
O113  O     O_3   0.717750 0.293154 0.144369 -0.445493
O114  O     O_2   0.253062 0.583250 0.823922 -0.133596
O115  O     O_2   0.283413 0.547485 0.760419 -0.276870
O116  O     O_R   0.439300 0.000000 0.331550 -0.504716
O117  O     O_3   0.381936 0.610724 0.799423 -0.385309
O118  O     O_2   0.583610 0.748514 0.175293 -0.156960
O119  O     O_2   0.671550 0.846371 0.166176 -0.283185
O120  O     O_3   0.706818 0.717725 0.144373 -0.445341
O121  O     O_2   0.417001 0.253334 0.823776 -0.133720
O122  O     O_2   0.452576 0.283371 0.760208 -0.277050
O123  O     O_3   0.389487 0.382100 0.799140 -0.386102
O124  O     O_2   0.251668 0.416529 0.824597 -0.158198
O125  O     O_2   0.153826 0.328630 0.833860 -0.281656
O126  O     O_3   0.282521 0.293389 0.855590 -0.445549
O127  O     O_R   0.560700 0.000000 0.668450 -0.504703
O128  O     O_2   0.746808 0.583131 0.176147 -0.133393
O129  O     O_2   0.716601 0.547460 0.239681 -0.277051
O130  O     O_3   0.617985 0.610632 0.200708 -0.385319
O131  O     O_2   0.416285 0.748641 0.824771 -0.157167
O132  O     O_2   0.328338 0.846517 0.833810 -0.283297
O133  O     O_3   0.293031 0.717910 0.855659 -0.445493
O134  O     O_2   0.583146 0.253175 0.176137 -0.133501
O135  O     O_2   0.547461 0.283401 0.239667 -0.277022
O136  O     O_3   0.610645 0.382004 0.200691 -0.385347
O137  O     O_2   0.748476 0.583586 0.824682 -0.157436
O138  O     O_R   0.000000 0.439300 0.331550 -0.504714
O139  O     O_2   0.846336 0.671510 0.833833 -0.282686
O140  O     O_3   0.717682 0.706781 0.855621 -0.445400
O141  O     O_2   0.253172 0.416855 0.176138 -0.133393
O142  O     O_2   0.283403 0.452536 0.239668 -0.277057
O143  O     O_3   0.382003 0.389354 0.200690 -0.385298
O144  O     O_2   0.583707 0.251383 0.824756 -0.157545
O145  O     O_2   0.671648 0.153508 0.833816 -0.282944
O146  O     O_3   0.706956 0.282122 0.855653 -0.445539
O147  O     O_2   0.416817 0.746864 0.176117 -0.133488
O148  O     O_2   0.452529 0.716594 0.239638 -0.277011
S1    S     S_3+6 0.232180 0.662752 0.176090 0.103315
S2    S     S_3+6 0.706782 0.605091 0.210642 0.134589
S3    S     S_3+6 0.337198 0.767888 0.823924 0.103260
S4    S     S_3+6 0.605100 0.293210 0.210630 0.134551
S5    S     S_3+6 0.767730 0.662674 0.823893 0.103454
S6    S     S_3+6 0.293209 0.394899 0.210630 0.134594
S7    S     S_3+6 0.662794 0.232133 0.823920 0.103241
S8    S     S_3+6 0.394877 0.706807 0.210606 0.134615
S9    S     S_3+6 0.732075 0.162836 0.676069 0.103235
S10   S     S_3+6 0.206812 0.894876 0.289399 0.134601
S11   S     S_3+6 0.837318 0.732270 0.676108 0.103452
S12   S     S_3+6 0.706828 0.394851 0.789425 0.134502
S13   S     S_3+6 0.105079 0.206777 0.289347 0.134402
S14   S     S_3+6 0.267864 0.837209 0.676081 0.103266
S15   S     S_3+6 0.793209 0.105101 0.289370 0.134424
S16   S     S_3+6 0.162632 0.267678 0.676118 0.103485
S17   S     S_3+6 0.894939 0.793237 0.289326 0.134251
S18   S     S_3+6 0.732302 0.837349 0.323887 0.103476
S19   S     S_3+6 0.206747 0.105047 0.710694 0.134534
S20   S     S_3+6 0.837290 0.267773 0.323902 0.103326
S21   S     S_3+6 0.105145 0.793173 0.710577 0.134667
S22   S     S_3+6 0.267735 0.162680 0.323894 0.103443
S23   S     S_3+6 0.337280 0.232221 0.176098 0.103434
S24   S     S_3+6 0.793230 0.894927 0.710661 0.134548
S25   S     S_3+6 0.162754 0.732178 0.323911 0.103295
S26   S     S_3+6 0.894823 0.206847 0.710543 0.134911
S27   S     S_3+6 0.605076 0.706773 0.789342 0.134331
S28   S     S_3+6 0.767777 0.337282 0.176098 0.103334
S29   S     S_3+6 0.293161 0.605161 0.789441 0.134657
S30   S     S_3+6 0.662699 0.767760 0.176102 0.103449
S31   S     S_3+6 0.394993 0.293276 0.789265 0.133946
S32   S     S_3+6 0.232408 0.337440 0.823866 0.103556
Zn1   Zn    Zn3+2 0.086700 0.500000 0.219560 1.080936
Zn2   Zn    Zn3+2 0.413300 0.000000 0.280440 1.080898
Zn3   Zn    Zn3+2 0.000000 0.586700 0.719560 1.080872
Zn4   Zn    Zn3+2 0.000000 0.413300 0.280440 1.080950
Zn5   Zn    Zn3+2 0.413300 0.000000 0.719560 1.080974
Zn6   Zn    Zn3+2 0.586700 0.000000 0.280440 1.080914
Zn7   Zn    Zn3+2 0.000000 0.413300 0.719560 1.080832
Zn8   Zn    Zn3+2 0.000000 0.586700 0.280440 1.080965
Zn9   Zn    Zn3+2 0.913300 0.500000 0.780440 1.080888
Zn10  Zn    Zn3+2 0.500000 0.086700 0.219560 1.080901
Zn11  Zn    Zn3+2 0.500000 0.913300 0.780440 1.080988
Zn12  Zn    Zn3+2 0.913300 0.500000 0.219560 1.080931
Zn13  Zn    Zn3+2 0.086700 0.500000 0.780440 1.080882
Zn14  Zn    Zn3+2 0.500000 0.913300 0.219560 1.080887
Zn15  Zn    Zn3+2 0.500000 0.086700 0.780440 1.081027
Zn16  Zn    Zn3+2 0.586700 0.000000 0.719560 1.080959

loop_
_geom_bond_atom_site_label_1
_geom_bond_atom_site_label_2
_ccdc_geom_bond_type
O83   Zn15  S    
O61   Zn3   S    
C33   C45   S    
C41   O105  A    
C3    C79   A    
O70   Zn16  S    
C50   O64   A    
C68   C81   A    
H37   O36   S    
O44   S22   D    
O124  S32   D    
C19   H1    S    
C69   H48   S    
C37   C42   S    
H17   O123  S    
H42   O52   S    
C5    C88   A    
O52   S25   S    
O15   S13   D    
C23   C103  S    
C80   H4    S    
C47   C105  A    
C29   C108  S    
C60   O80   A    
O42   S21   S    
C64   O78   A    
C42   O116  A    
O11   S11   D    
O58   Zn11  S    
C41   O2    A    
C26   C105  S    
O1    Zn4   S    
C48   O57   A    
C61   O81   A    
O141  S6    D    
C30   C109  S    
C84   C100  A    
C44   O58   A    
O67   Zn8   S    
C85   C110  A    
C26   C38   T    
C87   C112  A    
C14   C97   A    
C4    C78   A    
C57   O82   A    
O16   S13   S    
O111  S28   D    
C8    C74   A    
C13   C21   A    
C58   C101  A    
H22   O140  S    
C36   C91   A    
O117  S29   S    
C31   C48   S    
C20   H34   S    
C5    C77   A    
C1    C101  A    
H38   O39   S    
C50   O92   A    
C87   S13   S    
C3    C50   S    
C4    C89   A    
O1    Zn8   S    
C34   C44   S    
O85   Zn15  S    
C2    H44   S    
C70   C79   A    
O76   Zn7   S    
O83   Zn5   S    
O19   S14   S    
C17   C109  A    
C63   O77   A    
O37   S20   D    
C72   S29   S    
C82   C111  A    
O123  S31   S    
C53   O67   A    
O82   Zn13  S    
O95   Zn15  S    
O20   S15   D    
C48   O62   A    
O27   S17   D    
C6    C92   A    
C98   S24   S    
O50   S25   D    
O126  S32   S    
C9    C65   S    
O103  S12   S    
H9    O100  S    
C81   S6    S    
O65   Zn6   S    
O61   Zn9   S    
C52   O90   A    
C21   H23   S    
C20   C108  A    
C65   O86   A    
O109  S27   D    
H28   O9    S    
C91   C105  A    
H18   O126  S    
O105  Zn7   S    
H24   O143  S    
O39   S20   S    
O59   Zn10  S    
O28   S17   D    
O118  S30   D    
O143  S6    S    
O2    Zn3   S    
O21   S15   D    
O71   Zn3   S    
C73   S30   S    
O114  S29   D    
O120  S30   S    
O68   Zn7   S    
O89   Zn10  S    
C53   O96   A    
H31   O19   S    
C35   C43   S    
O23   S16   D    
C70   S27   S    
O51   S25   D    
C59   O73   A    
C47   C80   A    
C13   C108  A    
C86   C98   A    
O72   Zn10  S    
O43   S22   D    
O94   Zn8   S    
O49   S24   S    
C69   C103  A    
C46   O60   A    
C4    C51   S    
O131  S3    D    
C38   C41   S    
O97   Zn13  S    
C39   C40   S    
O1    Zn1   S    
C27   C106  S    
C7    C90   A    
O104  S23   D    
C55   O93   A    
O101  S12   D    
C59   O84   A    
O133  S3    S    
C18   C106  A    
C85   C99   A    
O135  S4    D    
C81   C112  A    
C82   S7    S    
C15   C67   A    
O54   S26   D    
C83   C110  A    
O127  Zn16  S    
C68   S23   S    
C8    C64   S    
C76   S2    S    
C52   O66   A    
C77   S3    S    
O60   Zn13  S    
C78   S4    S    
O12   S11   S    
C61   O75   A    
O138  Zn4   S    
O17   S14   D    
O93   Zn14  S    
O83   Zn11  S    
O7    S10   D    
C12   C70   A    
C32   C46   S    
C21   C109  A    
C6    C76   A    
H13   O110  S    
C40   O94   A    
O77   Zn8   S    
H35   O29   S    
O24   Zn5   S    
O53   S26   D    
O25   S16   D    
C92   S17   S    
O1    Zn12  S    
O61   Zn13  S    
C96   S21   S    
C94   S19   S    
C58   H2    S    
C24   C39   T    
C13   H47   S    
O142  S6    D    
C10   C72   A    
O84   Zn12  S    
C88   C96   A    
O122  S31   D    
O119  S30   D    
C15   C100  A    
C93   S18   S    
O86   Zn14  S    
C45   O46   A    
C22   C101  S    
C80   C104  A    
O146  S7    S    
O91   Zn1   S    
C19   C102  A    
C11   C71   A    
H10   O103  S    
C17   C20   A    
H20   O133  S    
H21   O136  S    
C100  S26   S    
C66   C83   A    
C66   S1    S    
H26   O3    S    
C16   C63   S    
C56   C111  S    
C12   C98   A    
C30   C33   T    
O83   Zn16  S    
O73   Zn4   S    
C49   O63   A    
C3    C86   A    
C11   C59   S    
C90   C94   A    
C84   C111  A    
C60   O74   A    
O92   Zn9   S    
O125  S32   D    
O66   Zn5   S    
H30   O16   S    
C22   C37   T    
C29   C34   T    
C1    C69   A    
O112  S28   D    
C89   S15   S    
C89   C95   A    
O55   S26   S    
O35   Zn15  S    
O140  S5    S    
O6    S9    S    
O45   S22   S    
O96   Zn12  S    
C56   O70   A    
O110  S27   S    
H15   O117  S    
H43   O55   S    
C54   O68   A    
O9    S10   S    
C49   C112  S    
O130  S2    S    
C46   O56   A    
O90   Zn11  S    
O80   Zn11  S    
O74   Zn16  S    
C75   S32   S    
C16   C66   A    
H39   O42   S    
C88   S14   S    
O144  S7    D    
O57   Zn1   S    
C44   O35   A    
O22   S15   S    
C27   C32   T    
C28   C31   T    
O98   S1    D    
O79   Zn6   S    
O34   S19   D    
O145  S7    D    
O31   S18   D    
O61   Zn7   S    
O132  S3    D    
H41   O49   S    
O48   S24   D    
C99   S25   S    
O26   S16   S    
C92   C93   A    
C15   C62   S    
C91   H3    S    
C36   H8    S    
O81   Zn10  S    
O137  S5    D    
C49   O91   A    
H11   O107  S    
O134  S4    D    
O29   S17   S    
O121  S31   D    
C54   O97   A    
C14   C68   A    
O56   Zn9   S    
C79   S5    S    
C7    C54   S    
C95   S20   S    
O5    S9    D    
H36   O32   S    
O46   Zn14  S    
O63   Zn4   S    
O100  S1    S    
C2    C18   A    
O99   S1    D    
C55   O69   A    
C86   S11   S    
C63   O88   A    
O64   Zn3   S    
O36   S19   S    
C57   O71   A    
C28   C107  S    
O108  S27   D    
C2    C107  A    
O102  S12   D    
O78   Zn5   S    
C71   S28   S    
O38   S20   D    
O148  S8    D    
C85   S10   S    
O10   S11   D    
C64   O85   A    
O136  S4    S    
O116  Zn2   S    
C51   O65   A    
C5    C52   S    
C74   S31   S    
C97   S22   S    
C47   H7    S    
O75   Zn2   S    
C9    C73   A    
C102  H45   S    
O128  S2    D    
C43   O127  A    
H32   O22   S    
C83   S8    S    
C62   O76   A    
C74   C75   A    
H40   O45   S    
C10   C57   S    
O8    S10   D    
O30   S18   D    
C25   C103  A    
C7    C75   A    
C14   C61   S    
O113  S28   S    
O4    S9    D    
C24   C104  S    
H27   O6    S    
C72   C77   A    
O32   S18   S    
O106  S23   D    
H29   O12   S    
C10   C96   A    
O69   Zn2   S    
O72   Zn6   S    
C17   H46   S    
H14   O113  S    
O47   S24   D    
C55   C110  S    
C45   O59   A    
C25   C58   A    
C8    C94   A    
C9    C93   A    
O87   Zn9   S    
C90   S16   S    
O14   S13   D    
C11   C95   A    
O129  S2    D    
C67   S12   S    
H19   O130  S    
O33   S19   D    
O3    S8    S    
C42   O13   A    
C25   H5    S    
C16   C99   A    
O72   Zn14  S    
C43   O24   A    
C23   C35   T    
H33   O26   S    
C36   C104  A    
C40   O138  A    
O72   Zn2   S    
C84   S9    S    
O107  S23   S    
O62   Zn12  S    
O13   Zn6   S    
O18   S14   D    
C62   O87   A    
C73   C76   A    
H16   O120  S    
C102  C106  A    
C1    H6    S    
C51   O89   A    
O139  S5    D    
C12   C60   S    
C67   C82   A    
C56   O95   A    
C18   H12   S    
C65   O79   A    
O147  S8    D    
C6    C53   S    
O88   Zn1   S    
O115  S29   D    
O41   S21   D    
C71   C78   A    
H25   O146  S    
C19   C107  A    
O40   S21   D    
C87   C97   A    
