data_mof_unit_17604.cif
_audit_creation_date              2012-12-10T17:37:51-0500
_audit_creation_method            fapswitch 2.2
_symmetry_space_group_name_H-M    P1
_symmetry_Int_Tables_number       1
_space_group_crystal_system       triclinic
_cell_length_a                    12.312733
_cell_length_b                    13.173492
_cell_length_c                    17.158284
_cell_angle_alpha                 104.620252
_cell_angle_beta                  75.131111
_cell_angle_gamma                 116.563468
_cell_volume                      2375.26434323

loop_
_atom_site_label
_atom_site_type_symbol
_atom_type_description
_atom_site_fract_x
_atom_site_fract_y
_atom_site_fract_z
_atom_type_partial_charge
C1    C     C_R   0.144500 0.713560 0.506751 0.779028
C2    C     C_R   0.898538 0.535817 0.799860 -0.192007
C3    C     C_R   0.057499 0.648475 0.172530 -0.019566
C4    C     C_R   0.034088 0.627020 0.252721 -0.082582
C5    C     C_R   0.069475 0.452220 0.199795 -0.193877
C6    C     C_R   0.091396 0.473107 0.120655 -0.178798
C7    C     C_R   0.084900 0.570232 0.106732 0.022385
C8    C     C_2   0.991491 0.527891 0.989498 -0.277654
C9    C     C_2   0.095649 0.582564 0.022271 -0.138671
C10   C     C_R   0.038236 0.526966 0.265890 -0.076346
C11   C     C_R   0.733791 0.975507 0.391704 -0.174245
C12   C     C_R   0.987619 0.502829 0.652493 0.790478
C13   C     C_R   0.774316 0.164687 0.470942 -0.054298
C14   C     C_R   0.179250 0.916628 0.557508 -0.163596
C15   C     C_R   0.256591 0.032173 0.572454 -0.140097
C16   C     C_R   0.382413 0.069054 0.544268 -0.179564
C17   C     C_R   0.433359 0.990668 0.497206 0.081135
C18   C     C_R   0.351977 0.875367 0.473684 0.078514
C19   C     C_R   0.562249 0.023181 0.471915 0.075129
C20   C     C_R   0.606782 0.944295 0.417128 0.157822
C21   C     C_R   0.524104 0.836174 0.386812 -0.229294
C22   C     C_R   0.398594 0.802722 0.413646 -0.191258
C23   C     C_R   0.855898 0.286275 0.487926 0.802256
C24   C     C_R   0.648573 0.131572 0.500185 -0.248033
C25   C     C_R   0.817298 0.085640 0.418032 -0.187331
C26   C     C_R   0.225901 0.836674 0.510193 -0.095435
C27   C     C_R   0.642556 0.674270 0.630232 -0.286772
C28   C     C_R   0.249551 0.352104 0.389564 0.080395
C29   C     C_R   0.347925 0.319698 0.365841 -0.245482
C30   C     C_R   0.447967 0.375432 0.407397 -0.190815
C31   C     C_R   0.450698 0.464762 0.473726 -0.006230
C32   C     C_R   0.347307 0.494608 0.496049 0.283660
C33   C     C_R   0.551345 0.525198 0.518842 -0.037285
C34   C     C_R   0.016273 0.503053 0.348491 0.784601
C35   C     C_R   0.546125 0.613601 0.584967 0.168908
C36   C     C_R   0.444591 0.640905 0.605868 -0.268703
C37   C     C_R   0.347438 0.582591 0.562641 -0.188280
C38   C     C_R   0.657749 0.502220 0.501643 0.029592
C39   C     C_R   0.744168 0.647311 0.610254 0.079077
C40   C     C_R   0.984009 0.504836 0.738854 -0.037785
C41   C     C_R   0.068522 0.477026 0.760918 -0.191073
C42   C     C_R   0.069777 0.483024 0.842556 -0.097239
C43   C     C_R   0.988045 0.518727 0.903327 0.202431
C44   C     C_R   0.900148 0.541946 0.881902 -0.135446
Cu1   Cu    Cu3+1 0.900140 0.524980 0.518800 0.950195
Cu2   Cu    Cu3+1 0.099860 0.475020 0.481200 0.925827
H1    H     H_    0.134421 0.451278 0.715241 0.158171
H2    H     H_    0.111767 0.412591 0.069845 0.145239
H3    H     H_    0.914601 0.110261 0.394599 0.154255
H4    H     H_    0.556555 0.776958 0.342147 0.151746
H5    H     H_    0.768264 0.915727 0.349721 0.149187
H6    H     H_    0.620574 0.192977 0.544720 0.149293
H7    H     H_    0.082918 0.889530 0.584719 0.155724
H8    H     H_    0.436597 0.159925 0.558733 0.130275
H9    H     H_    0.219317 0.093242 0.608378 0.144102
H10   H     H_    0.338985 0.720278 0.384753 0.178133
H11   H     H_    0.819051 0.693773 0.644872 0.122242
H12   H     H_    0.439825 0.708152 0.656577 0.168805
H13   H     H_    0.639241 0.742025 0.680810 0.148289
H14   H     H_    0.669757 0.436796 0.452478 0.124157
H15   H     H_    0.172211 0.308293 0.357041 0.126127
H16   H     H_    0.521483 0.346745 0.386434 0.139256
H17   H     H_    0.346617 0.251114 0.315086 0.154069
H18   H     H_    0.273964 0.609585 0.584125 0.211414
H19   H     H_    0.074446 0.376334 0.209466 0.144610
H20   H     H_    0.834910 0.567252 0.928656 0.137213
H21   H     H_    0.831783 0.556651 0.784336 0.154397
H22   H     H_    0.904537 0.484083 0.027543 0.163836
H23   H     H_    0.135347 0.460935 0.858441 0.122275
N1    N     N_R   0.749710 0.562810 0.547300 -0.179903
N2    N     N_R   0.249640 0.437820 0.453210 -0.208303
O1    O     O_R   0.025490 0.682370 0.523640 -0.569551
O2    O     O_R   0.194150 0.640180 0.491890 -0.607710
O3    O     O_R   0.905900 0.523560 0.631310 -0.585304
O4    O     O_R   0.074570 0.481370 0.599560 -0.603106
O5    O     O_R   0.805850 0.359820 0.508110 -0.587713
O6    O     O_R   0.974510 0.317630 0.476360 -0.585795
O7    O     O_R   0.925430 0.518630 0.400440 -0.573646
O8    O     O_R   0.094100 0.476440 0.368690 -0.592360
C45   C     C_1   0.009890 0.709466 0.320949 0.247559
N3    N     N_1   0.990637 0.775317 0.375268 -0.271424
C46   C     C_2   0.216171 0.660625 0.980392 0.897765
O9    O     O_2   0.218553 0.711029 0.928806 -0.534442
O10   O     O_R   0.327874 0.681218 0.001000 -0.733970
H24   H     H_    0.318736 0.633618 0.042156 0.294988
C47   C     C_1   0.051435 0.749155 0.157412 0.245186
N4    N     N_1   0.046590 0.829449 0.145305 -0.268758

loop_
_geom_bond_atom_site_label_1
_geom_bond_atom_site_label_2
_ccdc_geom_bond_type
C24   H6    S    
C38   N1    A    
C12   O3    A    
C41   C42   A    
C44   H20   S    
C35   C36   A    
C18   C26   A    
C8    C43   S    
C23   O5    A    
C29   H17   S    
Cu1   Cu2   S    
C6    H2    S    
Cu1   O5    S    
C5    C6    A    
C36   C37   A    
C4    C45   S    
C36   H12   S    
C30   C31   A    
C11   C25   A    
C15   C16   A    
C39   H11   S    
C13   C23   S    
C21   H4    S    
C17   C19   A    
C19   C20   A    
C2    C44   A    
C16   C17   A    
C31   C33   A    
Cu1   O7    S    
C9    C46   S    
C28   H15   S    
C21   C22   A    
Cu1   O1    S    
C13   C25   A    
Cu2   O4    S    
C32   N2    A    
C16   H8    S    
C11   C20   A    
C1    O1    A    
O10   H24   S    
C5    H19   S    
C2    H21   S    
C27   C39   A    
C47   N4    T    
C8    C9    D    
C22   H10   S    
C27   C35   A    
C42   H23   S    
C14   C26   A    
C13   C24   A    
Cu1   O3    S    
C15   H9    S    
C12   C40   S    
C43   C44   A    
C29   C30   A    
C34   O8    A    
C31   C32   A    
C17   C18   A    
C41   H1    S    
C10   C34   S    
C32   C37   A    
C23   O6    A    
Cu2   N2    S    
C38   H14   S    
C40   C41   A    
C8    H22   S    
C46   O10   S    
C30   H16   S    
C1    C26   S    
C28   N2    A    
C42   C43   A    
C4    C10   A    
C3    C4    A    
C37   H18   S    
C7    C9    S    
C28   C29   A    
Cu1   N1    S    
C18   C22   A    
C45   N3    T    
Cu2   O6    S    
C6    C7    A    
C3    C7    A    
C33   C38   A    
C1    O2    A    
C19   C24   A    
C5    C10   A    
C27   H13   S    
C34   O7    A    
Cu2   O8    S    
C33   C35   A    
C39   N1    A    
C25   H3    S    
C11   H5    S    
C2    C40   A    
C14   H7    S    
C20   C21   A    
C46   O9    D    
C12   O4    A    
C14   C15   A    
Cu2   O2    S    
C3    C47   S    
