data_mof_unit_52570.cif
_audit_creation_date              2012-12-10T18:57:11-0500
_audit_creation_method            fapswitch 2.2
_symmetry_space_group_name_H-M    P1
_symmetry_Int_Tables_number       1
_space_group_crystal_system       triclinic
_cell_length_a                    8.769081
_cell_length_b                    10.83856
_cell_length_c                    9.549178
_cell_angle_alpha                 89.298432
_cell_angle_beta                  97.441417
_cell_angle_gamma                 90.790022
_cell_volume                      899.814532726

loop_
_atom_site_label
_atom_site_type_symbol
_atom_type_description
_atom_site_fract_x
_atom_site_fract_y
_atom_site_fract_z
_atom_type_partial_charge
C1    C     C_R   0.502742 0.262335 0.501217 0.795502
C2    C     C_R   0.555019 0.938046 0.385304 -0.167632
C3    C     C_R   0.510589 0.870997 0.500366 -0.096182
C4    C     C_R   0.486782 0.934170 0.621563 0.086009
C5    C     C_3   0.352937 0.927340 0.703364 -0.486496
C6    C     C_3   0.367554 0.066512 0.716613 -0.008510
C7    C     C_R   0.616853 0.556700 0.086726 0.240895
C8    C     C_R   0.391664 0.436216 0.062407 -0.026788
C9    C     C_R   0.391461 0.436575 0.913634 -0.038632
C10   C     C_R   0.617443 0.555433 0.939191 0.235630
C11   C     C_3   0.663525 0.687664 0.933737 -0.487111
C12   C     C_R   0.204189 0.500964 0.465007 0.878799
C13   C     C_3   0.657328 0.691295 0.091417 -0.074732
C14   C     C_R   0.500585 0.737666 0.499343 0.818982
C15   C     C_R   0.795244 0.504590 0.535815 0.896853
C16   C     C_2   0.039025 0.495479 0.449589 -0.369696
C17   C     C_2   0.958706 0.520483 0.556899 -0.015303
C18   C     C_R   0.494502 0.061145 0.626229 0.137258
C19   C     C_R   0.516836 0.129276 0.504956 -0.138102
C20   C     C_R   0.557116 0.066717 0.387079 -0.174024
Cu1   Cu    Cu3+1 0.499990 0.499980 0.640670 0.962572
Cu2   Cu    Cu3+1 0.500010 0.500020 0.359330 0.973236
H1    H     H_    0.981145 0.465485 0.347880 0.173218
H2    H     H_    0.303154 0.385572 0.848160 0.146296
H3    H     H_    0.780741 0.699419 0.902716 0.232208
H4    H     H_    0.574937 0.745693 0.873055 0.205056
H5    H     H_    0.561015 0.748045 0.118298 0.163466
H6    H     H_    0.584644 0.116714 0.294490 0.197001
H7    H     H_    0.582903 0.892006 0.292537 0.183282
H8    H     H_    0.245366 0.897023 0.637370 0.184514
H9    H     H_    0.378001 0.876515 0.804968 0.218250
H10   H     H_    0.265041 0.117162 0.666127 0.138610
H11   H     H_    0.302890 0.385536 0.108197 0.156517
N1    N     N_R   0.500980 0.500930 0.148050 -0.208914
N2    N     N_R   0.500990 0.500890 0.852140 -0.191822
O1    O     O_R   0.500000 0.319640 0.618810 -0.564956
O2    O     O_R   0.500020 0.319680 0.381230 -0.581825
O3    O     O_R   0.274830 0.499980 0.591380 -0.599448
O4    O     O_R   0.274850 0.500020 0.353800 -0.576709
O5    O     O_R   0.499980 0.680320 0.618770 -0.591127
O6    O     O_R   0.500000 0.680360 0.381190 -0.580748
O7    O     O_R   0.725150 0.499980 0.646200 -0.561546
O8    O     O_R   0.725170 0.500020 0.408620 -0.585589
I1    I     I_    0.876638 0.732256 0.208636 -0.393554
N3    N     N_3   0.025131 0.569238 0.691077 -0.572922
H12   H     H_    0.087326 0.500761 0.750263 0.242609
H13   H     H_    0.094144 0.646459 0.675744 0.244482
I2    I     I_    0.454556 0.118090 0.928259 -0.418879

loop_
_geom_bond_atom_site_label_1
_geom_bond_atom_site_label_2
_ccdc_geom_bond_type
C8    C9    A    
C7    C10   A    
C6    H10   S    
C9    H2    S    
C10   N2    A    
Cu1   N2    S    
Cu2   O8    S    
C1    O2    A    
C4    C18   A    
C12   O4    A    
C2    C3    A    
C15   O8    A    
Cu1   O1    S    
C8    N1    A    
N3    H12   S    
C11   C13   S    
C3    C14   S    
C6    I2    S    
C14   O6    A    
C6    C18   S    
Cu2   O4    S    
C17   N3    S    
C18   C19   A    
C16   H1    S    
C8    H11   S    
N3    H13   S    
C12   O3    A    
C5    C6    S    
Cu2   N1    S    
C7    N1    A    
C1    C19   S    
Cu2   O6    S    
C10   C11   S    
C11   H3    S    
C2    C20   A    
C3    C4    A    
C12   C16   S    
C7    C13   S    
C2    H7    S    
C15   O7    A    
C15   C17   S    
C5    H8    S    
C9    N2    A    
C4    C5    S    
Cu1   O7    S    
C20   H6    S    
C11   H4    S    
Cu1   Cu2   S    
Cu2   O2    S    
C14   O5    A    
C13   I1    S    
C13   H5    S    
Cu1   O3    S    
C19   C20   A    
C1    O1    A    
C16   C17   D    
C5    H9    S    
Cu1   O5    S    
