data_mof_unit_26412.cif
_audit_creation_date              2012-10-26T18:47:38-0400
_audit_creation_method            fapswitch 2.2
_symmetry_space_group_name_H-M    P1
_symmetry_Int_Tables_number       1
_space_group_crystal_system       triclinic
_cell_length_a                    10.932898
_cell_length_b                    12.999561
_cell_length_c                    11.702075
_cell_angle_alpha                 100.764843
_cell_angle_beta                  93.910157
_cell_angle_gamma                 92.4236
_cell_volume                      1627.49071011

loop_
_atom_site_label
_atom_site_type_symbol
_atom_type_description
_atom_site_fract_x
_atom_site_fract_y
_atom_site_fract_z
_atom_type_partial_charge
Br1   Br    Br    0.687157 0.704834 0.804184 -0.480302
Br2   Br    Br    0.312843 0.295166 0.195816 -0.480302
Br3   Br    Br    0.105705 0.368272 0.945574 -0.567119
Br4   Br    Br    0.894295 0.631728 0.054426 -0.567119
C1    C     C_R   0.498732 0.298872 0.477945 0.557571
C2    C     C_R   0.492028 0.987063 0.654909 -0.121539
C3    C     C_R   0.506249 0.121192 0.355405 -0.105022
C4    C     C_R   0.493751 0.878808 0.644594 -0.105022
C5    C     C_R   0.494805 0.140067 0.564932 -0.125876
C6    C     C_R   0.505194 0.859933 0.435068 -0.125876
C7    C     C_R   0.496713 0.032026 0.555399 0.047743
C8    C     C_R   0.503287 0.967974 0.444601 0.047743
C9    C     C_R   0.413137 0.380868 0.016432 -0.121248
C10   C     C_R   0.586862 0.619132 0.983568 -0.121248
C11   C     C_R   0.413569 0.395642 0.138521 0.313845
C12   C     C_R   0.501268 0.701128 0.522055 0.557572
C13   C     C_R   0.586430 0.604358 0.861478 0.313845
C14   C     C_R   0.534995 0.554162 0.159404 0.016169
C15   C     C_R   0.465004 0.445838 0.840596 0.016169
C16   C     C_R   0.262173 0.502319 0.499798 0.552653
C17   C     C_R   0.737827 0.497681 0.500201 0.552653
C18   C     C_R   0.530330 0.544096 0.036150 -0.046797
C19   C     C_R   0.469670 0.455904 0.963850 -0.046797
C20   C     C_R   0.220191 0.644653 0.182414 -0.095728
C21   C     C_R   0.779809 0.355347 0.817586 -0.095728
C22   C     C_R   0.171502 0.629153 0.285787 -0.040591
C23   C     C_R   0.871789 0.495777 0.501640 0.001573
C24   C     C_R   0.828498 0.370847 0.714213 -0.040591
C25   C     C_R   0.103091 0.535791 0.288579 0.039799
C26   C     C_R   0.896909 0.464208 0.711421 0.039799
C27   C     C_R   0.081104 0.459798 0.185967 -0.006334
C28   C     C_R   0.918896 0.540202 0.814033 -0.006334
C29   C     C_R   0.130627 0.475129 0.082866 0.206601
C30   C     C_R   0.869373 0.524871 0.917134 0.206601
C31   C     C_R   0.199961 0.567750 0.081129 -0.048673
C32   C     C_R   0.800039 0.432250 0.918871 -0.048673
C33   C     C_R   0.926723 0.511659 0.401320 -0.139537
C34   C     C_R   0.128211 0.504223 0.498359 0.001573
C35   C     C_R   0.073276 0.488341 0.598680 -0.139537
C36   C     C_R   0.946328 0.483038 0.601746 -0.025021
C37   C     C_R   0.053672 0.516962 0.398253 -0.025021
C38   C     C_R   0.500569 0.814881 0.534748 0.006921
C39   C     C_R   0.499431 0.185119 0.465252 0.006920
C40   C     C_R   0.507972 0.012937 0.345091 -0.121539
Cu1   Cu    Cu3+1 0.509250 0.507730 0.615930 1.001097
Cu2   Cu    Cu3+1 0.490750 0.492270 0.384070 1.001097
H1    H     H_    0.238349 0.579993 0.001562 0.136603
H2    H     H_    0.811530 0.311078 0.636087 0.112928
H3    H     H_    0.027953 0.387755 0.186853 0.155664
H4    H     H_    0.972047 0.612245 0.813147 0.155664
H5    H     H_    0.870584 0.522537 0.324853 0.159476
H6    H     H_    0.129416 0.477463 0.675147 0.159476
H7    H     H_    0.510402 0.811140 0.349751 0.116629
H8    H     H_    0.489598 0.188860 0.650249 0.116629
H9    H     H_    0.488785 0.845259 0.722260 0.167693
H10   H     H_    0.511215 0.154741 0.277740 0.167693
H11   H     H_    0.513312 0.964529 0.259664 0.118964
H12   H     H_    0.761651 0.420007 0.998438 0.136603
H13   H     H_    0.486688 0.035471 0.740336 0.118964
H14   H     H_    0.414494 0.379421 0.785323 0.135961
H15   H     H_    0.585505 0.620579 0.214677 0.135961
H16   H     H_    0.365345 0.312040 0.962828 0.165507
H17   H     H_    0.634655 0.687959 0.037172 0.165507
H18   H     H_    0.274160 0.716078 0.180959 0.112851
H19   H     H_    0.725840 0.283922 0.819040 0.112851
H20   H     H_    0.188470 0.688922 0.363913 0.112928
N1    N     N_R   0.523180 0.519350 0.790130 -0.227629
N2    N     N_R   0.476820 0.480650 0.209870 -0.227629
O1    O     O_R   0.506570 0.354460 0.582000 -0.532062
O2    O     O_R   0.493430 0.645540 0.418000 -0.532062
O3    O     O_R   0.490940 0.341410 0.386200 -0.461954
O4    O     O_R   0.509060 0.658590 0.613800 -0.461954
O5    O     O_R   0.327460 0.506540 0.597900 -0.514403
O6    O     O_R   0.672540 0.493460 0.402100 -0.514403
O7    O     O_R   0.311830 0.493480 0.402100 -0.466415
O8    O     O_R   0.688170 0.506520 0.597900 -0.466415

loop_
_geom_bond_atom_site_label_1
_geom_bond_atom_site_label_2
_ccdc_geom_bond_type
C6    C38   A    
C12   O4    A    
C31   H1    S    
Cu1   Cu2   S    
C21   C24   A    
C17   O8    A    
Cu1   O8    S    
C4    C38   A    
C32   H12   S    
C34   C35   A    
C33   H5    S    
C10   H17   S    
C14   N2    A    
C9    C19   A    
Cu1   O5    S    
C6    H7    S    
C1    O1    A    
C9    H16   S    
Cu1   N1    S    
C27   C29   A    
C15   N1    A    
C3    C39   A    
C40   H11   S    
C35   H6    S    
C1    C39   S    
C20   H18   S    
Cu1   O4    S    
C10   C13   A    
C3    H10   S    
C27   H3    S    
C4    H9    S    
Cu2   O7    S    
Br4   C30   S    
C5    C39   A    
C20   C31   A    
C13   N1    A    
Cu1   O1    S    
C22   H20   S    
C12   O2    A    
C34   C37   A    
C2    C7    A    
C2    C4    A    
C17   O6    A    
C16   O7    A    
C28   C30   A    
C15   C19   A    
Cu2   N2    S    
C16   C34   S    
C23   C36   A    
C26   C36   S    
C3    C40   A    
Br2   C11   S    
C5    C7    A    
C28   H4    S    
Cu2   O3    S    
C6    C8    A    
C9    C11   A    
C17   C23   S    
C12   C38   S    
Cu2   O6    S    
C24   H2    S    
C25   C37   S    
C14   C18   A    
C2    H13   S    
C20   C22   A    
C7    C8    A    
C14   H15   S    
C15   H14   S    
Br1   C13   S    
C10   C18   A    
C24   C26   A    
C1    O3    A    
C26   C28   A    
C23   C33   A    
C11   N2    A    
C29   C31   A    
C16   O5    A    
C30   C32   A    
C33   C37   A    
Cu2   O2    S    
C21   C32   A    
C35   C36   A    
C22   C25   A    
C25   C27   A    
C21   H19   S    
Br3   C29   S    
C18   C19   A    
C8    C40   A    
C5    H8    S    
