data_mof_unit_53857.cif
_audit_creation_date              2012-12-10T17:26:17-0500
_audit_creation_method            fapswitch 2.2
_symmetry_space_group_name_H-M    P1
_symmetry_Int_Tables_number       1
_space_group_crystal_system       triclinic
_cell_length_a                    10.193205
_cell_length_b                    10.50996
_cell_length_c                    27.486744
_cell_angle_alpha                 90.804081
_cell_angle_beta                  80.846794
_cell_angle_gamma                 94.981338
_cell_volume                      2896.1836212

loop_
_atom_site_label
_atom_site_type_symbol
_atom_type_description
_atom_site_fract_x
_atom_site_fract_y
_atom_site_fract_z
_atom_type_partial_charge
C1    C     C_R   0.554861 0.734269 0.494298 0.887756
C2    C     C_R   0.622454 0.575004 0.117460 -0.078163
C3    C     C_R   0.505140 0.530506 0.645687 -0.190993
C4    C     C_R   0.503767 0.505349 0.352870 -0.184459
C5    C     C_R   0.612718 0.628126 0.017345 0.051790
C6    C     C_R   0.369686 0.587948 0.980162 0.050375
C7    C     C_R   0.373194 0.556430 0.030100 -0.003354
C8    C     C_R   0.607632 0.662249 0.967911 -0.004183
C9    C     C_R   0.494545 0.582823 0.048926 0.069487
C10   C     C_R   0.488894 0.629496 0.948601 0.068627
C11   C     C_R   0.735038 0.626515 0.034740 -0.230042
C12   C     C_R   0.445191 0.265520 0.500534 0.883414
C13   C     C_R   0.249291 0.587569 0.961188 -0.229627
C14   C     C_R   0.741256 0.605429 0.084010 0.000010
C15   C     C_R   0.247900 0.589699 0.910714 0.003635
C16   C     C_R   0.500333 0.502932 0.593829 0.909897
C17   C     C_R   0.500264 0.499024 0.406070 0.891981
C18   C     C_R   0.714245 0.733019 0.937270 -0.065497
C19   C     C_R   0.264292 0.488698 0.060888 -0.059593
C20   C     C_2   0.581880 0.869978 0.483654 -0.208602
C21   C     C_2   0.418308 0.129276 0.492466 -0.215177
C22   C     C_2   0.499112 0.929372 0.458943 -0.068417
C23   C     C_R   0.488890 0.638111 0.897289 -0.067779
C24   C     C_2   0.503040 0.067786 0.458710 -0.066380
C25   C     C_2   0.926657 0.511191 0.504390 -0.041421
C26   C     C_2   0.071576 0.485267 0.497461 -0.040190
C27   C     C_R   0.610418 0.660453 0.814296 0.516560
C28   C     C_R   0.384339 0.522716 0.182577 0.507675
C29   C     C_R   0.378786 0.588867 0.826656 0.577630
C30   C     C_R   0.621690 0.554579 0.168109 0.591058
C31   C     C_R   0.527069 0.461321 0.727714 0.529902
C32   C     C_R   0.552218 0.628957 0.277201 0.543932
C33   C     C_R   0.524292 0.433139 0.677804 -0.171149
C34   C     C_R   0.499124 0.560256 0.099344 -0.070910
C35   C     C_R   0.559331 0.617494 0.327304 -0.167040
C36   C     C_R   0.488115 0.655969 0.663305 -0.083187
C37   C     C_R   0.454660 0.399299 0.327113 -0.084352
C38   C     C_R   0.488762 0.683130 0.713281 -0.066335
C39   C     C_R   0.459425 0.406961 0.275908 -0.051512
C40   C     C_R   0.506384 0.585543 0.745284 0.150228
C41   C     C_R   0.504926 0.522957 0.251272 0.123252
C42   C     C_1   0.469062 0.757198 0.630380 0.227914
C43   C     C_1   0.403837 0.280930 0.352474 0.206200
C44   C     C_1   0.307381 0.061585 0.523950 0.222229
C45   C     C_R   0.608102 0.677333 0.865395 -0.075353
C46   C     C_1   0.690183 0.939472 0.503755 0.220619
C47   C     C_1   0.116252 0.382633 0.465420 0.286411
C48   C     C_1   0.878815 0.607406 0.539226 0.285452
C49   C     C_1   0.468890 0.810444 0.732460 0.252393
C50   C     C_1   0.420149 0.295515 0.248189 0.256511
C51   C     C_1   0.832682 0.799961 0.855308 0.315007
C52   C     C_1   0.148277 0.417075 0.142645 0.326542
C53   C     C_1   0.628428 0.720203 0.351314 0.262766
C54   C     C_1   0.535043 0.303221 0.660350 0.247285
C55   C     C_3   0.494489 0.820486 0.254827 -0.255209
C56   C     C_R   0.380223 0.522971 0.131657 -0.076268
C57   C     C_3   0.671612 0.348601 0.760809 -0.242650
C58   C     C_1   0.872285 0.620579 0.098281 0.290608
C59   C     C_1   0.118986 0.578631 0.894659 0.283269
C60   C     C_1   0.809300 0.819984 0.958211 0.155467
C61   C     C_1   0.162577 0.408957 0.040381 0.155570
C62   C     C_1   0.606872 0.133212 0.423154 0.250786
C63   C     C_1   0.398982 0.861537 0.433813 0.238156
C64   C     C_R   0.718072 0.734166 0.885875 -0.045909
C65   C     C_R   0.263998 0.481012 0.111928 -0.045355
C66   C     C_R   0.369914 0.604839 0.877907 -0.068934
H1    H     H_    0.124822 0.624624 0.542619 0.175789
H2    H     H_    0.678147 0.271318 0.787184 0.204976
H3    H     H_    0.876828 0.380695 0.455062 0.177867
H4    H     H_    0.828541 0.637574 0.009751 0.151388
H5    H     H_    0.154674 0.586792 0.985433 0.152148
H6    H     H_    0.455300 0.845551 0.293600 0.165549
H7    H     H_    0.412557 0.775275 0.236402 0.178103
H8    H     H_    0.532628 0.910789 0.235059 0.208798
H9    H     H_    0.725467 0.436422 0.773319 0.192807
H10   H     H_    0.721970 0.319200 0.723980 0.163140
N1    N     N_R   0.498666 0.611431 0.796820 -0.327720
N2    N     N_1   0.841303 0.684694 0.567203 -0.192409
N3    N     N_1   0.453071 0.912042 0.747805 -0.155908
N4    N     N_1   0.388858 0.206592 0.226051 -0.193448
N5    N     N_1   0.924211 0.852533 0.831156 -0.139618
N6    N     N_1   0.056010 0.366057 0.166911 -0.119967
N7    N     N_1   0.685398 0.802259 0.369938 -0.188517
N8    N     N_1   0.543603 0.199416 0.646350 -0.170822
N9    N     N_1   0.977373 0.633839 0.109440 -0.170214
N10   N     N_1   0.015531 0.569542 0.882052 -0.174396
N11   N     N_1   0.884926 0.889564 0.974733 -0.174234
N12   N     N_R   0.503726 0.533976 0.199344 -0.335666
N13   N     N_1   0.081588 0.345009 0.024299 -0.176502
N14   N     N_1   0.689702 0.185012 0.394793 -0.175310
N15   N     N_1   0.319149 0.807811 0.413744 -0.184631
N16   N     N_2   0.842700 0.448890 0.480020 -0.207226
N17   N     N_2   0.157300 0.551110 0.519980 -0.207856
N18   N     N_1   0.453439 0.838558 0.604509 -0.187262
N19   N     N_1   0.363019 0.185566 0.372038 -0.192926
N20   N     N_1   0.218810 0.007447 0.549075 -0.162098
N21   N     N_1   0.776621 0.995000 0.519823 -0.164396
N22   N     N_1   0.150058 0.299526 0.439756 -0.188394
O1    O     O_R   0.431060 0.692470 0.504020 -0.598184
O2    O     O_2   0.270496 0.513150 0.215436 -0.546084
O3    O     O_2   0.736850 0.555371 0.186470 -0.514487
O4    O     O_2   0.270342 0.547816 0.806506 -0.533247
O5    O     O_3   0.600223 0.741405 0.252444 -0.580251
O6    O     O_3   0.535829 0.365205 0.760678 -0.594463
O7    O     O_R   0.568940 0.307530 0.495980 -0.601342
O8    O     O_R   0.651120 0.659650 0.491200 -0.600621
O9    O     O_R   0.348880 0.340350 0.508800 -0.600525
O10   O     O_R   0.389980 0.516390 0.577660 -0.597140
O11   O     O_R   0.610020 0.483610 0.422340 -0.599289
O12   O     O_R   0.610040 0.483570 0.564830 -0.605298
O13   O     O_R   0.389960 0.516430 0.435170 -0.603380
O14   O     O_2   0.723332 0.688844 0.782107 -0.563183
Zn1   Zn    Zn3+2 0.353060 0.521910 0.508560 0.987464
Zn2   Zn    Zn3+2 0.646940 0.478090 0.491440 0.986626

loop_
_geom_bond_atom_site_label_1
_geom_bond_atom_site_label_2
_ccdc_geom_bond_type
C34   C56   A    
C23   C45   A    
C35   C53   S    
C36   C42   S    
C18   C64   A    
C1    O1    A    
C54   N8    T    
C28   C56   A    
C11   H4    S    
C16   O12   A    
C39   C41   A    
C38   C49   S    
C47   N22   T    
O8    Zn2   S    
C57   H10   S    
C5    C11   A    
C12   O7    A    
C11   C14   A    
C3    C33   A    
C56   C65   A    
C55   O5    S    
C31   C40   A    
C48   N2    T    
C57   O6    S    
O9    Zn1   S    
C22   C63   S    
C55   H8    S    
C3    C16   S    
C1    C20   S    
C28   N12   A    
C43   N19   T    
C32   C41   A    
C31   C33   A    
H3    N16   S    
C51   N5    T    
C55   H6    S    
C1    O8    A    
C27   C45   A    
C26   N17   D    
C4    C35   A    
C17   O13   A    
C60   N11   T    
C61   N13   T    
C14   C58   S    
C32   C35   A    
O7    Zn2   S    
C13   H5    S    
C25   C26   S    
C15   C66   A    
C12   C21   S    
C8    C18   A    
C49   N3    T    
C17   O11   A    
O10   Zn1   S    
C37   C43   S    
C5    C9    A    
C44   N20   T    
C5    C8    A    
C21   C44   S    
C32   O5    S    
O13   Zn1   S    
N17   Zn1   S    
C52   N6    T    
C25   C48   S    
O11   Zn2   S    
C4    C17   S    
C26   C47   S    
C18   C60   S    
C46   N21   T    
C20   C22   D    
C27   O14   S    
C7    C19   A    
C13   C15   A    
C9    C34   A    
C22   C24   S    
C57   H2    S    
C30   N12   A    
C58   N9    T    
C23   C66   A    
C33   C54   S    
C7    C9    A    
C41   N12   S    
O12   Zn2   S    
C25   N16   D    
C24   C62   S    
C2    C34   A    
C42   N18   T    
C15   C59   S    
C51   C64   S    
C27   N1    A    
C50   N4    T    
O1    Zn1   S    
C12   O9    A    
C6    C7    A    
C10   C23   A    
C45   C64   A    
C2    C30   A    
C53   N7    T    
C31   O6    S    
C57   H9    S    
C36   C38   A    
C59   N10   T    
C37   C39   A    
C6    C13   A    
C38   C40   A    
C28   O2    S    
C3    C36   A    
C19   C61   S    
C62   N14   T    
C30   O3    S    
C29   O4    S    
C19   C65   A    
C2    C14   A    
C6    C10   A    
C16   O10   A    
C29   C66   A    
C55   H7    S    
C39   C50   S    
C29   N1    A    
C4    C37   A    
C8    C10   A    
C21   C24   D    
C63   N15   T    
H1    N17   S    
C40   N1    S    
N16   Zn2   S    
C20   C46   S    
C52   C65   S    
