data_mof_unit_63361.cif
_audit_creation_date              2012-12-10T21:42:33-0500
_audit_creation_method            fapswitch 2.2
_symmetry_space_group_name_H-M    P1
_symmetry_Int_Tables_number       1
_space_group_crystal_system       triclinic
_cell_length_a                    10.789761
_cell_length_b                    16.200161
_cell_length_c                    16.727598
_cell_angle_alpha                 86.500322
_cell_angle_beta                  92.577255
_cell_angle_gamma                 92.312361
_cell_volume                      2913.43642678

loop_
_atom_site_label
_atom_site_type_symbol
_atom_type_description
_atom_site_fract_x
_atom_site_fract_y
_atom_site_fract_z
_atom_type_partial_charge
C1    C     C_R   0.495126 0.488220 0.652799 0.941353
C2    C     C_R   0.506173 0.511715 0.347115 0.975499
C3    C     C_R   0.127486 0.497747 0.498738 -0.100170
C4    C     C_R   0.872241 0.502015 0.492426 -0.106188
C5    C     C_R   0.057640 0.427071 0.525412 0.082319
C6    C     C_R   0.942008 0.572323 0.462757 0.034007
C7    C     C_R   0.474189 0.480655 0.738147 -0.253835
C8    C     C_R   0.535626 0.519715 0.262649 -0.229833
C9    C     C_R   0.383319 0.529265 0.768866 0.091360
C10   C     C_R   0.629389 0.470640 0.235317 0.022657
C11   C     C_R   0.378680 0.535055 0.851816 0.189285
C12   C     C_R   0.652539 0.473579 0.153099 0.171810
C13   C     C_R   0.468060 0.495886 0.902506 0.141507
C14   C     C_R   0.576658 0.520499 0.099658 0.206560
C15   C     C_R   0.549885 0.441804 0.871969 -0.336592
C16   C     C_R   0.493922 0.575247 0.127963 -0.367748
C17   C     C_R   0.550066 0.430594 0.789611 0.472333
C18   C     C_R   0.474912 0.577757 0.210074 0.471489
C19   C     C_R   0.468835 0.765030 0.445949 0.424017
C20   C     C_R   0.548850 0.236093 0.547555 0.419415
C21   C     C_R   0.476483 0.853053 0.445737 0.341183
C22   C     C_R   0.538966 0.148179 0.548305 0.332253
C23   C     C_R   0.739782 0.500687 0.496856 0.863717
C24   C     C_R   0.260096 0.499469 0.500582 0.842714
C25   C     C_R   0.524950 0.891179 0.514903 0.096673
C26   C     C_R   0.476944 0.110066 0.483055 0.112328
C27   C     C_R   0.568141 0.840167 0.579651 -0.484144
C28   C     C_R   0.414581 0.160676 0.424955 -0.516163
C29   C     C_R   0.562843 0.753507 0.576731 0.537204
C30   C     C_R   0.416016 0.248106 0.429772 0.564360
C31   C     C_R   0.745408 0.716071 0.327399 -0.170432
C32   C     C_R   0.203884 0.271877 0.674157 -0.174544
C33   C     C_R   0.795319 0.644810 0.364488 -0.161941
C34   C     C_R   0.161110 0.345963 0.638634 -0.240477
C35   C     C_R   0.887569 0.649942 0.426142 -0.014044
C36   C     C_R   0.111381 0.349279 0.559791 0.009584
C37   C     C_R   0.933709 0.729345 0.447925 0.450619
C38   C     C_R   0.104367 0.277267 0.515951 0.529954
C39   C     C_R   0.883896 0.801376 0.409171 0.195771
C40   C     C_R   0.146963 0.201665 0.552196 0.165644
C41   C     C_R   0.789623 0.793790 0.349397 -0.254049
C42   C     C_R   0.195752 0.200044 0.631959 -0.239442
C43   C     C_R   0.069482 0.567426 0.465256 -0.170981
C44   C     C_R   0.930624 0.430736 0.521971 -0.239863
H1    H     H_    0.754299 0.848449 0.317395 0.150371
H2    H     H_    0.229356 0.143830 0.661971 0.152957
H3    H     H_    0.602679 0.867818 0.634064 0.210379
H4    H     H_    0.362667 0.130231 0.377651 0.198016
H5    H     H_    0.674175 0.711027 0.280089 0.168452
H6    H     H_    0.242472 0.269894 0.735082 0.152710
H7    H     H_    0.763154 0.585217 0.344375 0.136110
H8    H     H_    0.165547 0.400701 0.672863 0.141767
H9    H     H_    0.124120 0.617648 0.438970 0.174499
H10   H     H_    0.877108 0.377816 0.544501 0.148970
H11   H     H_    0.614631 0.409572 0.912742 0.184722
H12   H     H_    0.440761 0.613045 0.084558 0.166563
N1    N     N_2   0.471370 0.509859 0.984736 -0.177318
N2    N     N_2   0.577386 0.506924 0.017289 -0.147163
N3    N     N_R   0.515300 0.716920 0.509720 -0.188359
N4    N     N_R   0.484700 0.283080 0.490280 -0.193191
N5    N     N_2   0.533298 0.979030 0.523262 -0.068583
N6    N     N_2   0.468880 0.022149 0.474118 -0.067205
O1    O     O_R   0.494530 0.422540 0.612660 -0.542653
O2    O     O_R   0.505470 0.577460 0.387340 -0.546355
O3    O     O_R   0.504350 0.561840 0.618900 -0.563313
O4    O     O_R   0.495650 0.438160 0.381100 -0.566023
O5    O     O_R   0.678330 0.430350 0.496870 -0.605248
O6    O     O_R   0.321670 0.569650 0.503130 -0.626293
O7    O     O_R   0.688150 0.569660 0.503110 -0.632447
O8    O     O_R   0.311850 0.430340 0.496890 -0.574248
Zn1   Zn    Zn3+2 0.493440 0.406980 0.495830 1.043715
Zn2   Zn    Zn3+2 0.506560 0.593020 0.504170 1.012227
O9    O     O_3   0.631112 0.378057 0.757241 -0.568252
C45   C     C_3   0.640456 0.302746 0.804337 -0.270642
H13   H     H_    0.549187 0.279020 0.826717 0.139112
H14   H     H_    0.710192 0.309602 0.854589 0.146800
H15   H     H_    0.674011 0.254751 0.767397 0.198143
O10   O     O_3   0.389889 0.629347 0.240316 -0.569148
C46   C     C_3   0.377408 0.704397 0.193093 -0.272087
H16   H     H_    0.313212 0.695097 0.140358 0.145112
H17   H     H_    0.468804 0.732030 0.174814 0.136909
H18   H     H_    0.334775 0.750427 0.228292 0.200298
O11   O     O_3   0.613783 0.276109 0.608134 -0.539812
C47   C     C_3   0.739303 0.253850 0.613251 -0.223139
H19   H     H_    0.794252 0.302371 0.644493 0.183210
H20   H     H_    0.777989 0.247905 0.553481 0.105420
H21   H     H_    0.752169 0.196133 0.651165 0.192713
O12   O     O_3   0.410909 0.726780 0.382341 -0.551534
C48   C     C_3   0.282007 0.737588 0.383810 -0.197599
H22   H     H_    0.233688 0.689920 0.347821 0.185911
H23   H     H_    0.256481 0.798405 0.355092 0.183135
H24   H     H_    0.247918 0.731215 0.445698 0.183334
O13   O     O_3   0.592556 0.100682 0.611092 -0.595208
C49   C     C_3   0.512907 0.096057 0.675917 -0.325522
H25   H     H_    0.426467 0.059530 0.661309 0.160133
H26   H     H_    0.490365 0.158325 0.694594 0.180134
H27   H     H_    0.560611 0.063354 0.728000 0.179997
O14   O     O_3   0.423333 0.900127 0.382383 -0.590747
C50   C     C_3   0.504672 0.906963 0.318661 -0.320981
H28   H     H_    0.526358 0.845434 0.297963 0.179604
H29   H     H_    0.590853 0.942750 0.335488 0.156847
H30   H     H_    0.458576 0.941772 0.267249 0.180197
O15   O     O_3   0.589389 0.705760 0.645901 -0.570790
C51   C     C_3   0.718702 0.701492 0.657325 -0.300923
H31   H     H_    0.761691 0.762735 0.671337 0.136271
H32   H     H_    0.759925 0.677220 0.604297 0.175679
H33   H     H_    0.739120 0.657585 0.709307 0.187924
O16   O     O_3   0.346798 0.301315 0.378236 -0.534011
C52   C     C_3   0.303242 0.266682 0.306451 -0.268358
H34   H     H_    0.225045 0.221360 0.317816 0.175874
H35   H     H_    0.379081 0.238569 0.275727 0.123835
H36   H     H_    0.266696 0.317040 0.265182 0.193112
O17   O     O_3   0.038245 0.737290 0.498285 -0.660226
C53   C     C_3   0.003163 0.737524 0.578081 -0.380059
H37   H     H_    0.085923 0.755547 0.615648 0.198005
H38   H     H_    0.971783 0.674434 0.600188 0.181563
H39   H     H_    0.932065 0.783917 0.585465 0.161365
O18   O     O_3   0.069584 0.283500 0.435098 -0.587936
C54   C     C_3   0.948201 0.249520 0.422631 -0.401206
H40   H     H_    0.879220 0.296844 0.430449 0.189816
H41   H     H_    0.926927 0.193100 0.461744 0.163211
H42   H     H_    0.937213 0.231610 0.359691 0.198272
N7    N     N_2   0.933936 0.881506 0.426217 -0.309439
H43   H     H_    0.021933 0.882598 0.452848 0.261977
C55   C     C_3   0.850592 0.933466 0.463989 -0.788242
H44   H     H_    0.896720 0.995010 0.472534 0.251814
H45   H     H_    0.825464 0.905010 0.523456 0.241862
H46   H     H_    0.765125 0.943022 0.425887 0.244960
N8    N     N_2   0.138534 0.129067 0.507283 -0.308362
H47   H     H_    0.153744 0.136917 0.446866 0.258275
C56   C     C_3   0.164593 0.048688 0.545339 -0.797962
H48   H     H_    0.144303 0.000367 0.501900 0.250704
H49   H     H_    0.104984 0.035202 0.597327 0.241503
H50   H     H_    0.263777 0.046188 0.564850 0.249977
N9    N     N_2   0.704944 0.422838 0.291375 -0.303530
H51   H     H_    0.799246 0.433152 0.285998 0.229186
C57   C     C_3   0.667983 0.336127 0.304131 -0.719560
H52   H     H_    0.736525 0.296555 0.279050 0.190530
H53   H     H_    0.574930 0.322027 0.275936 0.250589
H54   H     H_    0.664986 0.320055 0.369413 0.246143
N10   N     N_2   0.293847 0.570429 0.716856 -0.293141
H55   H     H_    0.268106 0.543016 0.664369 0.200623
C58   C     C_3   0.302942 0.660048 0.710175 -0.605629
H56   H     H_    0.214161 0.684699 0.727420 0.205532
H57   H     H_    0.319984 0.681930 0.647241 0.236160
H58   H     H_    0.379407 0.685132 0.749580 0.249295
N11   N     N_2   0.744893 0.424901 0.122606 -0.298968
H59   H     H_    0.764357 0.370989 0.155695 0.237565
C59   C     C_3   0.855613 0.471478 0.098551 -0.800339
H60   H     H_    0.831994 0.521656 0.052823 0.256300
H61   H     H_    0.903864 0.498713 0.151425 0.235451
H62   H     H_    0.919489 0.429761 0.071865 0.237850
N12   N     N_2   0.287077 0.583475 0.883455 -0.288106
H63   H     H_    0.315961 0.613781 0.933851 0.224984
C60   C     C_3   0.167535 0.540936 0.891927 -0.770557
H64   H     H_    0.175327 0.487649 0.936751 0.234077
H65   H     H_    0.100156 0.584201 0.912612 0.231875
H66   H     H_    0.131607 0.518485 0.833541 0.254617

loop_
_geom_bond_atom_site_label_1
_geom_bond_atom_site_label_2
_ccdc_geom_bond_type
C58   H58   S    
C40   N8    S    
O13   C49   S    
C27   C29   A    
O9    C45   S    
C23   O7    A    
N11   H59   S    
C47   H21   S    
C56   H50   S    
C51   H32   S    
C53   H37   S    
C24   O8    A    
N9    H51   S    
C39   C41   A    
C6    C35   S    
C57   H53   S    
C3    C43   A    
C45   H14   S    
C12   N11   S    
C19   C21   A    
C47   H20   S    
N8    H47   S    
N10   C58   S    
C20   N4    A    
N7    C55   S    
C13   N1    S    
C58   H56   S    
C5    C36   S    
C39   N7    S    
O16   C52   S    
C29   O15   S    
C58   H57   S    
C42   H2    S    
C11   N12   S    
C23   O5    A    
O18   C54   S    
C52   H35   S    
N10   H55   S    
C43   H9    S    
O11   C47   S    
C7    C17   A    
C45   H15   S    
C30   N4    A    
C55   H46   S    
C1    O3    A    
C31   C33   A    
O8    Zn1   S    
C48   H23   S    
C34   C36   A    
O6    Zn2   S    
N3    Zn2   S    
C30   O16   S    
C40   C42   A    
C60   H66   S    
C17   O9    S    
C3    C24   S    
C49   H25   S    
C31   H5    S    
C1    O1    A    
C51   H31   S    
C2    O2    A    
C54   H41   S    
C14   N2    S    
C57   H54   S    
C45   H13   S    
C29   N3    A    
N7    H43   S    
C47   H19   S    
C4    C6    A    
C19   O12   S    
C52   H36   S    
C46   H17   S    
C4    C23   S    
C9    N10   S    
O10   C46   S    
C4    C44   A    
N4    Zn1   S    
C2    O4    A    
C8    C18   A    
C32   C34   A    
O7    Zn2   S    
C16   H12   S    
C44   H10   S    
O4    Zn1   S    
C12   C14   A    
C18   O10   S    
C25   N5    S    
C10   N9    S    
C48   H24   S    
C49   H26   S    
C60   H65   S    
C9    C11   A    
C32   H6    S    
C10   C12   A    
C16   C18   A    
C50   H29   S    
C5    C44   A    
O1    Zn1   S    
C6    C43   A    
C13   C15   A    
C55   H44   S    
C22   O13   S    
C14   C16   A    
C59   H62   S    
N12   C60   S    
C56   H48   S    
C3    C5    A    
O15   C51   S    
C35   C37   A    
O17   C53   S    
C54   H42   S    
C27   H3    S    
N9    C57   S    
C21   C25   A    
C28   H4    S    
C32   C42   A    
C31   C41   A    
N11   C59   S    
C1    C7    S    
C34   H8    S    
C2    C8    S    
C20   C22   A    
C56   H49   S    
C46   H18   S    
C53   H38   S    
C54   H40   S    
C15   C17   A    
C33   H7    S    
O3    Zn2   S    
C57   H52   S    
C26   C28   A    
C49   H27   S    
C50   H28   S    
C19   N3    A    
C59   H61   S    
C48   H22   S    
C28   C30   A    
C37   C39   A    
C59   H60   S    
C38   C40   A    
C21   O14   S    
C11   C13   A    
N1    N2    D    
C36   C38   A    
C33   C35   A    
O5    Zn1   S    
O2    Zn2   S    
C26   N6    S    
N5    N6    D    
C53   H39   S    
C24   O6    A    
C46   H16   S    
C38   O18   S    
C7    C9    A    
C50   H30   S    
C37   O17   S    
O12   C48   S    
C8    C10   A    
O14   C50   S    
C22   C26   A    
C20   O11   S    
C60   H64   S    
C55   H45   S    
C41   H1    S    
N12   H63   S    
C52   H34   S    
C51   H33   S    
C15   H11   S    
N8    C56   S    
C25   C27   A    
