data_mof_unit_11689.cif
_audit_creation_date              2012-12-11T15:46:46-0500
_audit_creation_method            fapswitch 2.2
_symmetry_space_group_name_H-M    P1
_symmetry_Int_Tables_number       1
_space_group_crystal_system       triclinic
_cell_length_a                    11.540564
_cell_length_b                    11.507652
_cell_length_c                    19.483901
_cell_angle_alpha                 90.462622
_cell_angle_beta                  90.378771
_cell_angle_gamma                 60.040653
_cell_volume                      2241.72317031

loop_
_atom_site_label
_atom_site_type_symbol
_atom_type_description
_atom_site_fract_x
_atom_site_fract_y
_atom_site_fract_z
_atom_type_partial_charge
C1    C     C_R   0.640953 0.117570 0.599037 0.554620
C2    C     C_1   0.642172 0.703051 0.667855 0.004006
C3    C     C_1   0.127161 0.198374 0.859480 -0.000243
C4    C     C_1   0.171496 0.169986 0.727688 -0.031535
C5    C     C_1   0.150459 0.181844 0.799035 -0.032495
C6    C     C_1   0.195076 0.160795 0.667260 0.003457
C7    C     C_1   0.677637 0.191355 0.860948 0.003163
C8    C     C_1   0.658875 0.167381 0.728948 -0.032302
C9    C     C_1   0.665078 0.181089 0.800352 -0.031856
C10   C     C_1   0.653841 0.149726 0.668438 0.001443
C11   C     C_R   0.662660 0.680420 0.189110 0.012718
C12   C     C_R   0.613045 0.745166 0.598416 0.547100
C13   C     C_R   0.536322 0.749123 0.218426 0.005763
C14   C     C_R   0.524151 0.759545 0.287938 0.022912
C15   C     C_R   0.762939 0.653842 0.301963 -0.172255
C16   C     C_R   0.775662 0.644703 0.230859 -0.164768
C17   C     C_3   0.408617 0.745585 0.209300 -0.117591
C18   C     C_3   0.393441 0.760059 0.287659 -0.117820
C19   C     C_R   0.636515 0.704713 0.331107 0.017008
C20   C     C_R   0.049694 0.250675 0.206674 0.008230
C21   C     C_R   0.077412 0.337573 0.243794 0.011554
C22   C     C_R   0.124358 0.308609 0.310005 0.032601
C23   C     C_R   0.240664 0.145375 0.598059 0.549812
C24   C     C_R   0.097324 0.114882 0.310639 -0.175758
C25   C     C_R   0.045289 0.147420 0.243288 -0.168171
C26   C     C_3   0.162507 0.397434 0.226722 -0.271548
C27   C     C_3   0.212097 0.368320 0.299910 -0.271164
C28   C     C_R   0.150870 0.188373 0.341737 0.015442
C29   C     C_R   0.659369 0.175389 0.186876 0.019605
C30   C     C_R   0.718681 0.042176 0.209933 0.025481
C31   C     C_R   0.710003 0.015814 0.278044 0.018432
C32   C     C_R   0.562191 0.250924 0.299613 -0.174527
C33   C     C_R   0.571989 0.278853 0.231024 -0.171274
C34   C     C_R   0.623519 0.086033 0.394513 0.557395
C35   C     C_3   0.859128 0.926541 0.204932 -0.269124
C36   C     C_3   0.852447 0.906033 0.281082 -0.271879
C37   C     C_R   0.637385 0.119051 0.324490 0.018786
C38   C     C_R   0.082236 0.230862 0.928766 0.550850
C39   C     C_R   0.683404 0.605266 0.929763 0.543396
C40   C     C_R   0.707839 0.206443 0.930361 0.548737
C41   C     C_R   0.021963 0.270734 0.132837 0.561592
C42   C     C_R   0.682460 0.614420 0.124249 0.534921
C43   C     C_R   0.706446 0.208899 0.125377 0.542981
C44   C     C_R   0.615307 0.740084 0.402151 0.539249
C45   C     C_R   0.239068 0.143712 0.402350 0.535917
C46   C     C_1   0.669456 0.647612 0.860386 0.002568
C47   C     C_1   0.655291 0.683392 0.728456 -0.032333
C48   C     C_1   0.663016 0.667377 0.799823 -0.032727
Cr1   Cr    Cr6+3 0.404720 0.198220 0.499960 1.007793
Cr2   Cr    Cr6+3 0.698290 0.897110 0.500380 1.021011
Cr3   Cr    Cr6+3 0.396970 0.904720 0.499610 1.002479
Cr4   Cr    Cr6+3 0.926290 0.152010 0.028150 0.998492
Cr5   Cr    Cr6+3 0.921440 0.451830 0.027490 1.012101
Cr6   Cr    Cr6+3 0.626370 0.446880 0.028730 0.993857
H1    H     H_    0.851215 0.619454 0.333897 0.123666
H2    H     H_    0.242080 0.336864 0.188762 0.160087
H3    H     H_    0.319330 0.292012 0.303789 0.155910
H4    H     H_    0.178733 0.460683 0.331175 0.132857
H5    H     H_    0.500606 0.333373 0.333632 0.127245
H6    H     H_    0.521738 0.382449 0.214655 0.123558
H7    H     H_    0.936100 0.952809 0.191966 0.144172
H8    H     H_    0.864209 0.843224 0.173327 0.134727
H9    H     H_    0.865224 0.807239 0.293744 0.142554
H10   H     H_    0.915889 0.934427 0.312121 0.138811
H11   H     H_    0.874856 0.597258 0.209307 0.136956
H12   H     H_    0.423336 0.648295 0.189754 0.162051
H13   H     H_    0.311247 0.859296 0.304389 0.145788
H14   H     H_    0.103280 0.028684 0.335930 0.108293
H15   H     H_    0.011841 0.086015 0.218149 0.126739
H16   H     H_    0.103792 0.506465 0.215723 0.122892
O1    O     O_R   0.267750 0.231960 0.575440 -0.504708
O2    O     O_R   0.685950 0.784660 0.430010 -0.513348
O3    O     O_R   0.502510 0.767000 0.423980 -0.525623
O4    O     O_R   0.288320 0.026340 0.429250 -0.513575
O5    O     O_3   0.499990 0.000020 0.499980 -0.260934
O6    O     O_R   0.821590 0.119350 0.952850 -0.505237
O7    O     O_R   0.037230 0.162540 0.957390 -0.494524
O8    O     O_R   0.056530 0.344750 0.951370 -0.500287
O9    O     O_R   0.798000 0.560370 0.957490 -0.491633
O10   O     O_R   0.596230 0.579400 0.952760 -0.512690
O11   O     O_R   0.639160 0.321170 0.958690 -0.491123
O12   O     O_R   0.527290 0.186640 0.570530 -0.490371
O13   O     O_R   0.821370 0.124220 0.104400 -0.533689
O14   O     O_R   0.037020 0.167050 0.097880 -0.519994
O15   O     O_R   0.056310 0.349620 0.102920 -0.520390
O16   O     O_R   0.797790 0.564880 0.097980 -0.523011
O17   O     O_R   0.596000 0.584270 0.104310 -0.534997
O18   O     O_R   0.638950 0.325690 0.099180 -0.508367
O19   O     O_3   0.824700 0.350240 0.028120 -0.260887
O20   O     O_R   0.728110 0.003450 0.576380 -0.500910
O21   O     O_R   0.682980 0.789190 0.570500 -0.492595
O22   O     O_R   0.499300 0.771880 0.575540 -0.506795
O23   O     O_R   0.285350 0.030870 0.569740 -0.492162
O24   O     O_R   0.270960 0.227070 0.423890 -0.525473
O25   O     O_R   0.530270 0.182120 0.430040 -0.514551
O26   O     O_R   0.731320 0.998570 0.424830 -0.511936
C49   C     C_3   0.300052 0.868577 0.170629 -0.261149
C50   C     C_3   0.320987 0.859318 0.092527 -0.271121
C51   C     C_3   0.280125 0.765288 0.058118 -0.394021
H17   H     H_    0.296163 0.763374 0.001897 0.150328
H18   H     H_    0.340428 0.661585 0.077767 0.165019
H19   H     H_    0.172519 0.801394 0.067460 0.131904
H20   H     H_    0.258951 0.960537 0.070204 0.179921
H21   H     H_    0.426208 0.828012 0.080024 0.178241
H22   H     H_    0.200958 0.879497 0.182160 0.137988
H23   H     H_    0.298954 0.960653 0.189473 0.151278
C52   C     C_3   0.395513 0.639674 0.324233 -0.247590
C53   C     C_3   0.287740 0.687692 0.380356 -0.298050
C54   C     C_3   0.316253 0.576672 0.431515 -0.423433
H24   H     H_    0.323379 0.487894 0.404975 0.149416
H25   H     H_    0.411544 0.546391 0.459197 0.167023
H26   H     H_    0.234103 0.613700 0.469635 0.139565
H27   H     H_    0.281722 0.773943 0.409395 0.199114
H28   H     H_    0.188542 0.722132 0.355928 0.135483
H29   H     H_    0.375009 0.578226 0.287192 0.117694
H30   H     H_    0.495907 0.572409 0.346671 0.169791

loop_
_geom_bond_atom_site_label_1
_geom_bond_atom_site_label_2
_ccdc_geom_bond_type
Cr1   O12   S    
C21   C26   S    
C1    O20   A    
C34   C37   S    
C43   O13   A    
C14   C18   S    
C12   O21   A    
C35   C36   S    
Cr3   O4    S    
C2    C12   S    
C20   C41   S    
C15   C19   A    
C17   H12   S    
C30   C35   S    
C43   O18   A    
Cr5   O9    S    
Cr3   O5    S    
C54   H25   S    
Cr6   O17   S    
C20   C25   A    
C15   C16   A    
C29   C33   A    
C53   C54   S    
C11   C42   S    
C53   H28   S    
Cr4   O14   S    
Cr2   O2    S    
C18   C52   S    
Cr3   O3    S    
Cr2   O20   S    
C51   H17   S    
C3    C38   S    
C8    C9    S    
C52   C53   S    
Cr1   O5    S    
Cr5   O16   S    
C42   O16   A    
Cr1   O24   S    
C36   H9    S    
C49   H22   S    
C22   C28   A    
C13   C14   A    
C29   C43   S    
Cr4   O19   S    
C34   O25   A    
C45   O24   A    
C14   C19   A    
C49   C50   S    
Cr6   O10   S    
C46   C48   T    
C28   C45   S    
C23   O1    A    
C24   C25   A    
Cr6   O19   S    
C4    C6    T    
C27   H3    S    
C54   H26   S    
C38   O8    A    
Cr4   O6    S    
C18   H13   S    
C41   O14   A    
C23   O23   A    
C31   C37   A    
C45   O4    A    
C15   H1    S    
C53   H27   S    
Cr4   O13   S    
C29   C30   A    
Cr3   O22   S    
C11   C16   A    
C47   C48   S    
C7    C40   S    
C17   C18   S    
C26   C27   S    
C35   H7    S    
C32   C37   A    
Cr1   O25   S    
C52   H29   S    
Cr3   O23   S    
C39   C46   S    
C49   H23   S    
C51   H18   S    
C33   H6    S    
C22   C27   S    
Cr5   O19   S    
C26   H16   S    
C25   H15   S    
Cr4   O7    S    
C19   C44   S    
C7    C9    T    
C40   O11   A    
C12   O22   A    
C1    C10   S    
C24   C28   A    
C34   O26   A    
C4    C5    S    
C3    C5    T    
C27   H4    S    
C26   H2    S    
C16   H11   S    
C38   O7    A    
C2    C47   T    
C41   O15   A    
C13   C17   S    
C32   C33   A    
Cr5   O8    S    
C1    O12   A    
C36   H10   S    
Cr2   O5    S    
C39   O10   A    
Cr6   O18   S    
C11   C13   A    
Cr2   O26   S    
C30   C31   A    
C50   H21   S    
C6    C23   S    
C44   O2    A    
C35   H8    S    
C44   O3    A    
C52   H30   S    
C24   H14   S    
C40   O6    A    
Cr2   O21   S    
C51   H19   S    
C20   C21   A    
C8    C10   T    
C50   C51   S    
Cr1   O1    S    
C54   H24   S    
C31   C36   S    
Cr5   O15   S    
C42   O17   A    
C32   H5    S    
C21   C22   A    
C17   C49   S    
Cr6   O11   S    
C50   H20   S    
C39   O9    A    
