data_mof_unit_62729.cif
_audit_creation_date              2012-12-10T18:29:24-0500
_audit_creation_method            fapswitch 2.2
_symmetry_space_group_name_H-M    P1
_symmetry_Int_Tables_number       1
_space_group_crystal_system       triclinic
_cell_length_a                    35.901767
_cell_length_b                    26.07446
_cell_length_c                    22.086959
_cell_angle_alpha                 90.163769
_cell_angle_beta                  144.05602
_cell_angle_gamma                 89.81561
_cell_volume                      12136.6386465

loop_
_atom_site_label
_atom_site_type_symbol
_atom_type_description
_atom_site_fract_x
_atom_site_fract_y
_atom_site_fract_z
_atom_type_partial_charge
C1    C     C_R   0.650569 0.750084 0.000228 0.809396
C2    C     C_R   0.650490 0.249977 0.000062 0.809774
C3    C     C_R   0.150569 0.250084 0.000228 0.809034
C4    C     C_R   0.150490 0.749977 0.000062 0.809762
C5    C     C_3   0.751410 0.551230 0.001994 -0.343138
C6    C     C_3   0.749765 0.449017 0.998185 -0.350608
C7    C     C_3   0.251412 0.051231 0.002018 -0.343048
C8    C     C_3   0.249771 0.949019 0.998208 -0.350754
C9    C     C_3   0.503016 0.202497 0.981064 0.033627
C10   C     C_3   0.498927 0.796595 0.973400 0.033478
C11   C     C_3   0.003644 0.702374 0.982325 0.033725
C12   C     C_3   0.996429 0.295802 0.968364 0.034366
C13   C     C_3   0.941859 0.733793 0.908106 0.411116
C14   C     C_3   0.939937 0.259132 0.904212 0.411250
C15   C     C_3   0.441649 0.234400 0.907684 0.411255
C16   C     C_3   0.440492 0.761702 0.905354 0.411049
C17   C     C_1   0.889037 0.750071 0.999823 -0.083313
C18   C     C_1   0.888830 0.249722 0.999398 -0.081481
C19   C     C_1   0.389037 0.250072 0.999823 -0.083281
C20   C     C_1   0.388829 0.749723 0.999395 -0.081445
C21   C     C_1   0.610939 0.249942 0.000175 -0.066221
C22   C     C_1   0.611160 0.750254 0.000623 -0.063442
C23   C     C_1   0.110937 0.749941 0.000173 -0.066509
C24   C     C_1   0.111161 0.250253 0.000626 -0.063462
C25   C     C_3   0.024554 0.718632 0.074096 0.035268
C26   C     C_3   0.019149 0.286483 0.063797 0.032241
C27   C     C_3   0.524136 0.218150 0.073255 0.034679
C28   C     C_3   0.521089 0.784708 0.067685 0.033487
C29   C     C_3   0.962964 0.750062 0.999940 -0.043607
C30   C     C_3   0.962851 0.249804 0.999707 -0.043631
C31   C     C_3   0.462963 0.250064 0.999940 -0.043618
C32   C     C_3   0.462848 0.749804 0.999700 -0.043434
C33   C     C_3   0.558329 0.265633 0.092323 0.406876
C34   C     C_3   0.559509 0.738252 0.094691 0.407031
C35   C     C_3   0.058117 0.766235 0.091898 0.406739
C36   C     C_3   0.060071 0.240818 0.095846 0.407113
C37   C     C_3   0.537015 0.249969 0.000067 -0.045168
C38   C     C_3   0.537153 0.750149 0.000343 -0.044718
C39   C     C_3   0.037013 0.749965 0.000063 -0.045181
C40   C     C_3   0.037157 0.250145 0.000350 -0.044623
C41   C     C_3   0.996332 0.797654 0.017679 0.049665
C42   C     C_3   0.003578 0.204147 0.031693 0.043486
C43   C     C_3   0.496961 0.297536 0.018943 0.049301
C44   C     C_3   0.501074 0.703358 0.026645 0.044354
C45   C     C_R   0.849487 0.750023 0.999936 0.818478
C46   C     C_R   0.849414 0.249912 0.999778 0.828400
C47   C     C_R   0.349487 0.250023 0.999936 0.818523
C48   C     C_R   0.349414 0.749912 0.999777 0.828998
C49   C     C_3   0.475841 0.281883 0.926751 0.034217
C50   C     C_3   0.478912 0.715245 0.932359 0.035945
C51   C     C_3   0.975422 0.781396 0.925907 0.034170
C52   C     C_3   0.980858 0.213466 0.936260 0.037163
C53   C     C_1   0.922387 0.750077 0.999805 0.066475
C54   C     C_1   0.922175 0.249699 0.999371 0.066924
C55   C     C_1   0.422386 0.250078 0.999804 0.066441
C56   C     C_1   0.422174 0.749700 0.999368 0.067075
C57   C     C_1   0.577591 0.249946 0.000198 0.070233
C58   C     C_1   0.577822 0.750262 0.000665 0.071081
C59   C     C_1   0.077589 0.749944 0.000194 0.070118
C60   C     C_1   0.077825 0.250260 0.000671 0.071293
C61   C     C_3   0.492434 0.731629 0.562748 0.071057
C62   C     C_3   0.492389 0.267588 0.562858 0.068011
C63   C     C_3   0.992399 0.231868 0.562769 0.070913
C64   C     C_3   0.992399 0.767668 0.562850 0.067917
C65   C     C_3   0.430642 0.730457 0.442172 0.357010
C66   C     C_3   0.430504 0.268666 0.442355 0.359682
C67   C     C_3   0.930593 0.230704 0.442194 0.356969
C68   C     C_3   0.930519 0.768750 0.442346 0.359757
C69   C     C_3   0.562162 0.711175 0.561556 0.107000
C70   C     C_3   0.561861 0.288963 0.561513 0.112966
C71   C     C_3   0.062046 0.210997 0.561539 0.106816
C72   C     C_3   0.061904 0.788897 0.561523 0.113225
C73   C     C_3   0.534523 0.810018 0.557378 0.209090
C74   C     C_3   0.535473 0.189874 0.557344 0.197922
C75   C     C_3   0.034740 0.309988 0.557393 0.209170
C76   C     C_3   0.035394 0.689859 0.557338 0.197956
C77   C     C_3   0.551319 0.751887 0.602167 -0.119212
C78   C     C_3   0.551456 0.247936 0.602134 -0.121294
C79   C     C_3   0.051340 0.251886 0.602170 -0.119396
C80   C     C_3   0.051447 0.747931 0.602134 -0.121269
C81   C     C_3   0.447912 0.749977 0.397623 -0.226963
C82   C     C_3   0.447904 0.249846 0.397648 -0.221165
C83   C     C_3   0.947910 0.249991 0.397627 -0.226834
C84   C     C_3   0.947905 0.749849 0.397647 -0.221059
C85   C     C_3   0.502074 0.714901 0.437572 0.421072
C86   C     C_3   0.501536 0.285511 0.437461 0.424563
C87   C     C_3   0.001950 0.214708 0.437551 0.421086
C88   C     C_3   0.001582 0.785441 0.437473 0.424816
C89   C     C_R   0.890575 0.749602 0.282298 0.925403
C90   C     C_R   0.890600 0.250304 0.282225 0.929362
C91   C     C_R   0.390571 0.249598 0.282298 0.925119
C92   C     C_R   0.390608 0.750290 0.282224 0.930033
C93   C     C_3   0.473768 0.806590 0.436313 0.095308
C94   C     C_3   0.474491 0.193303 0.436225 0.091822
C95   C     C_3   0.973951 0.306565 0.436329 0.095257
C96   C     C_3   0.974427 0.693291 0.436217 0.091643
C97   C     C_3   0.750938 0.969986 0.071214 0.509947
C98   C     C_3   0.758639 0.030290 0.079834 0.498137
C99   C     C_3   0.251633 0.469969 0.072101 0.509952
C100  C     C_3   0.259294 0.530275 0.080619 0.497957
C101  C     C_3   0.686464 0.968927 0.883206 0.408768
C102  C     C_3   0.681737 0.030076 0.884019 0.380255
C103  C     C_3   0.186262 0.468909 0.883427 0.408639
C104  C     C_3   0.181583 0.530060 0.884349 0.380048
C105  C     C_3   0.814174 0.969812 0.051616 0.361518
C106  C     C_3   0.806606 0.030371 0.031478 0.383854
C107  C     C_3   0.313980 0.469816 0.050845 0.361382
C108  C     C_3   0.306293 0.530372 0.030599 0.384595
C109  C     C_3   0.750631 0.948729 0.001702 -0.370612
C110  C     C_3   0.748790 0.050939 0.998009 -0.373636
C111  C     C_3   0.250727 0.448722 0.001806 -0.370765
C112  C     C_3   0.248841 0.550932 0.998078 -0.373741
C113  C     C_R   0.608384 0.751166 0.717711 0.879950
C114  C     C_R   0.608383 0.248798 0.717626 0.882931
C115  C     C_R   0.108395 0.251157 0.717711 0.880228
C116  C     C_R   0.108377 0.748792 0.717626 0.882975
C117  C     C_R   0.750936 0.891213 0.001444 0.952120
C118  C     C_R   0.749192 0.108697 0.998953 0.992823
C119  C     C_R   0.251007 0.391210 0.001523 0.952339
C120  C     C_R   0.249215 0.608694 0.998981 0.993443
C121  C     C_R   0.750459 0.608835 0.001172 0.973758
C122  C     C_R   0.749822 0.391275 0.999060 0.962277
C123  C     C_R   0.250461 0.108836 0.001188 0.973818
C124  C     C_R   0.249824 0.891276 0.999070 0.962498
C125  C     C_3   0.696979 0.530810 0.885736 0.574172
C126  C     C_3   0.703055 0.470532 0.885864 0.538811
C127  C     C_3   0.197102 0.030812 0.885786 0.574028
C128  C     C_3   0.203201 0.970533 0.885960 0.538688
C129  C     C_3   0.741135 0.529465 0.054703 -0.098318
C130  C     C_3   0.728482 0.470264 0.035051 -0.121402
C131  C     C_3   0.240963 0.029465 0.054474 -0.097820
C132  C     C_3   0.228308 0.970266 0.034786 -0.121289
C133  C     C_3   0.819700 0.529999 0.071228 0.491403
C134  C     C_3   0.820886 0.469545 0.080027 0.516143
C135  C     C_3   0.319755 0.030002 0.071487 0.491339
C136  C     C_3   0.320925 0.969548 0.080268 0.515958
H1    H     H_    0.502856 0.692105 0.590866 0.217920
H2    H     H_    0.502379 0.307080 0.590955 0.218333
H3    H     H_    0.002698 0.192365 0.590885 0.217927
H4    H     H_    0.002432 0.807169 0.590947 0.218329
H5    H     H_    0.486406 0.818363 0.406466 0.196867
H6    H     H_    0.487086 0.182070 0.406051 0.198768
H7    H     H_    0.986600 0.318177 0.406442 0.196825
H8    H     H_    0.987025 0.682005 0.406066 0.198808
H9    H     H_    0.787390 0.533287 0.139302 0.236737
H10   H     H_    0.759846 0.452314 0.110764 0.221087
H11   H     H_    0.287156 0.033280 0.139101 0.236586
H12   H     H_    0.259573 0.952311 0.110447 0.221020
O1    O     O_3   0.749990 0.749990 0.000000 -0.545774
O2    O     O_3   0.749990 0.250010 0.000000 -0.544492
O3    O     O_3   0.249990 0.249990 0.000000 -0.545765
O4    O     O_3   0.249990 0.750010 0.000000 -0.544336
O5    O     O_R   0.888390 0.719350 0.233690 -0.634121
O6    O     O_R   0.888390 0.280650 0.233690 -0.633104
O7    O     O_R   0.388390 0.219350 0.233690 -0.634039
O8    O     O_R   0.388390 0.780650 0.233690 -0.633276
O9    O     O_R   0.611600 0.719370 0.766300 -0.601830
O10   O     O_R   0.611600 0.280630 0.766300 -0.603581
O11   O     O_R   0.111600 0.219370 0.766300 -0.602085
O12   O     O_R   0.111600 0.780630 0.766300 -0.603536
O13   O     O_R   0.698440 0.780630 0.061300 -0.610446
O14   O     O_R   0.698440 0.219370 0.061300 -0.611937
O15   O     O_R   0.198440 0.280630 0.061300 -0.609928
O16   O     O_R   0.198440 0.719370 0.061300 -0.612362
O17   O     O_R   0.801540 0.780630 0.938710 -0.640445
O18   O     O_R   0.801540 0.219370 0.938710 -0.640409
O19   O     O_R   0.301540 0.280630 0.938710 -0.640614
O20   O     O_R   0.301540 0.719370 0.938710 -0.640936
O21   O     O_R   0.637170 0.719360 0.938750 -0.616244
O22   O     O_R   0.637170 0.280640 0.938750 -0.621723
O23   O     O_R   0.137170 0.219360 0.938750 -0.616492
O24   O     O_R   0.137170 0.780640 0.938750 -0.621649
O25   O     O_R   0.862810 0.719350 0.061240 -0.612278
O26   O     O_R   0.862810 0.280650 0.061240 -0.612553
O27   O     O_R   0.362810 0.219350 0.061240 -0.612249
O28   O     O_R   0.362810 0.780650 0.061240 -0.612407
O29   O     O_R   0.845300 0.780620 0.233710 -0.567476
O30   O     O_R   0.845300 0.219380 0.233710 -0.565723
O31   O     O_R   0.345300 0.280620 0.233710 -0.567317
O32   O     O_R   0.345300 0.719380 0.233710 -0.566051
O33   O     O_R   0.654690 0.780640 0.766300 -0.658202
O34   O     O_R   0.654690 0.219360 0.766300 -0.657965
O35   O     O_R   0.154690 0.280640 0.766300 -0.658103
O36   O     O_R   0.154690 0.719360 0.766300 -0.658057
O37   O     O_R   0.759080 0.866840 0.061290 -0.553740
O38   O     O_R   0.759080 0.133160 0.061290 -0.555068
O39   O     O_R   0.259080 0.366840 0.061290 -0.553875
O40   O     O_R   0.259080 0.633160 0.061290 -0.555524
O41   O     O_R   0.697810 0.633140 0.938720 -0.602261
O42   O     O_R   0.697810 0.366860 0.938720 -0.624220
O43   O     O_R   0.197810 0.133140 0.938720 -0.602428
O44   O     O_R   0.197810 0.866860 0.938720 -0.624318
O45   O     O_R   0.740900 0.866850 0.938740 -0.624847
O46   O     O_R   0.740900 0.133150 0.938740 -0.623194
O47   O     O_R   0.240900 0.366850 0.938740 -0.624969
O48   O     O_R   0.240900 0.633150 0.938740 -0.623280
O49   O     O_R   0.802180 0.633140 0.061250 -0.567035
O50   O     O_R   0.802180 0.366860 0.061250 -0.559274
O51   O     O_R   0.302180 0.133140 0.061250 -0.566971
O52   O     O_R   0.302180 0.866860 0.061250 -0.559299
Zn1   Zn    Zn3+2 0.824550 0.706220 0.087530 1.067511
Zn2   Zn    Zn3+2 0.824550 0.293780 0.087530 1.077312
Zn3   Zn    Zn3+2 0.324550 0.206220 0.087530 1.067576
Zn4   Zn    Zn3+2 0.324550 0.793780 0.087530 1.077629
Zn5   Zn    Zn3+2 0.762980 0.793760 0.087560 1.104889
Zn6   Zn    Zn3+2 0.762980 0.206240 0.087560 1.114371
Zn7   Zn    Zn3+2 0.262980 0.293760 0.087560 1.105176
Zn8   Zn    Zn3+2 0.262980 0.706240 0.087560 1.114010
Zn9   Zn    Zn3+2 0.737010 0.793770 0.912460 0.984549
Zn10  Zn    Zn3+2 0.737010 0.206230 0.912460 0.998407
Zn11  Zn    Zn3+2 0.237010 0.293770 0.912460 0.984499
Zn12  Zn    Zn3+2 0.237010 0.706230 0.912460 0.998127
Zn13  Zn    Zn3+2 0.675440 0.706230 0.912460 1.047508
Zn14  Zn    Zn3+2 0.675440 0.293770 0.912460 1.035528
Zn15  Zn    Zn3+2 0.175440 0.206230 0.912460 1.047131
Zn16  Zn    Zn3+2 0.175440 0.793770 0.912460 1.035568
Cl1   Cl    Cl    0.619110 0.549058 0.810496 -0.473769
Cl2   Cl    Cl    0.625936 0.439962 0.783916 -0.463708
Cl3   Cl    Cl    0.119162 0.049061 0.810265 -0.474125
Cl4   Cl    Cl    0.126094 0.939952 0.783843 -0.464025
C137  C     C_3   0.991974 0.851653 0.037836 -0.762357
H13   H     H_    0.020744 0.878159 0.047703 0.259189
H14   H     H_    0.941772 0.864560 0.971665 0.236948
H15   H     H_    0.010187 0.851921 0.108945 0.258470
C138  C     C_3   0.007412 0.152208 0.067686 -0.747708
H16   H     H_    0.040314 0.126813 0.085550 0.258186
H17   H     H_    0.025122 0.157180 0.137955 0.261656
H18   H     H_    0.959602 0.134463 0.005994 0.236394
C139  C     C_3   0.493314 0.351397 0.040531 -0.761727
H19   H     H_    0.522434 0.377838 0.051102 0.259290
H20   H     H_    0.443284 0.364736 0.974707 0.236746
H21   H     H_    0.511527 0.351198 0.111639 0.258616
C140  C     C_3   0.502075 0.650518 0.056924 -0.749153
H22   H     H_    0.533583 0.624685 0.071977 0.258020
H23   H     H_    0.520016 0.653582 0.127640 0.261876
H24   H     H_    0.453346 0.634458 0.993398 0.236387
Cl5   Cl    Cl    0.636090 0.286327 0.214803 -0.543144
Cl6   Cl    Cl    0.638821 0.722726 0.220277 -0.541969
Cl7   Cl    Cl    0.135599 0.787730 0.213818 -0.544034
Cl8   Cl    Cl    0.140122 0.228695 0.222952 -0.540323
C141  C     C_3   0.052191 0.683105 0.158196 -0.710521
H25   H     H_    0.096700 0.665589 0.199519 0.264100
H26   H     H_    0.062573 0.705260 0.213663 0.253771
H27   H     H_    0.017591 0.652356 0.123194 0.249798
C142  C     C_3   0.040641 0.327835 0.136198 -0.703132
H28   H     H_    0.082228 0.348315 0.171967 0.263580
H29   H     H_    0.001439 0.355571 0.092251 0.250683
H30   H     H_    0.054033 0.310007 0.197566 0.254927
C143  C     C_3   0.551297 0.182072 0.156400 -0.709100
H31   H     H_    0.595573 0.164285 0.197254 0.264203
H32   H     H_    0.561969 0.203861 0.212449 0.253948
H33   H     H_    0.516290 0.151557 0.120582 0.249800
C144  C     C_3   0.544785 0.824042 0.144502 -0.705680
H34   H     H_    0.587456 0.843530 0.182445 0.263559
H35   H     H_    0.507120 0.852920 0.103658 0.250656
H36   H     H_    0.557175 0.804578 0.203839 0.254602
Cl9   Cl    Cl    0.483670 0.756916 0.627400 -0.598317
Cl10  Cl    Cl    0.484121 0.241764 0.627772 -0.602481
Cl11  Cl    Cl    0.983743 0.257404 0.627455 -0.598407
Cl12  Cl    Cl    0.984091 0.741932 0.627750 -0.602838
C145  C     C_3   0.375607 0.761216 0.399973 -0.568738
H37   H     H_    0.358655 0.741277 0.419035 0.277738
H38   H     H_    0.389557 0.799780 0.433480 0.250665
H39   H     H_    0.333912 0.765284 0.314980 0.218181
C146  C     C_3   0.375997 0.237217 0.400268 -0.572225
H40   H     H_    0.358796 0.256602 0.419435 0.279401
H41   H     H_    0.334356 0.233206 0.315236 0.216549
H42   H     H_    0.390598 0.198604 0.433784 0.250834
C147  C     C_3   0.875660 0.261663 0.400000 -0.568809
H43   H     H_    0.858653 0.241887 0.419079 0.278063
H44   H     H_    0.889735 0.300244 0.433509 0.250683
H45   H     H_    0.833980 0.265709 0.314998 0.217860
C148  C     C_3   0.875977 0.737369 0.400256 -0.572404
H46   H     H_    0.858803 0.756805 0.419435 0.278897
H47   H     H_    0.834325 0.733360 0.315225 0.216737
H48   H     H_    0.890529 0.698757 0.433754 0.251041
Cl13  Cl    Cl    0.400711 0.665325 0.404304 -0.413922
Cl14  Cl    Cl    0.399677 0.333567 0.404706 -0.412005
Cl15  Cl    Cl    0.900460 0.165638 0.404342 -0.414004
Cl16  Cl    Cl    0.899762 0.833676 0.404691 -0.412666
C149  C     C_3   0.569784 0.654743 0.596124 -0.605290
H49   H     H_    0.525665 0.637351 0.555323 0.283997
H50   H     H_    0.585643 0.628114 0.580563 0.291229
H51   H     H_    0.606124 0.652187 0.680040 0.246959
C150  C     C_3   0.569493 0.345234 0.596836 -0.606266
H52   H     H_    0.525594 0.362377 0.557460 0.286491
H53   H     H_    0.606786 0.347674 0.681133 0.244559
H54   H     H_    0.584341 0.372121 0.580043 0.288358
C151  C     C_3   0.069517 0.154618 0.596121 -0.604942
H55   H     H_    0.025364 0.137370 0.555397 0.283844
H56   H     H_    0.085239 0.127858 0.580461 0.291249
H57   H     H_    0.105907 0.152072 0.680058 0.247163
C152  C     C_3   0.069591 0.845186 0.596845 -0.606364
H58   H     H_    0.025706 0.862381 0.557447 0.286525
H59   H     H_    0.106871 0.847628 0.681137 0.244507
H60   H     H_    0.084485 0.872028 0.580083 0.288385
Cl17  Cl    Cl    0.469596 0.652433 0.374690 -0.434200
Cl18  Cl    Cl    0.468324 0.348077 0.375258 -0.453528
Cl19  Cl    Cl    0.969278 0.152243 0.374691 -0.433801
Cl20  Cl    Cl    0.968441 0.848010 0.375269 -0.454031
C153  C     C_3   0.586175 0.839258 0.587471 -0.730537
H61   H     H_    0.592939 0.825060 0.550172 0.192496
H62   H     H_    0.569848 0.879129 0.557168 0.269551
H63   H     H_    0.632566 0.843945 0.670892 0.298571
C154  C     C_3   0.587427 0.161479 0.586911 -0.721032
H64   H     H_    0.592454 0.175395 0.547065 0.188529
H65   H     H_    0.634626 0.158331 0.670113 0.296989
H66   H     H_    0.572653 0.121145 0.559153 0.272701
C155  C     C_3   0.086470 0.338993 0.587423 -0.730385
H67   H     H_    0.093095 0.324675 0.549974 0.192303
H68   H     H_    0.070310 0.378890 0.557233 0.269573
H69   H     H_    0.132927 0.343589 0.670827 0.298348
C156  C     C_3   0.087322 0.661376 0.586930 -0.721977
H70   H     H_    0.092412 0.675258 0.547159 0.188403
H71   H     H_    0.134494 0.658177 0.670144 0.296811
H72   H     H_    0.072473 0.621056 0.559100 0.272709
Cl21  Cl    Cl    0.696687 0.563931 0.813513 -0.449964
Cl22  Cl    Cl    0.730073 0.452357 0.846962 -0.418579
Cl23  Cl    Cl    0.196999 0.063938 0.813815 -0.450097
Cl24  Cl    Cl    0.230427 0.952364 0.847397 -0.417635
C157  C     C_3   0.523854 0.846665 0.598699 -0.609384
H73   H     H_    0.522670 0.887723 0.583782 0.257620
H74   H     H_    0.478190 0.840881 0.561455 0.271130
H75   H     H_    0.562313 0.842652 0.683125 0.214336
C158  C     C_3   0.525576 0.152557 0.598981 -0.573310
H76   H     H_    0.564719 0.155594 0.683886 0.230321
H77   H     H_    0.480254 0.158261 0.562897 0.262049
H78   H     H_    0.523819 0.111717 0.582221 0.271503
C159  C     C_3   0.024228 0.346835 0.598769 -0.608283
H79   H     H_    0.023163 0.387854 0.583831 0.258304
H80   H     H_    0.978560 0.341212 0.561575 0.270698
H81   H     H_    0.062706 0.342871 0.683211 0.214774
C160  C     C_3   0.025436 0.652611 0.598948 -0.572480
H82   H     H_    0.064573 0.655660 0.683850 0.230509
H83   H     H_    0.980115 0.658375 0.562844 0.261952
H84   H     H_    0.023632 0.611758 0.582188 0.271846
Cl25  Cl    Cl    0.414206 0.855392 0.371536 -0.575385
Cl26  Cl    Cl    0.415696 0.143856 0.371432 -0.589402
Cl27  Cl    Cl    0.914560 0.355535 0.371610 -0.575059
Cl28  Cl    Cl    0.915573 0.643898 0.371392 -0.589530
C161  C     C_3   0.627913 0.718610 0.615726 -0.751784
H85   H     H_    0.668041 0.713324 0.700507 0.240593
H86   H     H_    0.635037 0.689198 0.589240 0.258838
H87   H     H_    0.635434 0.755337 0.603404 0.237649
C162  C     C_3   0.627457 0.281647 0.615038 -0.760544
H88   H     H_    0.634567 0.311532 0.589298 0.258410
H89   H     H_    0.667746 0.286204 0.700005 0.237391
H90   H     H_    0.634704 0.245266 0.601216 0.239267
C163  C     C_3   0.127806 0.218229 0.615675 -0.751804
H91   H     H_    0.167925 0.213013 0.700471 0.240452
H92   H     H_    0.134860 0.188682 0.589240 0.258952
H93   H     H_    0.135397 0.254862 0.603254 0.237728
C164  C     C_3   0.127498 0.781508 0.615061 -0.760680
H94   H     H_    0.134638 0.811351 0.589317 0.258564
H95   H     H_    0.167789 0.786082 0.700024 0.237547
H96   H     H_    0.134715 0.745098 0.601256 0.238853
C165  C     C_3   0.521056 0.734048 0.397951 -0.798776
H97   H     H_    0.553426 0.706184 0.418216 0.271981
H98   H     H_    0.479571 0.736592 0.312730 0.255085
H99   H     H_    0.545454 0.771229 0.429075 0.203123
C166  C     C_3   0.520264 0.267228 0.396945 -0.807211
H100  H     H_    0.478597 0.265054 0.311648 0.251604
H101  H     H_    0.552399 0.295405 0.417471 0.271241
H102  H     H_    0.544778 0.230063 0.427134 0.205530
C167  C     C_3   0.020952 0.233620 0.397864 -0.798661
H103  H     H_    0.053224 0.205624 0.418100 0.272039
H104  H     H_    0.979443 0.236167 0.312637 0.254790
H105  H     H_    0.045460 0.270748 0.428959 0.203208
C168  C     C_3   0.020305 0.767078 0.396979 -0.807737
H106  H     H_    0.978646 0.764907 0.311683 0.251711
H107  H     H_    0.052476 0.795209 0.417517 0.271161
H108  H     H_    0.044780 0.729893 0.427176 0.205431
Cl29  Cl    Cl    0.681941 0.949207 0.021834 -0.530838
Cl30  Cl    Cl    0.708339 0.060583 0.070356 -0.454073
Cl31  Cl    Cl    0.183008 0.449178 0.023776 -0.529442
Cl32  Cl    Cl    0.209481 0.560510 0.072226 -0.452981
Cl33  Cl    Cl    0.808403 0.941350 0.198466 -0.219591
Cl34  Cl    Cl    0.834480 0.050418 0.210269 -0.216983
Cl35  Cl    Cl    0.309570 0.441315 0.199475 -0.218676
Cl36  Cl    Cl    0.335382 0.550435 0.210762 -0.217073
C169  C     C_3   0.623594 0.940764 0.819100 -0.720955
H109  H     H_    0.602567 0.950569 0.835313 0.248217
H110  H     H_    0.584851 0.950262 0.735789 0.263212
H111  H     H_    0.629353 0.898540 0.825820 0.222387
C170  C     C_3   0.624757 0.047974 0.848890 -0.770262
H112  H     H_    0.620972 0.028219 0.887538 0.274729
H113  H     H_    0.626741 0.089912 0.860231 0.238449
H114  H     H_    0.578762 0.040494 0.765281 0.264664
C171  C     C_3   0.123563 0.440729 0.820041 -0.720756
H115  H     H_    0.102937 0.450511 0.836960 0.248132
H116  H     H_    0.084527 0.450234 0.736668 0.263275
H117  H     H_    0.129316 0.398500 0.826670 0.222219
C172  C     C_3   0.124945 0.547940 0.850119 -0.770214
H118  H     H_    0.121547 0.528177 0.889300 0.274552
H119  H     H_    0.126989 0.589877 0.861535 0.238512
H120  H     H_    0.078757 0.540455 0.766613 0.264786
C173  C     C_3   0.834659 0.939985 0.019929 -0.695109
H121  H     H_    0.802278 0.941931 0.938538 0.259325
H122  H     H_    0.880509 0.955276 0.063200 0.244487
H123  H     H_    0.843956 0.898837 0.041471 0.238607
C174  C     C_3   0.800328 0.043812 0.954388 -0.691298
H124  H     H_    0.763329 0.022786 0.881416 0.289452
H125  H     H_    0.793649 0.085113 0.936929 0.277627
H126  H     H_    0.844847 0.034436 0.988354 0.224056
C175  C     C_3   0.333988 0.439991 0.018373 -0.694937
H127  H     H_    0.301229 0.441860 0.936768 0.259455
H128  H     H_    0.379641 0.455340 0.060987 0.244255
H129  H     H_    0.343493 0.398866 0.040133 0.238899
C176  C     C_3   0.299419 0.543777 0.952755 -0.691187
H130  H     H_    0.262218 0.522734 0.879820 0.289364
H131  H     H_    0.292674 0.585065 0.935190 0.277702
H132  H     H_    0.343725 0.534397 0.986100 0.223860
Cl37  Cl    Cl    0.884499 0.956122 0.188660 -0.364623
Cl38  Cl    Cl    0.879687 0.065229 0.143281 -0.436872
Cl39  Cl    Cl    0.384705 0.456160 0.187851 -0.365906
Cl40  Cl    Cl    0.379486 0.565262 0.141961 -0.437372
C177  C     C_3   0.697894 0.560313 0.041606 -0.712606
H133  H     H_    0.647457 0.560513 0.961753 0.293960
H134  H     H_    0.701065 0.543762 0.091956 0.230047
H135  H     H_    0.714549 0.600485 0.068130 0.221991
C178  C     C_3   0.661826 0.454498 0.970750 -0.669883
H136  H     H_    0.622668 0.472503 0.894010 0.312338
H137  H     H_    0.655030 0.412559 0.962427 0.255397
H138  H     H_    0.656353 0.465896 0.011684 0.213919
C179  C     C_3   0.197618 0.060316 0.041142 -0.713826
H139  H     H_    0.147219 0.060541 0.961208 0.294157
H140  H     H_    0.200648 0.043752 0.091309 0.229650
H141  H     H_    0.214286 0.100478 0.067749 0.221906
C180  C     C_3   0.161580 0.954513 0.970227 -0.669456
H142  H     H_    0.122496 0.972513 0.893476 0.312332
H143  H     H_    0.154771 0.912578 0.961898 0.255498
H144  H     H_    0.155971 0.965928 0.010960 0.213793
Cl41  Cl    Cl    0.686484 0.949872 0.804051 -0.590589
Cl42  Cl    Cl    0.658381 0.060233 0.782307 -0.587804
Cl43  Cl    Cl    0.185589 0.449852 0.803369 -0.591155
Cl44  Cl    Cl    0.157649 0.560249 0.782078 -0.588884
Cl45  Cl    Cl    0.884959 0.558233 0.199889 -0.394283
Cl46  Cl    Cl    0.871092 0.449134 0.208703 -0.433012
Cl47  Cl    Cl    0.384887 0.058243 0.200144 -0.394097
Cl48  Cl    Cl    0.370953 0.949130 0.208834 -0.433491
Cl49  Cl    Cl    0.838623 0.550674 0.020164 -0.374666
Cl50  Cl    Cl    0.862586 0.439818 0.071854 -0.364111
Cl51  Cl    Cl    0.338883 0.050676 0.020738 -0.374435
Cl52  Cl    Cl    0.362813 0.939836 0.072444 -0.363267
Cl53  Cl    Cl    0.864378 0.712290 0.786194 -0.532850
Cl54  Cl    Cl    0.859889 0.271259 0.777105 -0.538618
Cl55  Cl    Cl    0.363889 0.213698 0.785211 -0.532834
Cl56  Cl    Cl    0.361183 0.777232 0.779767 -0.537646
C181  C     C_3   0.506656 0.148633 0.959479 -0.701012
H145  H     H_    0.477535 0.122199 0.948915 0.263482
H146  H     H_    0.488439 0.148827 0.888367 0.258309
H147  H     H_    0.556685 0.135291 0.025303 0.249521
C182  C     C_3   0.497923 0.849436 0.943120 -0.699492
H148  H     H_    0.466413 0.875266 0.928068 0.263088
H149  H     H_    0.546651 0.865497 0.006647 0.249497
H150  H     H_    0.479981 0.846373 0.872403 0.259457
C183  C     C_3   0.007994 0.648372 0.962171 -0.701345
H151  H     H_    0.979224 0.621873 0.952311 0.263457
H152  H     H_    0.989777 0.648099 0.891057 0.258200
H153  H     H_    0.058196 0.635463 0.028342 0.249470
C184  C     C_3   0.992592 0.347742 0.932371 -0.701500
H154  H     H_    0.959689 0.373134 0.914510 0.263062
H155  H     H_    0.040401 0.365488 0.994062 0.249233
H156  H     H_    0.974881 0.342771 0.862101 0.259750
C185  C     C_3   0.448682 0.317958 0.843604 -0.720512
H157  H     H_    0.404403 0.335743 0.802743 0.257494
H158  H     H_    0.483687 0.348475 0.879422 0.235131
H159  H     H_    0.438015 0.296168 0.787562 0.269147
C186  C     C_3   0.455216 0.675913 0.855541 -0.723722
H160  H     H_    0.412540 0.656428 0.817589 0.256734
H161  H     H_    0.442834 0.695377 0.796211 0.269358
H162  H     H_    0.492878 0.647032 0.896387 0.235247
C187  C     C_3   0.947786 0.816921 0.841804 -0.720481
H163  H     H_    0.903273 0.834434 0.800474 0.257428
H164  H     H_    0.982384 0.847672 0.876806 0.235350
H165  H     H_    0.937409 0.794764 0.786345 0.269017
C188  C     C_3   0.959366 0.172115 0.863858 -0.726305
H166  H     H_    0.917776 0.151638 0.828082 0.256933
H167  H     H_    0.945981 0.189943 0.802496 0.269310
H168  H     H_    0.998567 0.144377 0.907807 0.234564

loop_
_geom_bond_atom_site_label_1
_geom_bond_atom_site_label_2
_ccdc_geom_bond_type
C165  H97   S    
C82   C94   S    
C17   C53   T    
C130  H10   S    
C179  H139  S    
C36   C42   S    
C73   C93   S    
C110  C118  S    
C118  O38   A    
C75   C95   S    
C186  H160  S    
C187  H165  S    
C120  O48   A    
C173  H122  S    
C64   H4    S    
C153  H63   S    
C19   C55   T    
C138  H18   S    
O25   Zn1   S    
C183  H151  S    
C98   Cl34  S    
O28   Zn4   S    
C92   O32   A    
C72   C88   S    
C13   C51   S    
C14   C52   S    
C76   C156  S    
C80   C116  S    
C181  H146  S    
C46   O26   A    
C94   Cl26  S    
C62   Cl10  S    
C129  H9    S    
C168  H108  S    
C161  H86   S    
C75   C159  S    
C98   Cl30  S    
O3    Zn15  S    
C142  H28   S    
O13   Zn5   S    
C77   C113  S    
C120  O40   A    
C164  H95   S    
O5    Zn1   S    
C25   C29   S    
C166  H102  S    
O31   Zn7   S    
C101  Cl41  S    
C27   C31   S    
C107  C175  S    
C28   C32   S    
C35   Cl7   S    
C7    C123  S    
C112  C120  S    
C4    C23   S    
O38   Zn6   S    
C160  H82   S    
C82   C91   S    
C149  H51   S    
C33   C43   S    
C12   C40   S    
C182  H150  S    
C139  H19   S    
C13   Cl53  S    
C45   O25   A    
C66   C82   S    
C101  C169  S    
C102  C170  S    
C162  H90   S    
C106  C174  S    
C68   Cl16  S    
C165  H99   S    
C147  H44   S    
C169  H109  S    
C183  H153  S    
C167  H105  S    
C104  C172  S    
C144  H35   S    
C11   C183  S    
C160  H84   S    
C44   C50   S    
C16   Cl56  S    
C63   H3    S    
C105  Cl37  S    
C84   C88   S    
O1    Zn9   S    
C22   C58   T    
C100  Cl32  S    
C152  H60   S    
O21   Zn13  S    
C172  H118  S    
C10   C38   S    
C9    C15   S    
C7    C131  S    
C188  H167  S    
C10   C16   S    
C167  H103  S    
C76   C96   S    
C11   C13   S    
O30   Zn6   S    
C179  H141  S    
C171  H115  S    
C119  O47   A    
C15   C49   S    
C27   C143  S    
C34   Cl6   S    
O1    Zn13  S    
C117  O45   A    
O48   Zn12  S    
C61   C65   S    
C76   C160  S    
C150  H53   S    
C157  H73   S    
C142  H30   S    
O39   Zn7   S    
C73   C77   S    
C117  O37   A    
O3    Zn7   S    
C176  H130  S    
O24   Zn16  S    
C75   C79   S    
C41   C51   S    
C37   C57   S    
C126  Cl2   S    
C42   C52   S    
C170  H113  S    
C39   C51   S    
C67   C83   S    
C163  H91   S    
C40   C60   S    
C79   C115  S    
C69   C77   S    
C20   C56   T    
C61   H1    S    
C148  H48   S    
C71   C79   S    
C174  H124  S    
C180  H142  S    
C27   C33   S    
C23   C59   T    
O4    Zn16  S    
C143  H31   S    
C137  H13   S    
C31   C43   S    
O2    Zn10  S    
C123  O51   A    
C17   C45   S    
C139  H21   S    
C121  O41   A    
C144  H34   S    
C19   C47   S    
C156  H71   S    
C86   C166  S    
C11   C25   S    
O34   Zn10  S    
C85   C165  S    
C111  C119  S    
C141  H25   S    
C158  H77   S    
C81   C92   S    
O45   Zn9   S    
C8    C128  S    
C113  O33   A    
C68   C148  S    
C61   C77   S    
C154  H65   S    
O50   Zn2   S    
C171  H117  S    
C107  C108  S    
C131  H11   S    
C87   C167  S    
C140  H22   S    
C128  Cl4   S    
C74   C158  S    
C157  H75   S    
C103  C171  S    
C1    C22   S    
C38   C58   S    
C159  H80   S    
C3    C24   S    
O7    Zn3   S    
C177  H134  S    
C148  H46   S    
C160  H83   S    
C132  C180  S    
C155  H68   S    
C172  H120  S    
O11   Zn15  S    
C62   C66   S    
C94   H6    S    
C28   C144  S    
O2    Zn6   S    
O16   Zn8   S    
C175  H129  S    
C49   C185  S    
C104  C112  S    
C12   C26   S    
C63   C67   S    
C152  H58   S    
C63   Cl11  S    
O46   Zn10  S    
C97   C109  S    
O52   Zn4   S    
C70   C150  S    
C99   C111  S    
C151  H55   S    
C122  O50   A    
C176  H132  S    
C146  H41   S    
C66   C146  S    
O41   Zn13  S    
C91   O7    A    
C108  Cl40  S    
C26   C30   S    
C178  H138  S    
C105  C173  S    
C9    C181  S    
C90   O6    A    
C67   Cl15  S    
C174  H126  S    
C69   C85   S    
C169  H110  S    
C129  C130  S    
C184  H156  S    
C105  C109  S    
C143  H33   S    
C4    O24   A    
C29   C41   S    
C107  C111  S    
C62   C78   S    
C65   C145  S    
C76   C80   S    
C145  H39   S    
C15   C31   S    
C127  C128  S    
C103  C111  S    
C25   C141  S    
C16   C32   S    
C21   C57   T    
C141  H27   S    
C113  O9    A    
C72   C80   S    
C44   C140  S    
C73   C153  S    
C116  O36   A    
C5    C129  S    
C138  H17   S    
C93   Cl25  S    
C35   C41   S    
C140  H24   S    
C119  O39   A    
C25   C35   S    
C7    C135  S    
C28   C34   S    
C75   C155  S    
C181  H145  S    
C5    C125  S    
C7    C127  S    
C106  Cl38  S    
C47   O27   A    
C100  Cl36  S    
O8    Zn4   S    
C127  Cl3   S    
C83   C87   S    
C90   O30   A    
C95   H7    S    
C101  C102  S    
C98   C110  S    
C8    C136  S    
C183  H152  S    
C74   C94   S    
C126  Cl22  S    
C61   Cl9   S    
C164  H94   S    
C109  C117  S    
C135  C136  S    
C78   C114  S    
C166  H101  S    
C178  H136  S    
C13   C29   S    
C16   C50   S    
C81   C93   S    
C116  O12   A    
C137  H15   S    
C180  H144  S    
C101  C109  S    
O12   Zn16  S    
O26   Zn2   S    
C151  H57   S    
C149  H49   S    
C99   Cl35  S    
C148  H47   S    
C182  H149  S    
C131  C179  S    
C125  Cl21  S    
O43   Zn15  S    
C64   C80   S    
C127  Cl23  S    
C128  Cl24  S    
C107  Cl39  S    
C122  O42   A    
C88   Cl20  S    
C162  H89   S    
C72   C152  S    
C103  Cl43  S    
C6    C130  S    
O23   Zn15  S    
C186  H161  S    
O4    Zn12  S    
C1    O13   A    
C165  H98   S    
C147  H43   S    
O14   Zn6   S    
O51   Zn3   S    
C179  H140  S    
C130  C178  S    
C136  Cl48  S    
C104  Cl44  S    
C18   C46   S    
O6    Zn2   S    
O4    Zn8   S    
C97   C98   S    
C153  H62   S    
C168  H107  S    
C68   C84   S    
C6    C126  S    
C173  H123  S    
O1    Zn5   S    
C8    C124  S    
C74   C154  S    
C86   Cl18  S    
C33   C37   S    
C108  C112  S    
C115  O11   A    
C161  H87   S    
C14   Cl54  S    
C5    C133  S    
C150  H52   S    
C144  H36   S    
C30   C54   S    
C65   C81   S    
C181  H147  S    
C95   Cl27  S    
C2    C21   S    
C62   H2    S    
C20   C48   S    
C2    O22   A    
C71   C87   S    
C26   C36   S    
C100  C112  S    
C142  H29   S    
C65   Cl13  S    
C133  C134  S    
C102  C110  S    
C149  H50   S    
O2    Zn2   S    
C123  O43   A    
C131  C132  S    
C64   C68   S    
C124  O44   A    
C164  H96   S    
C93   H5    S    
C9    C27   S    
C170  H112  S    
C10   C28   S    
C187  H164  S    
O40   Zn8   S    
C46   O18   A    
C153  H61   S    
C108  C176  S    
C115  O35   A    
C43   C139  S    
O22   Zn14  S    
C150  H54   S    
C105  C106  S    
C124  O52   A    
C133  Cl49  S    
C167  H104  S    
O27   Zn3   S    
C139  H20   S    
C114  O34   A    
C82   C86   S    
O17   Zn9   S    
C156  H70   S    
C145  H37   S    
O15   Zn7   S    
O29   Zn5   S    
C158  H76   S    
C118  O46   A    
C163  H93   S    
C33   Cl5   S    
C67   C147  S    
C6    C134  S    
C154  H64   S    
C74   C78   S    
C147  H45   S    
C140  H23   S    
C103  C104  S    
C171  H116  S    
C30   C42   S    
C50   C186  S    
C31   C55   S    
C173  H121  S    
C45   O17   A    
C32   C56   S    
C41   C137  S    
C125  Cl1   S    
C36   Cl8   S    
C70   C78   S    
C159  H79   S    
O20   Zn12  S    
C35   C39   S    
C177  H133  S    
C69   C161  S    
C63   C79   S    
C155  H67   S    
C172  H119  S    
C188  H166  S    
O3    Zn11  S    
C133  Cl45  S    
C155  H69   S    
C188  H168  S    
C175  H128  S    
C102  Cl42  S    
C70   C162  S    
C96   H8    S    
O35   Zn11  S    
C10   C182  S    
C5    C121  S    
C37   C49   S    
O33   Zn9   S    
C84   C96   S    
C135  Cl51  S    
C15   Cl55  S    
C185  H158  S    
C69   C149  S    
C157  H74   S    
C91   O31   A    
C8    C132  S    
C4    O16   A    
O49   Zn1   S    
C71   C163  S    
C89   O29   A    
C176  H131  S    
C146  H40   S    
C26   C142  S    
C152  H59   S    
C170  H114  S    
C12   C184  S    
O18   Zn10  S    
C39   C59   S    
C163  H92   S    
O4    Zn4   S    
C14   C30   S    
C114  O10   A    
C174  H125  S    
O36   Zn12  S    
C184  H155  S    
C97   Cl29  S    
C129  C177  S    
C85   Cl17  S    
C143  H32   S    
C180  H143  S    
C99   Cl31  S    
C132  H12   S    
O37   Zn5   S    
C36   C40   S    
C34   C44   S    
C145  H38   S    
C43   C49   S    
C156  H72   S    
C187  H163  S    
C40   C52   S    
C141  H26   S    
C158  H78   S    
C184  H154  S    
C169  H111  S    
C47   O19   A    
O47   Zn11  S    
C134  Cl50  S    
C89   O5    A    
C99   C100  S    
C48   O20   A    
C135  Cl47  S    
C24   C60   T    
C154  H66   S    
C83   C95   S    
C9    C37   S    
C185  H157  S    
C32   C44   S    
C92   O8    A    
O10   Zn14  S    
C51   C187  S    
C11   C39   S    
O42   Zn14  S    
C121  O49   A    
C96   Cl28  S    
C12   C14   S    
C159  H81   S    
C84   C89   S    
C6    C122  S    
C70   C86   S    
O1    Zn1   S    
C177  H135  S    
C168  H106  S    
C106  C110  S    
C42   C138  S    
C88   C168  S    
C83   C90   S    
C97   Cl33  S    
C138  H16   S    
C34   C38   S    
O3    Zn3   S    
C38   C50   S    
C73   C157  S    
C166  H100  S    
O9    Zn13  S    
C185  H159  S    
C87   Cl19  S    
C3    O15   A    
O19   Zn11  S    
C52   C188  S    
C137  H14   S    
C136  Cl52  S    
C3    O23   A    
C125  C126  S    
C29   C53   S    
C134  Cl46  S    
C1    O21   A    
C151  H56   S    
C66   Cl14  S    
C175  H127  S    
C72   C164  S    
O2    Zn14  S    
C182  H148  S    
C146  H42   S    
C81   C85   S    
C186  H162  S    
C18   C54   T    
C178  H137  S    
C161  H85   S    
C71   C151  S    
C48   O28   A    
C162  H88   S    
O32   Zn8   S    
O44   Zn16  S    
C64   Cl12  S    
C2    O14   A    
