data_mof_unit_50107.cif
_audit_creation_date              2012-10-26T20:20:44-0400
_audit_creation_method            fapswitch 2.2
_symmetry_space_group_name_H-M    P1
_symmetry_Int_Tables_number       1
_space_group_crystal_system       triclinic
_cell_length_a                    8.803592
_cell_length_b                    10.785386
_cell_length_c                    9.624523
_cell_angle_alpha                 90.454582
_cell_angle_beta                  97.834457
_cell_angle_gamma                 92.235822
_cell_volume                      904.549689527

loop_
_atom_site_label
_atom_site_type_symbol
_atom_type_description
_atom_site_fract_x
_atom_site_fract_y
_atom_site_fract_z
_atom_type_partial_charge
C1    C     C_R   0.502314 0.262680 0.499764 0.574660
C2    C     C_R   0.401618 0.063779 0.574680 -0.120301
C3    C     C_R   0.496723 0.871245 0.500706 -0.018998
C4    C     C_R   0.503277 0.128755 0.499294 -0.018998
C5    C     C_R   0.412409 0.413428 0.061476 0.255253
C6    C     C_R   0.587591 0.586572 0.938524 0.255253
C7    C     C_R   0.409004 0.416945 0.913200 0.370088
C8    C     C_R   0.590996 0.583054 0.086800 0.370088
C9    C     C_3   0.365246 0.190313 0.099436 -0.201869
C10   C     C_3   0.634754 0.809686 0.900563 -0.201869
C11   C     C_R   0.497686 0.737320 0.500236 0.574659
C12   C     C_R   0.204658 0.499336 0.464620 0.593730
C13   C     C_R   0.795342 0.500664 0.535380 0.593730
C14   C     C_2   0.040126 0.485412 0.446913 0.222775
C15   C     C_2   0.959874 0.514588 0.553086 0.222775
C16   C     C_R   0.602827 0.064792 0.424449 0.198137
C17   C     C_R   0.397173 0.935208 0.575551 0.198137
C18   C     C_R   0.598382 0.936221 0.425320 -0.120301
Cl1   Cl    Cl    0.958619 0.413245 0.285657 -0.453724
Cl2   Cl    Cl    0.041381 0.586755 0.714342 -0.453724
Cl3   Cl    Cl    0.738496 0.141537 0.333271 -0.502273
Cl4   Cl    Cl    0.261504 0.858462 0.666728 -0.502273
Cl5   Cl    Cl    0.275416 0.318163 0.807943 -0.524453
Cl6   Cl    Cl    0.724584 0.681837 0.192057 -0.524453
Cu1   Cu    Cu3+1 0.500000 0.500020 0.640660 1.122306
Cu2   Cu    Cu3+1 0.500000 0.499980 0.359340 1.122306
H1    H     H_    0.676773 0.887027 0.369552 0.212512
H2    H     H_    0.530207 0.815370 0.953091 0.180371
H3    H     H_    0.323226 0.112973 0.630448 0.212512
H4    H     H_    0.271313 0.334980 0.203981 0.316363
H5    H     H_    0.386855 0.144796 0.202564 0.159388
H6    H     H_    0.469794 0.184630 0.046908 0.180371
H7    H     H_    0.268672 0.138110 0.035708 0.207652
H8    H     H_    0.728687 0.665019 0.796019 0.316363
H9    H     H_    0.613145 0.855204 0.797436 0.159388
H10   H     H_    0.731328 0.861889 0.964292 0.207652
N1    N     N_R   0.500040 0.500030 0.852080 -0.254849
N2    N     N_R   0.499960 0.499970 0.147920 -0.254849
N3    N     N_2   0.323357 0.317666 0.117568 -0.449988
N4    N     N_2   0.676643 0.682334 0.882432 -0.449988
O1    O     O_R   0.499990 0.319660 0.618740 -0.475712
O2    O     O_R   0.500010 0.680340 0.381260 -0.475712
O3    O     O_R   0.499990 0.319630 0.381170 -0.486363
O4    O     O_R   0.500010 0.680370 0.618830 -0.486363
O5    O     O_R   0.274840 0.500010 0.591370 -0.418836
O6    O     O_R   0.725160 0.499990 0.408630 -0.418835
O7    O     O_R   0.274830 0.499980 0.353800 -0.505871
O8    O     O_R   0.725170 0.500020 0.646200 -0.505870

loop_
_geom_bond_atom_site_label_1
_geom_bond_atom_site_label_2
_ccdc_geom_bond_type
C4    C16   A    
C13   O8    A    
C2    C4    A    
C16   Cl3   S    
C17   Cl4   S    
C1    C4    S    
C13   C15   S    
C7    N1    A    
C6    N1    A    
C11   O4    A    
C5    N2    A    
C2    C17   A    
C9    H7    S    
Cu1   O8    S    
C15   Cl2   S    
C8    N2    A    
Cu2   O7    S    
C11   O2    A    
C2    H3    S    
C7    Cl5   S    
Cu1   O4    S    
C10   N4    S    
C8    Cl6   S    
C12   C14   S    
Cu2   O3    S    
C3    C17   A    
C6    N4    S    
C12   O7    A    
C13   O6    A    
C10   H9    S    
H8    N4    S    
C3    C11   S    
C9    H5    S    
C10   H2    S    
Cu1   O5    S    
C9    N3    S    
Cu2   O2    S    
C3    C18   A    
C16   C18   A    
Cu1   O1    S    
H4    N3    S    
C5    C7    A    
C5    N3    S    
Cu2   O6    S    
C14   C15   D    
Cu2   N2    S    
C6    C8    A    
C9    H6    S    
Cu1   N1    S    
Cu1   Cu2   S    
C14   Cl1   S    
C1    O3    A    
C18   H1    S    
C1    O1    A    
C12   O5    A    
C10   H10   S    
