data_mof_unit_12432.cif
_audit_creation_date              2012-12-10T18:18:17-0500
_audit_creation_method            fapswitch 2.2
_symmetry_space_group_name_H-M    P1
_symmetry_Int_Tables_number       1
_space_group_crystal_system       triclinic
_cell_length_a                    14.133987
_cell_length_b                    14.905951
_cell_length_c                    15.493024
_cell_angle_alpha                 88.129257
_cell_angle_beta                  66.959333
_cell_angle_gamma                 89.422843
_cell_volume                      3002.08005565

loop_
_atom_site_label
_atom_site_type_symbol
_atom_type_description
_atom_site_fract_x
_atom_site_fract_y
_atom_site_fract_z
_atom_type_partial_charge
C1    C     C_R   0.499996 0.672651 0.498729 0.868985
C2    C     C_R   0.499305 0.767853 0.495993 -0.121213
C3    C     C_R   0.532794 0.190614 0.418251 -0.262387
C4    C     C_R   0.458455 0.809573 0.580697 -0.266627
C5    C     C_R   0.533325 0.097849 0.415351 0.086678
C6    C     C_R   0.455421 0.902284 0.583531 0.089516
C7    C     C_R   0.495351 0.046893 0.500917 -0.071998
C8    C     C_R   0.494521 0.953215 0.498044 -0.071739
C9    C     C_R   0.458998 0.089963 0.589129 0.098646
C10   C     C_R   0.532750 0.910021 0.409917 0.100124
C11   C     C_R   0.569477 0.056244 0.328027 0.154393
C12   C     C_R   0.500069 0.327352 0.500802 0.869112
C13   C     C_R   0.415350 0.943823 0.670822 0.154920
C14   C     C_R   0.567014 0.962298 0.325108 0.039500
C15   C     C_R   0.419147 0.037686 0.673957 0.036655
C16   C     C_R   0.435335 0.502168 0.676885 0.882874
C17   C     C_R   0.564962 0.499863 0.323214 0.900131
C18   C     C_R   0.179971 0.434424 0.550441 0.179373
C19   C     C_R   0.821629 0.557504 0.440074 0.185648
C20   C     C_R   0.221423 0.563675 0.448468 0.157823
C21   C     C_R   0.774954 0.434886 0.550912 0.173102
C22   C     C_R   0.126214 0.557219 0.437022 0.007605
C23   C     C_R   0.382299 0.438204 0.107218 -0.249098
C24   C     C_R   0.877786 0.428002 0.547318 -0.036332
C25   C     C_R   0.053857 0.491232 0.489548 -0.063493
C26   C     C_R   0.952612 0.490881 0.489474 -0.034746
C27   C     C_R   0.082258 0.426751 0.543507 -0.036449
C28   C     C_R   0.926428 0.553221 0.431173 -0.067957
C29   C     C_R   0.102696 0.613822 0.372660 0.069680
C30   C     C_R   0.909412 0.359449 0.596293 0.028358
C31   C     C_R   0.005763 0.608100 0.366032 0.162832
C32   C     C_R   0.012059 0.356069 0.589919 0.186149
C33   C     C_R   0.394779 0.499116 0.780732 -0.176810
C34   C     C_R   0.620483 0.442536 0.895942 -0.190207
C35   C     C_R   0.606438 0.489662 0.220622 -0.199433
C36   C     C_R   0.260468 0.460027 0.934128 0.030103
C37   C     C_R   0.739385 0.444219 0.072368 0.036798
C38   C     C_R   0.290194 0.480288 0.837092 0.138014
C39   C     C_R   0.708253 0.461124 0.168563 0.169665
C40   C     C_R   0.465645 0.506717 0.823895 0.098274
C41   C     C_R   0.538058 0.501908 0.175709 0.110224
C42   C     C_R   0.440289 0.471621 0.915072 -0.009714
C43   C     C_R   0.561874 0.465930 0.087197 0.019835
C44   C     C_R   0.335683 0.455059 0.972772 0.091439
C45   C     C_R   0.308438 0.435537 0.068754 -0.191764
C46   C     C_R   0.665859 0.446747 0.031223 0.055032
C47   C     C_R   0.516313 0.458690 0.952485 0.109579
C48   C     C_R   0.486074 0.456089 0.050066 0.094107
C49   C     C_3   0.015811 0.596615 0.207723 -0.835054
C50   C     C_3   0.099590 0.213193 0.556869 -0.746551
C51   C     C_3   0.468942 0.648855 0.158298 -0.789242
C52   C     C_3   0.533338 0.657866 0.774315 -0.728180
C53   C     C_3   0.789222 0.365737 0.248357 -0.729291
C54   C     C_3   0.181404 0.575298 0.785896 -0.757412
C55   C     C_3   0.716105 0.133623 0.211758 -0.829866
C56   C     C_R   0.693408 0.432712 0.935311 -0.226859
C57   C     C_3   0.266006 0.864529 0.781286 -0.824932
C58   C     C_R   0.463284 0.184433 0.588978 0.069965
C59   C     C_R   0.535876 0.815445 0.410119 0.064471
C60   C     C_R   0.499611 0.232150 0.503158 -0.117352
H1    H     H_    0.229715 0.420611 0.115155 0.175013
H2    H     H_    0.812456 0.608587 0.319786 0.214633
H3    H     H_    0.273671 0.681802 0.472857 0.206273
H4    H     H_    0.357663 0.628022 0.376589 0.246561
H5    H     H_    0.712558 0.309334 0.580685 0.203725
H6    H     H_    0.682252 0.377007 0.676350 0.169826
H7    H     H_    0.152153 0.739407 0.319908 0.176954
H8    H     H_    0.196726 0.656587 0.240344 0.195148
H9    H     H_    0.830170 0.294184 0.720899 0.170956
H10   H     H_    0.866539 0.228050 0.625072 0.196926
H11   H     H_    0.021324 0.715923 0.271782 0.221971
H12   H     H_    0.771627 0.417502 0.889277 0.139293
H13   H     H_    0.989781 0.630795 0.156178 0.237602
H14   H     H_    0.976128 0.530675 0.228559 0.252046
H15   H     H_    0.099869 0.584927 0.173537 0.247577
H16   H     H_    0.994142 0.250154 0.687994 0.212771
H17   H     H_    0.129225 0.158626 0.589916 0.236409
H18   H     H_    0.166004 0.244881 0.498739 0.258544
H19   H     H_    0.046685 0.183696 0.527987 0.221290
H20   H     H_    0.382904 0.541029 0.241334 0.243907
H21   H     H_    0.458520 0.637643 0.092065 0.249280
H22   H     H_    0.546293 0.678067 0.142018 0.250906
H23   H     H_    0.358705 0.420726 0.180954 0.149444
H24   H     H_    0.410267 0.697634 0.199928 0.244448
H25   H     H_    0.616314 0.539282 0.729189 0.248206
H26   H     H_    0.605524 0.696996 0.754967 0.230850
H27   H     H_    0.476404 0.682704 0.841657 0.240648
H28   H     H_    0.503619 0.668420 0.718373 0.227387
H29   H     H_    0.851719 0.481612 0.170524 0.233948
H30   H     H_    0.839379 0.368747 0.288291 0.228845
H31   H     H_    0.823583 0.318604 0.190175 0.230803
H32   H     H_    0.712459 0.340475 0.296715 0.243772
H33   H     H_    0.154452 0.440809 0.826122 0.207990
H34   H     H_    0.645388 0.431901 0.821918 0.134772
H35   H     H_    0.130069 0.573312 0.747041 0.227219
H36   H     H_    0.248139 0.619216 0.745312 0.252939
H37   H     H_    0.138497 0.604454 0.855532 0.220116
H38   H     H_    0.110887 0.499350 0.988556 0.197263
H39   H     H_    0.128920 0.387069 0.971763 0.182123
H40   H     H_    0.875860 0.469309 0.963953 0.178318
H41   H     H_    0.847769 0.358451 0.991254 0.179436
H42   H     H_    0.370523 0.275504 0.678191 0.180372
H43   H     H_    0.492188 0.270954 0.674629 0.183653
H44   H     H_    0.639006 0.728137 0.324591 0.187330
H45   H     H_    0.557890 0.232094 0.354405 0.169972
H46   H     H_    0.520405 0.724844 0.321205 0.187298
H47   H     H_    0.589216 0.088186 0.189526 0.223804
H48   H     H_    0.765269 0.073211 0.189643 0.236942
H49   H     H_    0.731503 0.165722 0.268660 0.253639
H50   H     H_    0.736830 0.181976 0.151103 0.242941
H51   H     H_    0.386973 0.912227 0.811515 0.222050
H52   H     H_    0.215464 0.924430 0.799536 0.237381
H53   H     H_    0.242110 0.817340 0.843075 0.240654
H54   H     H_    0.256066 0.830162 0.722824 0.252671
H55   H     H_    0.549594 0.940246 0.203226 0.173845
H56   H     H_    0.429887 0.768315 0.644533 0.164788
H57   H     H_    0.673981 0.939613 0.193990 0.193516
H58   H     H_    0.304814 0.060386 0.801298 0.192619
H59   H     H_    0.426047 0.059579 0.800309 0.175814
H60   H     H_    0.268102 0.393547 0.622674 0.255867
H61   H     H_    0.143908 0.391091 0.683676 0.164011
H62   H     H_    0.809424 0.687424 0.400097 0.179623
N1    N     N_R   0.249980 0.499930 0.499960 -0.143876
N2    N     N_2   0.045934 0.278497 0.626269 -0.304702
N3    N     N_2   0.456806 0.565528 0.212153 -0.299802
N4    N     N_2   0.554036 0.563747 0.784117 -0.296376
N5    N     N_2   0.780887 0.454369 0.211259 -0.283560
N6    N     N_2   0.214912 0.485166 0.797176 -0.302114
N7    N     N_3   0.154515 0.444043 0.993889 -0.480648
N8    N     N_3   0.844896 0.421901 0.018992 -0.481221
N9    N     N_3   0.430659 0.232465 0.674816 -0.433299
N10   N     N_3   0.577311 0.767298 0.324347 -0.436002
N11   N     N_2   0.608611 0.109575 0.243037 -0.313059
N12   N     N_R   0.750020 0.500070 0.500040 -0.104569
N13   N     N_2   0.372251 0.890429 0.755578 -0.317350
N14   N     N_3   0.598720 0.920248 0.236062 -0.433057
N15   N     N_3   0.381139 0.079701 0.763271 -0.430920
N16   N     N_3   0.200069 0.377378 0.617696 -0.412788
N17   N     N_3   0.786030 0.623480 0.390661 -0.393214
N18   N     N_3   0.281269 0.643662 0.415194 -0.436135
N19   N     N_3   0.694505 0.374214 0.605629 -0.393585
N20   N     N_3   0.179761 0.673646 0.309630 -0.452927
N21   N     N_3   0.838604 0.291069 0.650944 -0.504352
N22   N     N_2   0.991636 0.651906 0.288805 -0.331367
O1    O     O_R   0.419720 0.632140 0.499980 -0.646118
O2    O     O_R   0.580280 0.367860 0.500020 -0.604746
O3    O     O_R   0.580270 0.632160 0.499970 -0.591915
O4    O     O_R   0.419730 0.367840 0.500030 -0.622481
O5    O     O_R   0.373870 0.499980 0.632250 -0.610083
O6    O     O_R   0.626130 0.500020 0.367750 -0.577007
O7    O     O_R   0.534420 0.500000 0.632240 -0.603309
O8    O     O_R   0.465580 0.500000 0.367760 -0.619156
Zn1   Zn    Zn3+2 0.392800 0.499980 0.500010 0.916403
Zn2   Zn    Zn3+2 0.607200 0.500020 0.499990 0.953504

loop_
_geom_bond_atom_site_label_1
_geom_bond_atom_site_label_2
_ccdc_geom_bond_type
C34   C56   A    
C23   C45   A    
C22   C29   A    
C41   C43   A    
H3    N18   S    
C32   N2    S    
C1    O1    A    
C17   O6    A    
H51   N13   S    
C50   H19   S    
C7    C8    A    
H6    N19   S    
C3    H45   S    
C19   N12   A    
H46   N10   S    
H10   N21   S    
C23   H23   S    
C24   C26   A    
H62   N17   S    
C1    C2    S    
C11   N11   S    
H4    N18   S    
C11   C14   A    
H40   N8    S    
C57   H52   S    
H55   N14   S    
C29   N20   S    
C58   C60   A    
C49   N22   S    
C37   N8    S    
C9    C58   A    
O7    Zn2   S    
C12   O2    A    
C31   N22   S    
C18   N16   S    
O3    Zn2   S    
O5    Zn1   S    
C20   N1    A    
C53   N5    S    
C56   H12   S    
C22   C25   A    
C53   H31   S    
C49   H15   S    
C54   H37   S    
H8    N20   S    
C16   O5    A    
H47   N11   S    
H2    N17   S    
H58   N15   S    
C43   C48   A    
C51   H21   S    
C54   H36   S    
C18   N1    A    
O1    Zn1   S    
C3    C60   A    
C45   H1    S    
C40   C42   A    
O6    Zn2   S    
C55   H49   S    
C13   N13   S    
H25   N4    S    
C42   C44   A    
C50   H18   S    
C28   C31   A    
C37   C39   A    
C59   N10   S    
C33   C40   A    
C39   N5    S    
H39   N7    S    
C51   N3    S    
C41   N3    S    
C52   H28   S    
C50   N2    S    
H42   N9    S    
C4    C6    A    
C10   C14   A    
C5    C7    A    
C52   N4    S    
C2    C59   A    
C57   H53   S    
C25   C26   A    
C55   N11   S    
C54   N6    S    
C30   N21   S    
H59   N15   S    
H61   N16   S    
C35   C39   A    
C16   C33   S    
H5    N19   S    
C38   N6    S    
C47   C48   A    
O2    Zn2   S    
C58   N9    S    
C40   N4    S    
C53   H32   S    
C19   C28   A    
C51   H22   S    
C54   H35   S    
C19   N17   S    
C20   C22   A    
C13   C15   A    
C55   H50   S    
H44   N10   S    
C49   H13   S    
C36   C44   A    
C17   O8    A    
H60   N16   S    
O4    Zn1   S    
C50   H17   S    
C21   N12   A    
C44   C45   A    
H29   N5    S    
C7    C9    A    
C23   C48   A    
C27   C32   A    
C4    H56   S    
C52   H27   S    
C18   C27   A    
C34   H34   S    
C3    C5    A    
N1    Zn1   S    
C6    C8    A    
C5    C11   A    
C57   H54   S    
C25   C27   A    
C26   C28   A    
C33   C38   A    
C55   H48   S    
H9    N21   S    
C20   N18   S    
C36   C38   A    
C10   C59   A    
C9    C15   A    
H33   N6    S    
C21   N19   S    
C29   C31   A    
C36   N7    S    
H41   N8    S    
C6    C13   A    
C30   C32   A    
H7    N20   S    
C12   O4    A    
N12   Zn2   S    
C14   N14   S    
C2    C4    A    
H38   N7    S    
C52   H26   S    
C16   O7    A    
C42   C47   A    
C35   C41   A    
C43   C46   A    
C24   C30   A    
C1    O3    A    
H16   N2    S    
C12   C60   S    
O8    Zn1   S    
C8    C10   A    
H20   N3    S    
C21   C24   A    
C46   C56   A    
C53   H30   S    
C49   H14   S    
C57   N13   S    
C34   C47   A    
C17   C35   S    
C37   C46   A    
H57   N14   S    
H43   N9    S    
C51   H24   S    
H11   N22   S    
C15   N15   S    
