data_mof_unit_30090.cif
_audit_creation_date              2012-12-10T20:48:20-0500
_audit_creation_method            fapswitch 2.2
_symmetry_space_group_name_H-M    P1
_symmetry_Int_Tables_number       1
_space_group_crystal_system       triclinic
_cell_length_a                    10.743053
_cell_length_b                    8.892159
_cell_length_c                    8.124864
_cell_angle_alpha                 89.927312
_cell_angle_beta                  90.75395
_cell_angle_gamma                 90.911483
_cell_volume                      775.993771733

loop_
_atom_site_label
_atom_site_type_symbol
_atom_type_description
_atom_site_fract_x
_atom_site_fract_y
_atom_site_fract_z
_atom_type_partial_charge
C1    C     C_R   0.500628 0.218113 0.500124 0.927411
C2    C     C_1   0.495894 0.934548 0.500124 -0.249152
C3    C     C_3   0.080692 0.669412 0.450644 0.759614
C4    C     C_3   0.932195 0.679364 0.465056 0.738743
C5    C     C_3   0.121372 0.502715 0.496277 0.003598
C6    C     C_3   0.880313 0.513542 0.503849 0.007040
C7    C     C_3   0.173729 0.906089 0.538557 0.227036
C8    C     C_3   0.209836 0.994676 0.692183 -0.894882
C9    C     C_3   0.108289 0.648836 0.149570 0.044211
C10   C     C_3   0.131883 0.757132 0.006469 -0.827842
C11   C     C_3   0.792316 0.838412 0.618636 0.115617
C12   C     C_R   0.257118 0.495280 0.498730 0.921892
C13   C     C_3   0.753417 0.831719 0.797532 -0.825700
C14   C     C_3   0.887762 0.882438 0.273538 0.092784
C15   C     C_3   0.764529 0.944654 0.211254 -0.876098
C16   C     C_R   0.743309 0.504932 0.501384 0.886999
C17   C     C_R   0.492675 0.781458 0.499798 0.949421
C18   C     C_1   0.498581 0.065214 0.500350 -0.222093
C19   C     C_3   0.072810 0.462560 0.672485 -0.437227
C20   C     C_3   0.064676 0.378527 0.383279 -0.555647
C21   C     C_3   0.930968 0.462127 0.674377 -0.445380
C22   C     C_3   0.923992 0.396912 0.374204 -0.475812
H1    H     H_    0.108943 0.542521 0.766387 0.234390
H2    H     H_    0.255032 0.902682 0.456623 0.167009
H3    H     H_    0.285766 0.937311 0.760270 0.272613
H4    H     H_    0.242863 0.109096 0.656987 0.204595
H5    H     H_    0.127755 0.005807 0.772584 0.261098
H6    H     H_    0.012556 0.603525 0.138109 0.174341
H7    H     H_    0.176500 0.558526 0.134957 0.184204
H8    H     H_    0.150294 0.873627 0.050787 0.260333
H9    H     H_    0.214698 0.722487 0.936197 0.254654
H10   H     H_    0.049841 0.758815 0.921892 0.261833
H11   H     H_    0.722507 0.783843 0.538790 0.169169
H12   H     H_    0.103875 0.371949 0.258974 0.177573
H13   H     H_    0.797482 0.959467 0.585974 0.140553
H14   H     H_    0.826735 0.886646 0.875149 0.250162
H15   H     H_    0.664824 0.892341 0.813446 0.228643
H16   H     H_    0.740522 0.713768 0.838855 0.266954
H17   H     H_    0.954261 0.892319 0.171867 0.191184
H18   H     H_    0.921667 0.955759 0.373628 0.135030
H19   H     H_    0.705119 0.974340 0.315809 0.237560
H20   H     H_    0.781429 0.048170 0.137666 0.213509
H21   H     H_    0.713889 0.860043 0.134492 0.291554
H22   H     H_    0.899385 0.536607 0.774783 0.220935
H23   H     H_    0.894834 0.430013 0.247961 0.207150
H24   H     H_    0.105963 0.349772 0.711719 0.179139
H25   H     H_    0.085324 0.266116 0.436986 0.194876
H26   H     H_    0.895974 0.346471 0.702802 0.188358
H27   H     H_    0.878990 0.285075 0.397098 0.184454
H28   H     H_    0.099623 0.968048 0.475131 0.124268
N1    N     N_1   0.500000 0.500030 0.073640 -0.043372
N2    N     N_1   0.500000 0.500030 0.926360 -0.049542
O1    O     O_R   0.500000 0.285340 0.636850 -0.618731
O2    O     O_3   0.130846 0.726659 0.298497 -0.679372
O3    O     O_3   0.911067 0.775573 0.604108 -0.650219
O4    O     O_3   0.871425 0.728697 0.316442 -0.674091
O5    O     O_R   0.500000 0.285340 0.363150 -0.620598
O6    O     O_R   0.314790 0.499970 0.636880 -0.624722
O7    O     O_R   0.314790 0.499970 0.363120 -0.628565
O8    O     O_R   0.685210 0.499970 0.636880 -0.643665
O9    O     O_R   0.685210 0.499970 0.363120 -0.597456
O10   O     O_R   0.500000 0.714650 0.636900 -0.620305
O11   O     O_R   0.500000 0.714650 0.363100 -0.600227
O12   O     O_3   0.135334 0.758158 0.582411 -0.632593
Zn1   Zn    Zn3+2 0.500000 0.499990 0.682780 0.957760
Zn2   Zn    Zn3+2 0.500000 0.499990 0.317220 0.985023

loop_
_geom_bond_atom_site_label_1
_geom_bond_atom_site_label_2
_ccdc_geom_bond_type
C14   O4    S    
N1    N2    T    
C5    C19   S    
C1    O5    A    
C17   O10   A    
C2    C18   T    
C21   H22   S    
O1    Zn1   S    
C9    C10   S    
C10   H8    S    
O6    Zn1   S    
C13   H15   S    
C9    H7    S    
O5    Zn2   S    
C21   H26   S    
C20   H12   S    
C11   H13   S    
C13   H16   S    
C19   H24   S    
C15   H21   S    
C7    C8    S    
C4    O3    S    
C5    C20   S    
C3    O12   S    
C4    O4    S    
C2    C17   S    
C8    H3    S    
C11   C13   S    
C1    C18   S    
C12   O6    A    
C13   H14   S    
C22   H27   S    
O9    Zn2   S    
C19   C21   S    
C20   C22   S    
O8    Zn1   S    
C6    C21   S    
O7    Zn2   S    
C8    H4    S    
C3    O2    S    
C7    O12   S    
O11   Zn2   S    
C20   H25   S    
C16   O9    A    
C14   H18   S    
C7    H2    S    
C15   H20   S    
C10   H10   S    
C11   H11   S    
C22   H23   S    
C11   O3    S    
C15   H19   S    
C5    C12   S    
C4    C6    S    
C16   O8    A    
C7    H28   S    
C8    H5    S    
C1    O1    A    
C19   H1    S    
C9    O2    S    
O10   Zn1   S    
C14   H17   S    
C14   C15   S    
C12   O7    A    
C6    C16   S    
C10   H9    S    
C17   O11   A    
N2    Zn1   S    
C3    C4    S    
C9    H6    S    
C3    C5    S    
N1    Zn2   S    
C6    C22   S    
