data_mof_unit_30343.cif
_audit_creation_date              2012-12-10T16:56:36-0500
_audit_creation_method            fapswitch 2.2
_symmetry_space_group_name_H-M    P1
_symmetry_Int_Tables_number       1
_space_group_crystal_system       triclinic
_cell_length_a                    7.762674
_cell_length_b                    8.564431
_cell_length_c                    15.712996
_cell_angle_alpha                 91.183602
_cell_angle_beta                  85.663307
_cell_angle_gamma                 93.688947
_cell_volume                      1039.36525151

loop_
_atom_site_label
_atom_site_type_symbol
_atom_type_description
_atom_site_fract_x
_atom_site_fract_y
_atom_site_fract_z
_atom_type_partial_charge
C1    C     C_R   0.545829 0.794784 0.497828 0.964238
C2    C     C_3   0.332892 0.494158 0.033317 -0.371151
C3    C     C_1   0.505872 0.503401 0.750674 -0.183103
C4    C     C_1   0.494128 0.496599 0.249326 -0.183101
C5    C     C_3   0.424744 0.624847 0.977293 0.593123
C6    C     C_3   0.575254 0.375154 0.022707 0.593125
C7    C     C_3   0.504322 0.503324 0.916731 0.065740
C8    C     C_3   0.495676 0.496677 0.083269 0.065746
C9    C     C_1   0.506397 0.504594 0.825922 -0.024210
C10   C     C_1   0.493602 0.495406 0.174078 -0.024201
C11   C     C_3   0.815672 0.266291 0.069447 0.071599
C12   C     C_R   0.454171 0.205216 0.502171 0.964237
C13   C     C_3   0.875697 0.121631 0.111161 -0.324890
C14   C     C_3   0.064580 0.144688 0.132073 -0.936980
C15   C     C_3   0.184331 0.733707 0.930546 0.071606
C16   C     C_3   0.124299 0.878379 0.888846 -0.324887
C17   C     C_3   0.935422 0.855316 0.867923 -0.936979
C18   C     C_R   0.502011 0.501153 0.661966 0.902817
C19   C     C_R   0.497989 0.498846 0.338034 0.902816
C20   C     C_2   0.570001 0.958260 0.496540 -0.377743
C21   C     C_2   0.429999 0.041739 0.503460 -0.377743
C22   C     C_3   0.586197 0.629997 0.028679 -0.260560
C23   C     C_3   0.413801 0.370004 0.971321 -0.260564
C24   C     C_3   0.667106 0.505843 0.966683 -0.371158
H1    H     H_    0.802227 0.511376 0.937662 0.147836
H2    H     H_    0.900339 0.290365 0.010190 0.136400
H3    H     H_    0.793361 0.097088 0.170969 0.229149
H4    H     H_    0.861141 0.018936 0.067255 0.227516
H5    H     H_    0.149709 0.163241 0.072714 0.271303
H6    H     H_    0.102804 0.038743 0.163634 0.271966
H7    H     H_    0.082855 0.246997 0.175825 0.265867
H8    H     H_    0.099655 0.709603 0.989796 0.136391
H9    H     H_    0.171859 0.632439 0.885191 0.135610
H10   H     H_    0.138836 0.981057 0.932765 0.227513
H11   H     H_    0.206643 0.902953 0.829043 0.229147
H12   H     H_    0.197772 0.488624 0.062338 0.147837
H13   H     H_    0.917160 0.753014 0.824165 0.265864
H14   H     H_    0.897198 0.961265 0.836365 0.271964
H15   H     H_    0.850284 0.836750 0.927278 0.271308
H16   H     H_    0.653462 0.737222 0.054294 0.157587
H17   H     H_    0.346537 0.262779 0.945706 0.157586
H18   H     H_    0.702204 0.009363 0.489905 0.180760
H19   H     H_    0.297796 0.990637 0.510094 0.180760
H20   H     H_    0.013487 0.381708 0.436216 0.192624
H21   H     H_    0.986513 0.618292 0.563784 0.192624
H22   H     H_    0.828163 0.367576 0.114789 0.135605
N1    N     N_2   0.950320 0.457950 0.477300 -0.172731
N2    N     N_2   0.049680 0.542050 0.522700 -0.172732
O1    O     O_R   0.389250 0.738570 0.505570 -0.612881
O2    O     O_3   0.357370 0.763783 0.950888 -0.630707
O3    O     O_R   0.610750 0.261430 0.494430 -0.612881
O4    O     O_R   0.678390 0.711630 0.491020 -0.630753
O5    O     O_R   0.321610 0.288370 0.508980 -0.630754
O6    O     O_R   0.355460 0.513480 0.630490 -0.614132
O7    O     O_R   0.644540 0.486520 0.369510 -0.614131
O8    O     O_R   0.644600 0.486540 0.615950 -0.620985
O9    O     O_R   0.355400 0.513460 0.384050 -0.620984
O10   O     O_3   0.642627 0.236219 0.049114 -0.630706
Zn1   Zn    Zn3+2 0.306940 0.517990 0.509710 0.946692
Zn2   Zn    Zn3+2 0.693060 0.482010 0.490290 0.946693

loop_
_geom_bond_atom_site_label_1
_geom_bond_atom_site_label_2
_ccdc_geom_bond_type
C8    C22   S    
N2    Zn1   S    
C13   H4    S    
C3    C9    T    
C19   O7    A    
C11   O10   S    
C6    O10   S    
C20   H18   S    
N1    N2    D    
O1    Zn1   S    
H20   N1    S    
C18   O8    A    
C14   H7    S    
C17   H14   S    
C22   H16   S    
C20   C21   D    
O5    Zn1   S    
C15   O2    S    
C6    C24   S    
C15   H8    S    
C17   H13   S    
C13   C14   S    
C19   O9    A    
C11   C13   S    
C14   H6    S    
C7    C23   S    
C6    C23   S    
C2    C8    S    
O6    Zn1   S    
C16   H11   S    
C1    O4    A    
C22   C24   S    
C5    O2    S    
O9    Zn1   S    
C2    C5    S    
C15   C16   S    
C18   O6    A    
C14   H5    S    
C4    C10   T    
C7    C24   S    
C7    C9    S    
C12   O3    A    
O8    Zn2   S    
C24   H1    S    
C3    C18   S    
C8    C10   S    
C17   H15   S    
H21   N2    S    
C2    H12   S    
C2    C23   S    
C5    C7    S    
C13   H3    S    
C11   H22   S    
C6    C8    S    
O3    Zn2   S    
O4    Zn2   S    
C11   H2    S    
C16   H10   S    
N1    Zn2   S    
O7    Zn2   S    
C4    C19   S    
C1    O1    A    
C12   C21   S    
C15   H9    S    
C21   H19   S    
C5    C22   S    
C12   O5    A    
C16   C17   S    
C1    C20   S    
C23   H17   S    
