data_mof_unit_67559.cif
_audit_creation_date              2013-03-05T15:41:21-0500
_audit_creation_method            fapswitch 2.2
_symmetry_space_group_name_H-M    P1
_symmetry_Int_Tables_number       1
_space_group_crystal_system       triclinic
_cell_length_a                    10.735288
_cell_length_b                    8.776799
_cell_length_c                    7.581461
_cell_angle_alpha                 102.78669
_cell_angle_beta                  95.998465
_cell_angle_gamma                 94.463824
_cell_volume                      689.043365224

loop_
_atom_site_label
_atom_site_type_symbol
_atom_site_description
_atom_site_fract_x
_atom_site_fract_y
_atom_site_fract_z
_atom_type_partial_charge
O1    O     O_R   0.509190 0.286130 0.619780 -0.610613
O2    O     O_R   0.490810 0.713870 0.380220 -0.614153
O3    O     O_R   0.485310 0.256770 0.308360 -0.546254
O4    O     O_R   0.514690 0.743230 0.691640 -0.539272
C1    C     C_R   0.493523 0.200777 0.454568 0.831049
C2    C     C_R   0.506465 0.799247 0.545394 0.827952
O5    O     O_R   0.328790 0.514640 0.655680 -0.560632
O6    O     O_R   0.671210 0.485360 0.344320 -0.566353
O7    O     O_R   0.304910 0.485280 0.344260 -0.581820
O8    O     O_R   0.695090 0.514720 0.655740 -0.556728
C3    C     C_R   0.260532 0.503968 0.500564 0.842540
C4    C     C_R   0.739676 0.497218 0.499755 0.851281
Cu1   Cu    Cu3+1 0.514140 0.517380 0.684380 1.049489
Cu2   Cu    Cu3+1 0.485860 0.482620 0.315620 1.042210
N1    N     N_2   0.464560 0.456420 0.038510 -0.240530
N2    N     N_2   0.535440 0.543580 0.961490 -0.235046
C5    C     C_3   0.053347 0.490757 0.664328 -0.074158
C6    C     C_3   0.947336 0.511286 0.336582 -0.084942
C7    C     C_3   0.956080 0.365475 0.536807 -0.113139
C8    C     C_3   0.044767 0.635977 0.464272 -0.123710
C9    C     C_3   0.875921 0.496221 0.499364 -0.136331
C10   C     C_3   0.124491 0.505967 0.501799 -0.131467
C11   C     C_3   0.973494 0.621558 0.627066 -0.062808
C12   C     C_3   0.027358 0.380578 0.373881 -0.080626
C13   C     C_2   0.472762 0.034042 0.435544 -0.284975
C14   C     C_2   0.527170 0.965985 0.564189 -0.272566
C15   C     C_1   0.915094 0.211148 0.566963 0.294333
N3    N     N_1   0.885140 0.087637 0.587874 -0.274105
C16   C     C_1   0.087226 0.789969 0.435806 0.289817
N4    N     N_1   0.118651 0.913635 0.417264 -0.225350
C17   C     C_1   0.109014 0.491500 0.849703 0.414384
N5    N     N_1   0.153033 0.495423 0.996693 -0.243636
C18   C     C_1   0.892561 0.515118 0.152305 0.428552
N6    N     N_1   0.849662 0.515284 0.005982 -0.231327
C19   C     C_2   0.953084 0.759347 0.774972 0.859274
O9    O     O_2   0.044272 0.836429 0.873361 -0.588032
O10   O     O_R   0.831721 0.798076 0.801543 -0.740418
H1    H     H_    0.831417 0.887956 0.911482 0.352231
C20   C     C_2   0.059036 0.247508 0.229078 0.889290
O11   O     O_2   0.147369 0.174379 0.261862 -0.569652
O12   O     O_R   0.989372 0.210589 0.056318 -0.758798
H2    H     H_    0.025573 0.127595 0.966708 0.372964
C21   C     C_2   0.415348 0.304383 0.934719 1.125868
O13   O     O_2   0.463522 0.189628 0.963425 -0.583349
O14   O     O_R   0.306438 0.283122 0.810867 -0.765921
H3    H     H_    0.279494 0.168545 0.750182 0.321499
C22   C     C_2   0.583878 0.695957 0.065174 1.127116
O15   O     O_2   0.535477 0.810278 0.035569 -0.591442
O16   O     O_R   0.692025 0.718062 0.190591 -0.770309
H4    H     H_    0.718435 0.832812 0.251018 0.310634
C23   C     C_1   0.378614 0.950939 0.286598 0.449753
N7    N     N_1   0.304147 0.885414 0.166738 -0.151294
C24   C     C_1   0.621244 0.049733 0.712870 0.429052
N8    N     N_1   0.695426 0.116649 0.832343 -0.199537

loop_
_geom_bond_atom_site_label_1
_geom_bond_atom_site_label_2
_geom_bond_distance
_ccdc_geom_bond_type
C1    C13   1.435658 S    
O7    Cu2   1.978425 S    
C13   C23   1.452863 S    
C16   N4    1.154165 T    
Cu1   Cu2   2.726178 S    
C6    C9    1.543544 S    
C7    C15   1.464878 S    
O12   H2    1.011619 S    
C3    C10   1.462889 S    
C6    C8    1.539515 S    
C5    C10   1.540487 S    
C5    C11   1.542318 S    
C8    C11   1.541479 S    
O6    C4    1.300971 A    
C21   O13   1.218119 D    
C10   C12   1.541612 S    
C9    C11   1.543347 S    
C7    C12   1.543720 S    
N1    C21   1.420390 S    
C23   N7    1.157952 T    
C22   O16   1.393627 S    
C2    C14   1.435894 S    
C24   N8    1.157811 T    
O5    C3    1.299679 A    
C21   O14   1.393744 S    
O2    C2    1.295746 A    
O3    Cu2   1.970319 S    
O8    C4    1.304058 A    
O1    C1    1.295905 A    
N2    C22   1.420523 S    
O4    C2    1.306308 A    
C19   O10   1.395379 S    
O10   H1    1.013384 S    
C8    C10   1.536328 S    
C18   N6    1.156188 T    
C11   C19   1.503418 S    
C8    C16   1.461107 S    
O7    C3    1.304705 A    
O2    Cu2   1.974811 S    
C6    C18   1.466608 S    
C6    C12   1.542797 S    
O1    Cu1   1.974809 S    
N1    N2    1.305813 D    
C20   O11   1.220272 D    
C14   C24   1.452787 S    
O3    C1    1.305924 A    
O5    Cu1   1.976591 S    
C12   C20   1.502403 S    
C20   O12   1.396246 S    
O16   H4    1.014270 S    
Cu1   N2    2.048537 S    
C15   N3    1.155907 T    
Cu2   N1    2.048538 S    
O6    Cu2   1.976593 S    
C5    C7    1.540718 S    
C13   C14   1.357316 D    
O14   H3    1.014260 S    
C4    C9    1.463645 S    
O8    Cu1   1.978425 S    
C17   N5    1.156202 T    
C5    C17   1.467021 S    
C22   O15   1.218023 D    
O4    Cu1   1.970319 S    
C7    C9    1.544273 S    
C19   O9    1.222023 D    
