data_mof_unit_11608.cif
_audit_creation_date              2012-12-10T17:09:56-0500
_audit_creation_method            fapswitch 2.2
_symmetry_space_group_name_H-M    P1
_symmetry_Int_Tables_number       1
_space_group_crystal_system       triclinic
_cell_length_a                    10.81179
_cell_length_b                    12.999274
_cell_length_c                    11.74436
_cell_angle_alpha                 99.112239
_cell_angle_beta                  93.604359
_cell_angle_gamma                 92.645633
_cell_volume                      1623.92209072

loop_
_atom_site_label
_atom_site_type_symbol
_atom_type_description
_atom_site_fract_x
_atom_site_fract_y
_atom_site_fract_z
_atom_type_partial_charge
C1    C     C_R   0.497630 0.299421 0.478977 0.898635
C2    C     C_R   0.069320 0.523696 0.608939 -0.009432
C3    C     C_R   0.128466 0.515390 0.503898 -0.053065
C4    C     C_R   0.056489 0.497306 0.398436 -0.169674
C5    C     C_R   0.928671 0.485919 0.397072 -0.189386
C6    C     C_R   0.871506 0.480891 0.499903 -0.040785
C7    C     C_R   0.504321 0.813976 0.531574 -0.165722
C8    C     C_R   0.492440 0.186235 0.466803 -0.039122
C9    C     C_R   0.442768 0.017092 0.350135 -0.113793
C10   C     C_R   0.450928 0.125082 0.360785 -0.221678
C11   C     C_R   0.527170 0.138856 0.561801 -0.072068
C12   C     C_R   0.262952 0.508583 0.501478 0.830052
C13   C     C_R   0.519034 0.030898 0.552130 0.056532
C14   C     C_R   0.476383 0.969258 0.445439 0.042629
C15   C     C_R   0.468581 0.861001 0.435761 0.546194
C16   C     C_R   0.545327 0.875851 0.637449 -0.260787
C17   C     C_R   0.552776 0.983830 0.647638 -0.158781
C18   C     C_R   0.409392 0.381757 0.027551 -0.152480
C19   C     C_R   0.413485 0.396660 0.147204 0.083574
C20   C     C_R   0.540087 0.551562 0.156560 0.129921
C21   C     C_R   0.536591 0.540682 0.034157 0.013810
C22   C     C_R   0.466287 0.456282 0.967673 0.022440
C23   C     C_R   0.501595 0.700641 0.520703 0.823534
C24   C     C_R   0.453924 0.448727 0.844492 0.595163
C25   C     C_R   0.595764 0.598096 0.855866 0.050015
C26   C     C_R   0.601970 0.611130 0.977442 -0.271121
C27   C     C_R   0.737109 0.491399 0.499336 0.823434
C28   C     C_R   0.128111 0.568623 0.717515 -0.193326
C29   C     C_R   0.073587 0.556258 0.819754 0.422460
C30   C     C_R   0.965338 0.492307 0.813638 -0.274896
C31   C     C_R   0.904171 0.451298 0.706323 0.423864
C32   C     C_R   0.945903 0.484043 0.604805 -0.035181
Cu1   Cu    Cu3+1 0.509250 0.507730 0.615930 1.056202
Cu2   Cu    Cu3+1 0.490750 0.492270 0.384070 1.001036
H1    H     H_    0.098613 0.493436 0.316682 0.182602
H2    H     H_    0.585420 0.030428 0.729812 0.171649
H3    H     H_    0.423387 0.160650 0.286410 0.161795
H4    H     H_    0.561402 0.185797 0.643125 0.221094
H5    H     H_    0.647905 0.652606 0.814009 0.135666
H6    H     H_    0.362096 0.309899 0.985808 0.209536
H7    H     H_    0.658474 0.675916 0.026942 0.162599
H8    H     H_    0.367513 0.339663 0.190377 0.125884
H9    H     H_    0.594224 0.615990 0.209215 0.134038
H10   H     H_    0.213961 0.615738 0.723381 0.188061
H11   H     H_    0.931651 0.470542 0.891922 0.185798
H12   H     H_    0.874806 0.480681 0.315198 0.165930
H13   H     H_    0.573371 0.840777 0.712059 0.186355
H14   H     H_    0.409996 0.971466 0.267525 0.209595
N1    N     N_R   0.523180 0.519350 0.790130 -0.228262
N2    N     N_R   0.476820 0.480650 0.209890 -0.189877
O1    O     O_R   0.506570 0.354460 0.582000 -0.489238
O2    O     O_R   0.490940 0.341410 0.386200 -0.623686
O3    O     O_R   0.327470 0.506530 0.597920 -0.548391
O4    O     O_R   0.311840 0.493480 0.402120 -0.581179
O5    O     O_R   0.509060 0.658590 0.613800 -0.618904
O6    O     O_R   0.493430 0.645540 0.418000 -0.524021
O7    O     O_R   0.688160 0.506520 0.597880 -0.571283
O8    O     O_R   0.672530 0.493470 0.402080 -0.607824
S1    S     S_3+6 0.342653 0.344801 0.773145 0.015271
O9    O     O_2   0.298710 0.337240 0.648884 -0.267915
O10   O     O_2   0.397316 0.242858 0.787008 -0.356731
O11   O     O_3   0.212782 0.354434 0.845192 -0.529256
H15   H     H_    0.166338 0.286024 0.822370 0.398505
S2    S     S_3+6 0.146390 0.611870 0.955503 0.039936
O12   O     O_2   0.275685 0.653952 0.942599 -0.262101
O13   O     O_2   0.072249 0.699811 0.008552 -0.289781
O14   O     O_3   0.153335 0.521469 0.043269 -0.485818
H16   H     H_    0.071299 0.519763 0.076217 0.338948
S3    S     S_3+6 0.811345 0.334688 0.700047 -0.003728
O15   O     O_2   0.697713 0.356928 0.764693 -0.319711
O16   O     O_2   0.775218 0.285613 0.577149 -0.338238
O17   O     O_3   0.893969 0.250887 0.764646 -0.519012
H17   H     H_    0.837175 0.188213 0.760804 0.369573
F1    F     F_    0.425285 0.802107 0.333525 -0.646079

loop_
_geom_bond_atom_site_label_1
_geom_bond_atom_site_label_2
_ccdc_geom_bond_type
Cu1   O5    S    
C6    C32   A    
C21   C26   A    
Cu2   O6    S    
S3    O17   S    
C1    C8    S    
C30   H11   S    
C23   O6    A    
O11   H15   S    
C10   H3    S    
C28   C29   A    
C8    C11   A    
C5    C6    A    
Cu1   N1    S    
C2    C32   A    
C18   C19   A    
S3    O16   D    
C18   H6    S    
C20   N2    A    
C3    C12   S    
C6    C27   S    
C16   C17   A    
C17   H2    S    
C9    C10   A    
C12   O3    A    
C19   H8    S    
C7    C15   A    
C29   S2    S    
S1    O9    D    
C21   C22   A    
C16   H13   S    
Cu1   O3    S    
Cu2   N2    S    
S1    O10   D    
O14   H16   S    
S2    O14   S    
C27   O7    A    
O17   H17   S    
C25   C26   A    
C28   H10   S    
S2    O13   D    
C11   H4    S    
C9    C14   A    
C29   C30   A    
C31   C32   A    
Cu1   Cu2   S    
C1    O1    A    
C7    C16   A    
Cu2   O4    S    
C22   C24   A    
C3    C4    A    
C20   H9    S    
C24   N1    A    
S1    O11   S    
Cu1   O7    S    
C18   C22   A    
C4    C5    A    
C27   O8    A    
C23   O5    A    
Cu1   O1    S    
C5    H12   S    
Cu2   O2    S    
C13   C17   A    
S2    O12   D    
C2    C3    A    
C25   H5    S    
C11   C13   A    
C19   N2    A    
C30   C31   A    
C24   S1    S    
C7    C23   S    
S3    O15   D    
C1    O2    A    
C25   N1    A    
C4    H1    S    
C31   S3    S    
C15   F1    S    
C20   C21   A    
C9    H14   S    
C8    C10   A    
Cu2   O8    S    
C14   C15   A    
C2    C28   A    
C13   C14   A    
C12   O4    A    
C26   H7    S    
