data_mof_unit_48088.cif
_audit_creation_date              2013-03-05T16:12:13-0500
_audit_creation_method            fapswitch 2.2
_symmetry_space_group_name_H-M    P1
_symmetry_Int_Tables_number       1
_space_group_crystal_system       triclinic
_cell_length_a                    10.725009
_cell_length_b                    9.406121
_cell_length_c                    27.807017
_cell_angle_alpha                 90.076359
_cell_angle_beta                  90.172911
_cell_angle_gamma                 89.988126
_cell_volume                      2805.176917

loop_
_atom_site_label
_atom_site_type_symbol
_atom_site_description
_atom_site_fract_x
_atom_site_fract_y
_atom_site_fract_z
_atom_type_partial_charge
O1    O     O_R   0.317570 0.620260 0.500030 -0.599650
O2    O     O_R   0.317570 0.379740 0.500030 -0.600896
C1    C     C_R   0.259774 0.499994 0.501648 0.798805
O3    O     O_R   0.499900 0.620250 0.430280 -0.596638
O4    O     O_R   0.499900 0.379750 0.430280 -0.597323
C2    C     C_R   0.500015 0.499897 0.407453 0.799957
Cu1   Cu    Cu3+1 0.499860 0.642410 0.500020 0.922305
Cu2   Cu    Cu3+1 0.499860 0.357590 0.500020 0.925106
O5    O     O_R   0.682190 0.620260 0.500010 -0.592154
O6    O     O_R   0.682190 0.379740 0.500010 -0.584493
O7    O     O_R   0.499860 0.620280 0.569750 -0.585299
O8    O     O_R   0.499860 0.379720 0.569750 -0.583165
C3    C     C_R   0.739599 0.499830 0.503155 0.870559
C4    C     C_R   0.500246 0.500152 0.592566 0.873282
C5    C     C_R   0.394266 0.528847 0.177624 0.534599
O9    O     O_2   0.288533 0.556385 0.202149 -0.535768
N1    N     N_R   0.501935 0.498743 0.202048 -0.469456
C6    C     C_R   0.610366 0.469085 0.178293 0.535438
C7    C     C_R   0.511011 0.370759 0.278861 -0.101953
C8    C     C_R   0.510355 0.370885 0.329007 -0.227031
C9    C     C_R   0.490897 0.627937 0.328898 -0.225884
C10   C     C_R   0.491087 0.627420 0.278756 -0.103017
C11   C     C_R   0.501258 0.498936 0.253602 0.360489
C12   C     C_R   0.503793 0.501035 0.101860 -0.047859
C13   C     C_R   0.393115 0.530295 0.127137 -0.020054
C14   C     C_R   0.284111 0.561110 0.101629 -0.142178
C15   C     C_R   0.613373 0.469836 0.127821 -0.020609
C16   C     C_R   0.500379 0.499578 0.354499 -0.038226
H1    H     H_    0.483077 0.728672 0.347538 0.143121
H2    H     H_    0.483802 0.726871 0.259379 0.137841
H3    H     H_    0.198104 0.585807 0.120215 0.188691
C17   C     C_R   0.502404 0.500905 0.645494 -0.027173
C18   C     C_R   0.393039 0.524634 0.973973 0.045668
C19   C     C_R   0.620883 0.489597 0.974905 -0.013958
C20   C     C_R   0.507884 0.508021 0.949101 0.074407
C21   C     C_R   0.281975 0.534828 0.946671 -0.189036
C22   C     C_R   0.284064 0.533830 0.896826 -0.089566
C23   C     C_R   0.396653 0.521914 0.872082 -0.019757
C24   C     C_R   0.509506 0.509489 0.897929 -0.081491
C25   C     C_R   0.623382 0.498171 0.872532 -0.147413
C26   C     C_R   0.619237 0.491017 0.821714 0.587414
N2    N     N_R   0.508398 0.504903 0.797806 -0.481620
C27   C     C_R   0.398458 0.520884 0.821731 0.550446
C28   C     C_R   0.512216 0.373983 0.721422 -0.075919
C29   C     C_R   0.509632 0.372601 0.671263 -0.154087
C30   C     C_R   0.498033 0.630369 0.670790 -0.160552
C31   C     C_R   0.500252 0.631348 0.720900 -0.072416
C32   C     C_R   0.507318 0.503307 0.746300 0.333454
O10   O     O_2   0.290980 0.534310 0.796738 -0.485733
C33   C     C_R   0.392637 0.529564 0.025081 0.044672
C34   C     C_R   0.504927 0.503104 0.050742 0.072203
C35   C     C_R   0.618412 0.478865 0.025879 0.067326
C36   C     C_R   0.283627 0.560999 0.051674 -0.201121
H4    H     H_    0.513457 0.271333 0.652735 0.156641
H5    H     H_    0.517547 0.274713 0.741004 0.147355
H6    H     H_    0.196177 0.541788 0.877688 0.233571
H7    H     H_    0.190788 0.540470 0.962643 0.156982
H8    H     H_    0.196291 0.589230 0.035051 0.143344
O11   O     O_2   0.715150 0.440272 0.203470 -0.535870
C37   C     C_R   0.723158 0.439403 0.102984 -0.145690
H9    H     H_    0.518048 0.270394 0.347742 0.143396
H10   H     H_    0.518759 0.271087 0.259569 0.138119
H11   H     H_    0.808102 0.412214 0.122068 0.189878
C38   C     C_R   0.733643 0.486434 0.948893 -0.258538
C39   C     C_R   0.736388 0.492582 0.898793 0.367318
O12   O     O_2   0.723968 0.467849 0.796169 -0.425786
C40   C     C_R   0.725752 0.443122 0.053063 -0.200475
H12   H     H_    0.822995 0.486775 0.966702 0.166170
H13   H     H_    0.492636 0.730884 0.651930 0.154434
H14   H     H_    0.496493 0.731552 0.740071 0.146478
C41   C     C_3   0.074162 0.631415 0.532014 -0.423190
C42   C     C_3   0.073652 0.363664 0.529167 -0.394248
H15   H     H_    0.119492 0.635821 0.567991 0.201253
H16   H     H_    0.103890 0.365717 0.567507 0.214281
C43   C     C_3   0.929978 0.627930 0.535486 0.197779
C44   C     C_3   0.930414 0.353161 0.525256 0.209477
H17   H     H_    0.895578 0.727608 0.518316 0.096276
H18   H     H_    0.909174 0.270328 0.497699 0.082700
H19   H     H_    0.895090 0.619141 0.438244 0.186831
H20   H     H_    0.885359 0.430860 0.429785 0.181924
C45   C     C_3   0.068902 0.505809 0.451930 -0.390622
C46   C     C_3   0.121915 0.500000 0.503649 0.038970
C47   C     C_3   0.877472 0.498615 0.505865 -0.061628
C48   C     C_3   0.925491 0.515131 0.453369 -0.523995
C49   C     C_3   0.599561 0.084000 0.532718 -0.154928
C50   C     C_3   0.599421 0.916282 0.532772 -0.158659
H21   H     H_    0.587493 0.123402 0.570123 0.174565
H22   H     H_    0.586806 0.877604 0.570198 0.179075
H23   H     H_    0.692515 0.121640 0.520678 0.169664
H24   H     H_    0.692412 0.878238 0.520884 0.164192
H25   H     H_    0.359915 0.124116 0.555218 0.150033
H26   H     H_    0.360033 0.876411 0.555257 0.147785
C51   C     C_3   0.380027 0.083807 0.518416 -0.191028
C52   C     C_3   0.380022 0.916320 0.518430 -0.192707
C53   C     C_3   0.521469 0.083465 0.452256 -0.199761
C54   C     C_3   0.521453 0.916216 0.452258 -0.195862
N3    N     N_3   0.500250 0.143650 0.501060 -0.133625
N4    N     N_3   0.500250 0.856350 0.501060 -0.132449
H27   H     H_    0.447365 0.121098 0.427262 0.146158
H28   H     H_    0.447276 0.878536 0.427283 0.144334
H29   H     H_    0.611651 0.122980 0.437792 0.139216
H30   H     H_    0.611612 0.876530 0.437779 0.140933
H31   H     H_    0.302484 0.120435 0.494926 0.145079
H32   H     H_    0.302342 0.879333 0.495023 0.146161
N5    N     N_R   0.855813 0.500616 0.875812 0.162006
O13   O     O_R   0.885182 0.613813 0.851491 -0.284337
O14   O     O_R   0.943368 0.411489 0.887748 -0.351953
H33   H     H_    0.813137 0.413818 0.036808 0.147891
H34   H     H_    0.102312 0.730618 0.513124 0.149174
H35   H     H_    0.114241 0.266347 0.512691 0.148747
N6    N     N_R   0.887438 0.628932 0.585686 0.162815
O15   O     O_R   0.793087 0.708012 0.597810 -0.357660
O16   O     O_R   0.950029 0.564124 0.619355 -0.278504
N7    N     N_R   0.877441 0.301170 0.570848 0.144462
O17   O     O_R   0.781632 0.360986 0.591104 -0.319427
O18   O     O_R   0.916760 0.180532 0.588021 -0.353018
H36   H     H_    0.106795 0.599573 0.432439 0.177553
H37   H     H_    0.097519 0.408976 0.431711 0.176649

loop_
_geom_bond_atom_site_label_1
_geom_bond_atom_site_label_2
_geom_bond_distance
_ccdc_geom_bond_type
C51   C52   1.575402 S    
Cu1   N4    2.012520 S    
C54   H30   1.112765 S    
C17   C29   1.406363 A    
C20   C24   1.423199 A    
C53   C54   1.573162 S    
C12   C15   1.408459 A    
H20   C48   1.113871 S    
C51   H31   1.110941 S    
N7    O17   1.300806 A    
Cu1   Cu2   2.679050 S    
C49   C50   1.577581 S    
Cu1   O7    1.950400 S    
N5    O14   1.301259 A    
N1    C11   1.433591 S    
C37   H11   1.083660 S    
C38   H12   1.077378 S    
C21   C22   1.386320 A    
C44   H18   1.115140 S    
C15   C37   1.396250 A    
O4    C2    1.296918 A    
O7    C4    1.296618 A    
C53   H27   1.112296 S    
C40   H33   1.077375 S    
C5    C13   1.404011 A    
C52   N4    1.488931 S    
C7    H10   1.082843 S    
C5    O9    1.349876 S    
C45   H36   1.113343 S    
C18   C21   1.413906 A    
Cu1   O5    1.966516 S    
C19   C20   1.417249 A    
C26   N2    1.366593 A    
C39   N5    1.435166 S    
C8    H9    1.082904 S    
O5    C3    1.292121 A    
C30   H13   1.083227 S    
C19   C35   1.421494 A    
C22   H6    1.083668 S    
C2    C16   1.472503 S    
C31   C32   1.398923 A    
C37   C40   1.389015 A    
C54   N4    1.488062 S    
C44   N7    1.474905 S    
C42   C44   1.542929 S    
C41   C46   1.553052 S    
C12   C34   1.421673 A    
C52   H32   1.111312 S    
C14   H3    1.083689 S    
C9    C10   1.394306 A    
H19   C48   1.113759 S    
C41   H34   1.113622 S    
O3    Cu1   1.950156 S    
C44   C47   1.576325 S    
H26   C52   1.112614 S    
C45   C46   1.545888 S    
C49   H21   1.111636 S    
C42   H35   1.112314 S    
C33   C36   1.416198 A    
C34   C35   1.419830 A    
C12   C13   1.408258 A    
C42   H16   1.113565 S    
C21   H7    1.076593 S    
C50   H24   1.110646 S    
C24   C25   1.416567 A    
C41   H15   1.111679 S    
C49   H23   1.110769 S    
C27   O10   1.350192 S    
C8    C16   1.406182 A    
C33   C34   1.420076 A    
C18   C33   1.421886 A    
C9    H1    1.082780 S    
C45   H37   1.113307 S    
O1    C1    1.290946 A    
C7    C11   1.399874 A    
Cu2   N3    2.012595 S    
C31   H14   1.083018 S    
C22   C23   1.396013 A    
H25   C51   1.112574 S    
C47   C48   1.557369 S    
Cu2   O8    1.949849 S    
C1    C46   1.479754 S    
C19   C38   1.411309 A    
N1    C6    1.367677 A    
N6    O16   1.302433 A    
N2    C32   1.432299 S    
C43   H17   1.114960 S    
C35   C40   1.415985 A    
O3    C2    1.297135 A    
C25   C26   1.415162 A    
C9    C16   1.405925 A    
O8    C4    1.297635 A    
C29   H4    1.083182 S    
C25   C39   1.414098 A    
N2    C27   1.363780 A    
C14   C36   1.389101 A    
C51   N3    1.488985 S    
C45   C48   1.541195 S    
C28   C29   1.395002 A    
C5    N1    1.367670 A    
C30   C31   1.393570 A    
C10   H2    1.082851 S    
N6    O15   1.300768 A    
O1    Cu1   1.966177 S    
C17   C30   1.406334 A    
O2    Cu2   1.966091 S    
C6    C15   1.403990 A    
C4    C17   1.471887 S    
O6    C3    1.289345 A    
O4    Cu2   1.950709 S    
N7    O18   1.301361 A    
C36   H8    1.076644 S    
C53   N3    1.487864 S    
C26   O12   1.348356 S    
N5    O13   1.301396 A    
C3    C47   1.480426 S    
C43   N6    1.469913 S    
C38   C39   1.394800 A    
C7    C8    1.394440 A    
O2    C1    1.290518 A    
C13   C14   1.396140 A    
C23   C27   1.400304 A    
C41   C43   1.550030 S    
C28   H5    1.082953 S    
C43   C47   1.571578 S    
C23   C24   1.410702 A    
C54   H28   1.112182 S    
C18   C20   1.422898 A    
C50   H22   1.111569 S    
C50   N4    1.489946 S    
C49   N3    1.489846 S    
C53   H29   1.112790 S    
C6    O11   1.349881 S    
Cu2   O6    1.966602 S    
C10   C11   1.399956 A    
C42   C46   1.555913 S    
C28   C32   1.399637 A    
