data_mof_unit_46777.cif
_audit_creation_date              2012-10-26T20:15:02-0400
_audit_creation_method            fapswitch 2.2
_symmetry_space_group_name_H-M    P1
_symmetry_Int_Tables_number       1
_space_group_crystal_system       triclinic
_cell_length_a                    17.771934
_cell_length_b                    9.071866
_cell_length_c                    7.769655
_cell_angle_alpha                 89.997804
_cell_angle_beta                  90.043765
_cell_angle_gamma                 90.010749
_cell_volume                      1252.65916071

loop_
_atom_site_label
_atom_site_type_symbol
_atom_type_description
_atom_site_fract_x
_atom_site_fract_y
_atom_site_fract_z
_atom_type_partial_charge
C1    C     C_R   0.500475 0.219993 0.499981 0.582323
C2    C     C_R   0.846785 0.417974 0.369862 0.195096
C3    C     C_R   0.768516 0.582608 0.622985 0.032611
C4    C     C_R   0.232978 0.607222 0.403519 -0.056910
C5    C     C_R   0.232943 0.392339 0.595845 0.025883
C6    C     C_R   0.767546 0.412608 0.377332 0.029947
C7    C     C_R   0.728189 0.498329 0.500216 -0.106700
C8    C     C_R   0.272448 0.499807 0.499812 -0.101095
C9    C     C_R   0.886216 0.496881 0.498513 -0.035358
C10   C     C_R   0.114820 0.499036 0.498079 0.003297
C11   C     C_1   0.966762 0.497321 0.497468 0.204182
C12   C     C_R   0.500427 0.780006 0.500007 0.562832
C13   C     C_1   0.034219 0.498138 0.497369 0.223449
C14   C     C_2   0.728038 0.685449 0.738298 0.668150
C15   C     C_2   0.275327 0.715313 0.297496 0.665876
C16   C     C_2   0.275212 0.285226 0.702476 0.662289
C17   C     C_2   0.726056 0.308378 0.265352 0.662156
C18   C     C_1   0.500632 0.065397 0.499950 0.011390
C19   C     C_1   0.500605 0.934599 0.499995 0.011459
C20   C     C_R   0.355382 0.499845 0.499940 0.559494
C21   C     C_R   0.644868 0.499701 0.500095 0.539754
C22   C     C_R   0.847732 0.575537 0.628707 0.204857
C23   C     C_R   0.153692 0.612278 0.410199 0.160651
C24   C     C_R   0.153663 0.386373 0.586999 0.199762
Cu1   Cu    Cu3+1 0.500000 0.500000 0.669080 1.124269
Cu2   Cu    Cu3+1 0.500000 0.500000 0.330920 1.140653
H1    H     H_    0.881744 0.729331 0.062299 0.389439
H2    H     H_    0.163400 0.946882 0.408881 0.377528
H3    H     H_    0.999925 0.118518 0.624198 0.413232
H4    H     H_    0.938434 0.097975 0.176824 0.406276
H5    H     H_    0.668959 0.713646 0.957398 0.341938
H6    H     H_    0.322591 0.813877 0.503858 0.297447
H7    H     H_    0.350430 0.119067 0.710160 0.344775
H8    H     H_    0.689556 0.100326 0.229107 0.347505
N1    N     N_1   0.500000 0.500000 0.076820 -0.048303
N2    N     N_1   0.500000 0.500000 0.923180 -0.048291
O1    O     O_R   0.500000 0.288390 0.642760 -0.493003
O2    O     O_2   0.918512 0.821024 0.732808 -0.205873
O3    O     O_3   0.847426 0.684141 0.976712 -0.457049
O4    O     O_2   0.080154 0.709067 0.131041 -0.141885
O5    O     O_2   0.033072 0.797865 0.407319 -0.249186
O6    O     O_3   0.154921 0.913237 0.289154 -0.405796
O7    O     O_2   0.150317 0.105436 0.718092 -0.216378
O8    O     O_2   0.069548 0.292001 0.851178 -0.167342
O9    O     O_3   0.031260 0.185580 0.553626 -0.473935
O10   O     O_2   0.851086 0.318203 0.039654 -0.192196
O11   O     O_2   0.971138 0.388828 0.165359 -0.201908
O12   O     O_R   0.500000 0.711610 0.357240 -0.487612
O13   O     O_3   0.909314 0.145696 0.270126 -0.438607
O14   O     O_2   0.724548 0.816267 0.701452 -0.460593
O15   O     O_R   0.694796 0.632873 0.889355 -0.589990
O16   O     O_2   0.268408 0.713819 0.141161 -0.363639
O17   O     O_R   0.323170 0.818846 0.373559 -0.640860
O18   O     O_2   0.266441 0.283558 0.858568 -0.409289
O19   O     O_R   0.325169 0.187051 0.624179 -0.673118
O20   O     O_2   0.698642 0.351019 0.129800 -0.417731
O21   O     O_R   0.719008 0.161138 0.315460 -0.637771
O22   O     O_R   0.500000 0.711610 0.642760 -0.508806
O23   O     O_R   0.500000 0.288390 0.357240 -0.488640
O24   O     O_R   0.391250 0.500000 0.642840 -0.491924
O25   O     O_R   0.608750 0.500000 0.357160 -0.485348
O26   O     O_R   0.608750 0.500000 0.642840 -0.467085
O27   O     O_R   0.391250 0.500000 0.357160 -0.470815
O28   O     O_2   0.969887 0.588156 0.839986 -0.198272
S1    S     S_3+6 0.898726 0.669243 0.795658 0.119541
S2    S     S_3+6 0.102867 0.759166 0.307899 0.107519
S3    S     S_3+6 0.101955 0.238171 0.684018 0.100579
S4    S     S_3+6 0.896046 0.320119 0.203566 0.115152

loop_
_geom_bond_atom_site_label_1
_geom_bond_atom_site_label_2
_ccdc_geom_bond_type
O9    S3    S    
H8    O21   S    
Cu2   O27   S    
C10   C13   S    
C22   S1    S    
O10   S4    D    
C6    C7    A    
Cu1   O24   S    
Cu2   O12   S    
C10   C23   A    
C20   O24   A    
C11   C13   T    
Cu2   O23   S    
O3    S1    S    
C2    S4    S    
C14   O15   S    
O2    S1    D    
C4    C8    A    
C12   O12   A    
C12   O22   A    
O28   S1    D    
C20   O27   A    
C5    C24   A    
C21   O26   A    
C16   O19   S    
H7    O19   S    
C14   O14   D    
C15   O16   D    
C9    C11   S    
C17   O20   D    
C1    C18   S    
C8    C20   S    
C3    C14   S    
C4    C15   S    
C15   O17   S    
C23   S2    S    
H2    O6    S    
H5    O15   S    
O13   S4    S    
H4    O13   S    
C4    C23   A    
C3    C7    A    
Cu1   O26   S    
C1    O23   A    
C10   C24   A    
C16   O18   D    
C9    C22   A    
C5    C8    A    
Cu1   O22   S    
O5    S2    D    
H6    O17   S    
O11   S4    D    
C12   C19   S    
O7    S3    D    
C18   C19   T    
H1    O3    S    
Cu2   N1    S    
O6    S2    S    
C6    C17   S    
C5    C16   S    
O4    S2    D    
Cu1   N2    S    
C24   S3    S    
Cu1   O1    S    
Cu1   Cu2   S    
C7    C21   S    
C2    C9    A    
C21   O25   A    
Cu2   O25   S    
C3    C22   A    
H3    O9    S    
C2    C6    A    
C17   O21   S    
C1    O1    A    
O8    S3    D    
N1    N2    T    
