data_mof_unit_60437.cif
_audit_creation_date              2012-12-10T18:14:09-0500
_audit_creation_method            fapswitch 2.2
_symmetry_space_group_name_H-M    P1
_symmetry_Int_Tables_number       1
_space_group_crystal_system       triclinic
_cell_length_a                    32.238149
_cell_length_b                    32.237998
_cell_length_c                    23.701885
_cell_angle_alpha                 89.992352
_cell_angle_beta                  90.008849
_cell_angle_gamma                 89.999334
_cell_volume                      24633.2117299

loop_
_atom_site_label
_atom_site_type_symbol
_atom_type_description
_atom_site_fract_x
_atom_site_fract_y
_atom_site_fract_z
_atom_type_partial_charge
C1    C     C_R   0.000003 0.420385 0.500009 0.824466
C2    C     C_R   0.420385 0.000004 0.499990 0.824423
C3    C     C_R   0.000003 0.579612 0.499988 0.824303
C4    C     C_R   0.579612 0.000003 0.500014 0.824227
C5    C     C_R   0.500003 0.920385 0.000010 0.824453
C6    C     C_R   0.920385 0.500004 0.999990 0.824444
C7    C     C_R   0.500003 0.079612 0.999987 0.824276
C8    C     C_R   0.079612 0.500003 0.000013 0.824261
C9    C     C_1   0.000049 0.161492 0.499977 0.072115
C10   C     C_1   0.161493 0.000032 0.500038 0.071658
C11   C     C_1   0.000044 0.838504 0.500095 0.059491
C12   C     C_1   0.838503 0.000058 0.499889 0.058689
C13   C     C_1   0.500039 0.661493 0.999971 0.071871
C14   C     C_1   0.661493 0.500040 0.000031 0.071883
C15   C     C_1   0.500051 0.338502 0.000102 0.059055
C16   C     C_1   0.338503 0.500051 0.999896 0.059060
C17   C     C_1   0.000066 0.338304 0.500013 -0.001102
C18   C     C_1   0.338305 0.000071 0.499987 -0.001084
C19   C     C_1   0.000057 0.661683 0.499947 -0.001421
C20   C     C_1   0.661682 0.000060 0.500059 -0.001502
C21   C     C_1   0.500068 0.838305 0.000013 -0.001105
C22   C     C_1   0.838305 0.500068 0.999988 -0.001080
C23   C     C_1   0.500059 0.161682 0.999943 -0.001470
C24   C     C_1   0.161682 0.500059 0.000056 -0.001455
C25   C     C_1   0.000025 0.375770 0.500017 -0.176094
C26   C     C_1   0.375771 0.000027 0.499982 -0.176074
C27   C     C_1   0.000022 0.624221 0.499963 -0.175560
C28   C     C_1   0.624220 0.000023 0.500042 -0.175582
C29   C     C_1   0.500026 0.875771 0.000018 -0.176100
C30   C     C_1   0.875771 0.500026 0.999982 -0.176066
C31   C     C_1   0.500023 0.124220 0.999960 -0.175582
C32   C     C_1   0.124220 0.500023 0.000040 -0.175555
C33   C     C_1   0.000025 0.124062 0.499987 -0.156059
C34   C     C_1   0.124063 0.000012 0.500020 -0.156205
C35   C     C_1   0.000023 0.875934 0.500051 -0.160012
C36   C     C_1   0.875934 0.000032 0.499942 -0.160566
C37   C     C_1   0.500018 0.624063 0.999985 -0.156143
C38   C     C_1   0.624063 0.500018 0.000017 -0.156139
C39   C     C_1   0.500028 0.375933 0.000054 -0.160304
C40   C     C_1   0.375933 0.500028 0.999944 -0.160304
C41   C     C_R   0.999997 0.499999 0.391685 0.823281
C42   C     C_R   0.500000 0.000002 0.391685 0.823238
C43   C     C_R   0.000003 0.500000 0.608314 0.823289
C44   C     C_R   0.499999 0.999998 0.608314 0.823225
C45   C     C_R   0.499997 0.999999 0.891686 0.823259
C46   C     C_R   0.000000 0.500002 0.891685 0.823258
C47   C     C_R   0.500003 0.000000 0.108314 0.823269
C48   C     C_R   0.999999 0.499998 0.108314 0.823249
C49   C     C_R   0.079507 0.999998 0.500005 0.814016
C50   C     C_R   0.000004 0.920492 0.500009 0.817217
C51   C     C_R   0.920492 0.000006 0.499989 0.817410
C52   C     C_R   0.000003 0.079506 0.499996 0.814267
C53   C     C_R   0.579507 0.500000 0.000004 0.814133
C54   C     C_R   0.500005 0.420492 0.000010 0.817316
C55   C     C_R   0.420492 0.500005 0.999990 0.817312
C56   C     C_R   0.500000 0.579507 0.999996 0.814132
C57   C     C_1   0.999992 0.499996 0.330904 -0.172900
C58   C     C_1   0.500003 0.000007 0.330904 -0.172963
C59   C     C_1   0.000008 0.500003 0.669096 -0.172900
C60   C     C_1   0.499996 0.999993 0.669096 -0.172966
C61   C     C_1   0.499992 0.999996 0.830904 -0.172958
C62   C     C_1   0.000003 0.500007 0.830904 -0.172907
C63   C     C_1   0.500008 0.000003 0.169096 -0.172956
C64   C     C_1   0.999996 0.499993 0.169096 -0.172907
C65   C     C_1   0.999991 0.499994 0.279899 0.007036
C66   C     C_1   0.500006 0.000007 0.279899 0.006973
C67   C     C_1   0.000008 0.500005 0.720101 0.007038
C68   C     C_1   0.499993 0.999992 0.720101 0.006967
C69   C     C_1   0.499991 0.999994 0.779899 0.006971
C70   C     C_1   0.000006 0.500007 0.779899 0.007034
C71   C     C_1   0.500008 0.000005 0.220101 0.006978
C72   C     C_1   0.999993 0.499992 0.220101 0.007031
C73   C     C_R   0.030947 0.228132 0.529666 0.393362
C74   C     C_R   0.228177 0.970717 0.532433 0.396526
C75   C     C_R   0.962302 0.771798 0.501900 0.396643
C76   C     C_R   0.771785 0.037678 0.505367 0.391322
C77   C     C_R   0.969229 0.228169 0.470267 0.396404
C78   C     C_R   0.771794 0.962509 0.494418 0.396253
C79   C     C_R   0.037853 0.771788 0.498271 0.391242
C80   C     C_R   0.228132 0.029445 0.467673 0.393345
C81   C     C_R   0.530199 0.728133 0.031037 0.393376
C82   C     C_R   0.728174 0.469950 0.031088 0.396483
C83   C     C_R   0.462384 0.271795 0.003771 0.396469
C84   C     C_R   0.271785 0.537790 0.003534 0.391287
C85   C     C_R   0.469969 0.728174 0.968879 0.396468
C86   C     C_R   0.271795 0.462381 0.996273 0.396459
C87   C     C_R   0.537788 0.271785 0.996417 0.391295
C88   C     C_R   0.728133 0.530218 0.968999 0.393359
C89   C     C_R   0.000077 0.206320 0.499967 -0.062428
C90   C     C_R   0.206322 0.000067 0.500055 -0.062734
C91   C     C_R   0.000070 0.793671 0.500064 -0.067871
C92   C     C_R   0.793670 0.000084 0.499916 -0.067926
C93   C     C_R   0.500071 0.706322 0.999957 -0.062601
C94   C     C_R   0.706322 0.500072 0.000044 -0.062600
C95   C     C_R   0.500078 0.293669 0.000072 -0.067927
C96   C     C_R   0.293669 0.500077 0.999926 -0.067921
C97   C     C_R   0.969876 0.271759 0.469625 -0.271163
C98   C     C_R   0.271727 0.028804 0.467074 -0.272412
C99   C     C_R   0.037637 0.728235 0.499135 -0.264859
C100  C     C_R   0.728228 0.962670 0.495483 -0.268319
C101  C     C_R   0.030324 0.271733 0.530318 -0.273005
C102  C     C_R   0.728233 0.037505 0.504496 -0.264718
C103  C     C_R   0.962519 0.728231 0.500867 -0.268323
C104  C     C_R   0.271770 0.971402 0.533010 -0.271508
C105  C     C_R   0.470635 0.771765 0.968271 -0.271332
C106  C     C_R   0.771731 0.529587 0.968375 -0.272701
C107  C     C_R   0.537594 0.228233 0.997283 -0.264789
C108  C     C_R   0.228228 0.462570 0.997320 -0.268316
C109  C     C_R   0.529567 0.771731 0.031661 -0.272711
C110  C     C_R   0.228233 0.537596 0.002669 -0.264763
C111  C     C_R   0.462572 0.228228 0.002724 -0.268295
C112  C     C_R   0.771766 0.470615 0.031696 -0.271317
C113  C     C_R   0.000098 0.293539 0.499980 0.029492
C114  C     C_R   0.293542 0.000102 0.500026 0.029448
C115  C     C_R   0.000076 0.706441 0.499952 0.024250
C116  C     C_R   0.706439 0.000082 0.500049 0.024174
C117  C     C_R   0.500100 0.793541 0.999978 0.029467
C118  C     C_R   0.793541 0.500100 0.000023 0.029455
C119  C     C_R   0.500079 0.206438 0.999950 0.024197
C120  C     C_R   0.206438 0.500079 0.000048 0.024193
Cu1   Cu    Cu3+1 0.958970 0.500000 0.500000 0.970617
Cu2   Cu    Cu3+1 0.500000 0.041030 0.500000 0.967831
Cu3   Cu    Cu3+1 0.041030 0.500000 0.500000 0.967730
Cu4   Cu    Cu3+1 0.500000 0.958970 0.500000 0.970613
Cu5   Cu    Cu3+1 0.458970 0.000000 0.000000 0.970661
Cu6   Cu    Cu3+1 0.000000 0.541030 0.000000 0.967927
Cu7   Cu    Cu3+1 0.541030 0.000000 0.000000 0.967632
Cu8   Cu    Cu3+1 0.000000 0.458970 0.000000 0.970559
Cu9   Cu    Cu3+1 0.000000 1.000000 0.444230 0.976513
Cu10  Cu    Cu3+1 1.000000 0.000000 0.555770 0.976530
Cu11  Cu    Cu3+1 0.500000 0.500000 0.944230 0.976522
Cu12  Cu    Cu3+1 0.500000 0.500000 0.055770 0.976524
H1    H     H_    0.053456 0.288474 0.554443 0.162070
H2    H     H_    0.288534 0.949471 0.559108 0.162877
H3    H     H_    0.933355 0.711512 0.501049 0.164935
H4    H     H_    0.711533 0.066593 0.507540 0.165816
H5    H     H_    0.946725 0.288515 0.445543 0.163098
H6    H     H_    0.711510 0.933590 0.492465 0.164954
H7    H     H_    0.066811 0.711534 0.498922 0.165825
H8    H     H_    0.288456 0.050747 0.440961 0.162277
H9    H     H_    0.552109 0.788466 0.056807 0.162169
H10   H     H_    0.788525 0.448054 0.056787 0.163003
H11   H     H_    0.433432 0.211510 0.004353 0.164959
H12   H     H_    0.211533 0.566746 0.004289 0.165843
H13   H     H_    0.448089 0.788525 0.943153 0.162981
H14   H     H_    0.211510 0.433429 0.995727 0.164950
H15   H     H_    0.566743 0.211533 0.995627 0.165812
H16   H     H_    0.788465 0.552144 0.943255 0.162183
O1    O     O_R   0.965350 0.440130 0.499980 -0.578495
O2    O     O_R   0.440130 0.034650 0.499980 -0.579168
O3    O     O_R   0.034650 0.559870 0.499980 -0.579087
O4    O     O_R   0.559870 0.965350 0.499980 -0.578457
O5    O     O_R   0.034650 0.440130 0.500020 -0.579229
O6    O     O_R   0.559870 0.034650 0.500020 -0.579040
O7    O     O_R   0.965350 0.559870 0.500020 -0.578477
O8    O     O_R   0.440130 0.965350 0.500020 -0.578482
O9    O     O_R   0.465350 0.940130 0.999980 -0.578472
O10   O     O_R   0.940130 0.534650 0.999980 -0.579173
O11   O     O_R   0.534650 0.059870 0.999980 -0.579092
O12   O     O_R   0.059870 0.465350 0.999980 -0.578487
O13   O     O_R   0.534650 0.940130 0.000020 -0.579227
O14   O     O_R   0.059870 0.534650 0.000020 -0.579038
O15   O     O_R   0.465350 0.059870 0.000020 -0.578450
O16   O     O_R   0.940130 0.465350 0.000020 -0.578508
O17   O     O_R   0.059790 0.999980 0.452860 -0.576249
O18   O     O_R   0.999980 0.940210 0.452860 -0.579929
O19   O     O_R   0.940210 0.000020 0.452860 -0.576870
O20   O     O_R   0.000020 0.059790 0.452860 -0.573855
O21   O     O_R   0.940210 0.999980 0.547140 -0.580325
O22   O     O_R   0.000020 0.940210 0.547140 -0.576886
O23   O     O_R   0.059790 0.000020 0.547140 -0.573371
O24   O     O_R   0.999980 0.059790 0.547140 -0.576307
O25   O     O_R   0.559790 0.499980 0.952860 -0.576275
O26   O     O_R   0.499980 0.440210 0.952860 -0.580131
O27   O     O_R   0.440210 0.500020 0.952860 -0.576878
O28   O     O_R   0.500020 0.559790 0.952860 -0.573608
O29   O     O_R   0.440210 0.499980 0.047140 -0.580132
O30   O     O_R   0.500020 0.440210 0.047140 -0.576881
O31   O     O_R   0.559790 0.500020 0.047140 -0.573607
O32   O     O_R   0.499980 0.559790 0.047140 -0.576270
O33   O     O_R   0.965350 0.499980 0.418590 -0.577204
O34   O     O_R   0.499980 0.034650 0.418590 -0.578067
O35   O     O_R   0.034650 0.500020 0.418590 -0.578611
O36   O     O_R   0.500020 0.965350 0.418590 -0.577746
O37   O     O_R   0.034650 0.499980 0.581410 -0.578051
O38   O     O_R   0.500020 0.034650 0.581410 -0.578572
O39   O     O_R   0.965350 0.500020 0.581410 -0.577763
O40   O     O_R   0.499980 0.965350 0.581410 -0.577248
O41   O     O_R   0.465350 0.999980 0.918590 -0.577200
O42   O     O_R   0.999980 0.534650 0.918590 -0.578025
O43   O     O_R   0.534650 0.000020 0.918590 -0.578633
O44   O     O_R   0.000020 0.465350 0.918590 -0.577776
O45   O     O_R   0.534650 0.999980 0.081410 -0.578092
O46   O     O_R   0.000020 0.534650 0.081410 -0.578550
O47   O     O_R   0.465350 0.000020 0.081410 -0.577736
O48   O     O_R   0.999980 0.465350 0.081410 -0.577253
O49   O     O_3   0.060003 0.206674 0.561149 -0.563258
C121  C     C_3   0.098212 0.207111 0.532075 0.069997
H17   H     H_    0.111235 0.239083 0.530631 0.141633
H18   H     H_    0.094689 0.195037 0.488225 0.138239
C122  C     C_3   0.128883 0.179362 0.562978 -0.773061
H19   H     H_    0.117488 0.146842 0.563138 0.248434
H20   H     H_    0.159495 0.180420 0.541599 0.189584
H21   H     H_    0.132724 0.190142 0.607176 0.255979
O50   O     O_3   0.206787 0.943161 0.566376 -0.562752
C123  C     C_3   0.207082 0.903741 0.540463 0.051481
H22   H     H_    0.239094 0.890794 0.539333 0.143839
H23   H     H_    0.194448 0.905305 0.496694 0.139047
C124  C     C_3   0.179897 0.874363 0.574428 -0.736936
H24   H     H_    0.147354 0.885692 0.574609 0.254031
H25   H     H_    0.180733 0.842924 0.555377 0.202879
H26   H     H_    0.191351 0.872383 0.618543 0.252125
O51   O     O_3   0.925060 0.793044 0.501495 -0.568559
C125  C     C_3   0.909853 0.795003 0.557271 0.053729
H27   H     H_    0.932988 0.809580 0.586107 0.144490
H28   H     H_    0.901908 0.763451 0.573094 0.143609
C126  C     C_3   0.870733 0.821351 0.558277 -0.741269
H29   H     H_    0.846745 0.807372 0.530549 0.247306
H30   H     H_    0.858444 0.823075 0.601977 0.200968
H31   H     H_    0.877796 0.853243 0.543364 0.255207
O52   O     O_3   0.792893 0.074938 0.508047 -0.567510
C127  C     C_3   0.797469 0.086084 0.565287 0.076732
H32   H     H_    0.814285 0.061519 0.589249 0.142896
H33   H     H_    0.766659 0.091643 0.585199 0.140667
C128  C     C_3   0.822619 0.125902 0.569094 -0.790778
H34   H     H_    0.806038 0.151433 0.547170 0.244699
H35   H     H_    0.827044 0.134604 0.614020 0.201170
H36   H     H_    0.853507 0.121417 0.549227 0.249361
O53   O     O_3   0.940089 0.206779 0.438868 -0.562935
C129  C     C_3   0.902071 0.206901 0.468403 0.050036
H37   H     H_    0.889129 0.238876 0.470872 0.143931
H38   H     H_    0.905873 0.194179 0.511870 0.139133
C130  C     C_3   0.871118 0.179699 0.437155 -0.734175
H39   H     H_    0.882493 0.147187 0.435789 0.254202
H40   H     H_    0.840716 0.180410 0.459105 0.203429
H41   H     H_    0.866882 0.191234 0.393375 0.251883
O54   O     O_3   0.793032 0.925339 0.491154 -0.569040
C131  C     C_3   0.795035 0.913179 0.434014 0.055625
H42   H     H_    0.809741 0.937760 0.407620 0.144763
H43   H     H_    0.763485 0.906223 0.417338 0.143396
C132  C     C_3   0.821246 0.874124 0.429168 -0.745366
H44   H     H_    0.807114 0.848739 0.454334 0.247369
H45   H     H_    0.823031 0.864251 0.384353 0.200844
H46   H     H_    0.853126 0.880232 0.444886 0.254846
O55   O     O_3   0.075155 0.792905 0.499192 -0.566963
C133  C     C_3   0.089314 0.797387 0.443183 0.077475
H47   H     H_    0.066036 0.814048 0.416766 0.142500
H48   H     H_    0.096036 0.766549 0.424034 0.140708
C134  C     C_3   0.129135 0.822688 0.443206 -0.791423
H49   H     H_    0.153468 0.806293 0.467752 0.245259
H50   H     H_    0.140237 0.826989 0.399247 0.200813
H51   H     H_    0.123465 0.853628 0.462347 0.249264
O56   O     O_3   0.206693 0.056941 0.433686 -0.563121
C135  C     C_3   0.206737 0.096338 0.459667 0.068885
H52   H     H_    0.238647 0.109544 0.460565 0.141724
H53   H     H_    0.194305 0.094653 0.503532 0.138350
C136  C     C_3   0.179133 0.125496 0.425945 -0.771650
H54   H     H_    0.146675 0.113925 0.426125 0.249069
H55   H     H_    0.179831 0.156968 0.444906 0.189815
H56   H     H_    0.190308 0.127519 0.381707 0.255676
O57   O     O_3   0.558477 0.706686 0.063808 -0.563180
C137  C     C_3   0.597305 0.706921 0.036288 0.069382
H57   H     H_    0.610423 0.738861 0.035116 0.141671
H58   H     H_    0.594714 0.694663 0.992413 0.138287
C138  C     C_3   0.627225 0.679245 0.068639 -0.772308
H59   H     H_    0.615741 0.646755 0.068628 0.248758
H60   H     H_    0.658287 0.680119 0.048480 0.189692
H61   H     H_    0.630141 0.690225 0.112875 0.255839
O58   O     O_3   0.706786 0.441578 0.063762 -0.562830
C139  C     C_3   0.706985 0.402846 0.035994 0.050713
H62   H     H_    0.738977 0.389890 0.034175 0.143886
H63   H     H_    0.694300 0.405549 0.992355 0.139076
C140  C     C_3   0.679795 0.372655 0.068606 -0.735497
H64   H     H_    0.647269 0.384019 0.069394 0.254118
H65   H     H_    0.680563 0.341723 0.048075 0.203194
H66   H     H_    0.691296 0.369530 0.112575 0.252013
O59   O     O_3   0.425155 0.293036 0.005236 -0.568792
C141  C     C_3   0.411499 0.295028 0.061748 0.054644
H67   H     H_    0.435389 0.309679 0.089345 0.144631
H68   H     H_    0.404057 0.263480 0.078034 0.143484
C142  C     C_3   0.372384 0.321303 0.064708 -0.743352
H69   H     H_    0.347666 0.307237 0.038278 0.247357
H70   H     H_    0.361323 0.323067 0.109008 0.200853
H71   H     H_    0.378962 0.353186 0.049355 0.255045
O60   O     O_3   0.292897 0.575095 0.004402 -0.567240
C143  C     C_3   0.297437 0.587758 0.061061 0.077088
H72   H     H_    0.314180 0.563821 0.086263 0.142698
H73   H     H_    0.266616 0.593905 0.080618 0.140705
C144  C     C_3   0.322661 0.627603 0.062939 -0.791091
H74   H     H_    0.306167 0.652551 0.039692 0.244981
H75   H     H_    0.327032 0.637515 0.107409 0.201017
H76   H     H_    0.353571 0.622519 0.043408 0.249299
O61   O     O_3   0.441617 0.706784 0.936172 -0.562855
C145  C     C_3   0.402868 0.706986 0.963893 0.050754
H77   H     H_    0.389911 0.738979 0.965694 0.143892
H78   H     H_    0.405542 0.694302 0.007536 0.139095
C146  C     C_3   0.372697 0.679796 0.931245 -0.735599
H79   H     H_    0.384060 0.647269 0.930472 0.254121
H80   H     H_    0.341751 0.680566 0.951739 0.203208
H81   H     H_    0.369600 0.691296 0.887272 0.251982
O62   O     O_3   0.293036 0.425151 0.994854 -0.568819
C147  C     C_3   0.295028 0.411456 0.938360 0.054608
H82   H     H_    0.309677 0.435328 0.910733 0.144644
H83   H     H_    0.263480 0.404001 0.922083 0.143534
C148  C     C_3   0.321305 0.372341 0.935448 -0.743205
H84   H     H_    0.307240 0.347639 0.961910 0.247350
H85   H     H_    0.323068 0.361249 0.891162 0.200919
H86   H     H_    0.353187 0.378930 0.950792 0.255035
O63   O     O_3   0.575092 0.292897 0.995503 -0.567250
C149  C     C_3   0.587715 0.297437 0.938828 0.077094
H87   H     H_    0.563762 0.314183 0.913659 0.142717
H88   H     H_    0.593847 0.266617 0.919262 0.140678
C150  C     C_3   0.627560 0.322660 0.936902 -0.791155
H89   H     H_    0.652523 0.306165 0.960116 0.244955
H90   H     H_    0.637440 0.327033 0.892420 0.201009
H91   H     H_    0.622491 0.353570 0.956443 0.249315
O64   O     O_3   0.706684 0.558517 0.936262 -0.563192
C151  C     C_3   0.706925 0.597330 0.963822 0.069434
H92   H     H_    0.738865 0.610445 0.965002 0.141694
H93   H     H_    0.694672 0.594715 0.007697 0.138296
C152  C     C_3   0.679246 0.627269 0.931508 -0.772372
H94   H     H_    0.646757 0.615788 0.931513 0.248749
H95   H     H_    0.680126 0.658320 0.951699 0.189689
H96   H     H_    0.690222 0.630208 0.887272 0.255836

loop_
_geom_bond_atom_site_label_1
_geom_bond_atom_site_label_2
_ccdc_geom_bond_type
C82   C94   A    
C101  C113  A    
C108  C120  A    
C42   C58   S    
O62   C147  S    
C142  H71   S    
C77   C89   A    
C46   C62   S    
C79   C99   A    
C98   C114  A    
C7    O11   A    
C128  H36   S    
C62   C70   T    
C21   C117  S    
C149  H87   S    
C37   C56   S    
C45   O43   A    
C18   C26   T    
C143  C144  S    
C80   C98   A    
C73   C101  A    
O55   C133  S    
C106  C118  A    
C75   C103  A    
C122  H21   S    
C108  H14   S    
C131  H43   S    
C24   C120  S    
C51   O21   A    
C46   O44   A    
C123  H22   S    
C20   C28   T    
C21   C29   T    
C54   O30   A    
C23   C31   T    
Cu3   O37   S    
C24   C32   T    
O53   C129  S    
Cu1   O39   S    
C43   O39   A    
Cu10  O23   S    
C40   C55   S    
C2    C26   S    
C129  H38   S    
C15   C39   T    
C16   C40   T    
C140  H66   S    
C6    C30   S    
C63   C71   T    
C139  H63   S    
C79   O55   S    
C20   C116  S    
C47   O47   A    
C22   C118  S    
C2    O8    A    
C151  C152  S    
C47   O45   A    
C86   C108  A    
C83   O59   S    
C101  H1    S    
C77   O53   S    
C127  C128  S    
C78   C92   A    
C74   C90   A    
C11   C35   T    
C17   C25   T    
C8    O14   A    
C47   C63   S    
C54   O26   A    
C38   C53   S    
Cu1   O1    S    
C123  H23   S    
Cu1   Cu3   S    
C73   C89   A    
C11   C91   S    
C87   C107  A    
C152  H94   S    
Cu5   Cu7   S    
C121  H18   S    
C136  H55   S    
C124  H26   S    
Cu12  O30   S    
C2    O2    A    
C143  H73   S    
C81   O57   S    
C43   C59   S    
C51   O19   A    
C52   O24   A    
C122  H20   S    
C53   O25   A    
C33   C52   S    
C134  H49   S    
O52   C127  S    
C104  H2    S    
Cu9   O18   S    
C56   O28   A    
Cu10  O22   S    
Cu4   O36   S    
Cu7   O45   S    
C23   C119  S    
O57   C137  S    
C125  H28   S    
Cu2   O38   S    
C39   C54   S    
C43   O37   A    
Cu10  O21   S    
Cu11  O28   S    
Cu8   O16   S    
C88   C106  A    
C111  C119  A    
C136  H54   S    
C45   C61   S    
Cu6   O42   S    
C151  H93   S    
C59   C67   T    
C85   C93   A    
C148  H85   S    
C87   C95   A    
C135  H53   S    
C77   C97   A    
C130  H39   S    
C79   C91   A    
C75   C91   A    
C86   O62   S    
O59   C141  S    
C146  H80   S    
C99   H7    S    
C121  C122  S    
C53   O31   A    
C97   H5    S    
C6    O10   A    
C144  H74   S    
C76   C102  A    
C4    O4    A    
C147  H83   S    
C16   C96   S    
Cu4   O40   S    
C135  C136  S    
C42   O36   A    
C126  H29   S    
C75   O51   S    
Cu7   O43   S    
Cu8   O44   S    
O61   C145  S    
C152  H96   S    
C85   O61   S    
C124  H24   S    
C127  H33   S    
C138  H60   S    
C60   C68   T    
Cu12  O32   S    
C44   O40   A    
Cu2   Cu4   S    
C74   C104  A    
Cu9   Cu10  S    
C56   O32   A    
C133  H47   S    
C124  H25   S    
C34   C49   S    
Cu6   Cu8   S    
C22   C30   T    
Cu9   O20   S    
C12   C92   S    
C137  H57   S    
C76   O52   S    
C142  H70   S    
C65   C72   S    
Cu11  O26   S    
C132  H46   S    
C3    C27   S    
C140  H65   S    
O49   C121  S    
C130  H41   S    
C141  H67   S    
C109  H9    S    
C5    O13   A    
C133  C134  S    
C4    O6    A    
C84   O60   S    
C87   O63   S    
C100  C116  A    
C105  C117  A    
C137  C138  S    
C109  C117  A    
O51   C125  S    
C42   O34   A    
C126  H31   S    
C131  C132  S    
C82   O58   S    
Cu2   O2    S    
C15   C95   S    
C145  H77   S    
Cu5   O9    S    
C48   C64   S    
C144  H76   S    
C146  H79   S    
Cu10  O24   S    
C68   C69   S    
C134  H51   S    
C141  C142  S    
C50   O18   A    
C1    O1    A    
O58   C139  S    
C9    C33   T    
C55   O29   A    
C139  C140  S    
C41   O33   A    
C107  C119  A    
C149  H88   S    
Cu3   O3    S    
C80   O56   S    
C17   C113  S    
C145  C146  S    
C9    C89   S    
O50   C123  S    
C13   C93   S    
C82   C112  A    
C103  C115  A    
C49   O17   A    
O60   C143  S    
C107  H15   S    
Cu6   O46   S    
C66   C71   S    
C105  H13   S    
C3    O7    A    
C50   O22   A    
C1    O5    A    
C100  H6    S    
C81   C109  A    
C78   O54   S    
C5    O9    A    
C78   C100  A    
C83   C111  A    
Cu11  Cu12  S    
C8    O12   A    
Cu1   O33   S    
Cu3   O5    S    
C131  H42   S    
Cu1   O7    S    
C48   O46   A    
C57   C65   T    
Cu9   O17   S    
C136  H56   S    
C41   C57   S    
C150  H89   S    
O56   C135  S    
C7    O15   A    
C44   C60   S    
C99   C115  A    
Cu11  O27   S    
C129  H37   S    
C102  H4    S    
C150  H90   S    
C10   C90   S    
C148  H84   S    
C88   C94   A    
Cu5   O47   S    
C139  H62   S    
C41   O35   A    
C14   C94   S    
C44   O38   A    
C149  C150  S    
C145  H78   S    
C122  H19   S    
C18   C114  S    
O63   C149  S    
C147  C148  S    
C135  H52   S    
O64   C151  S    
C132  H44   S    
C143  H72   S    
C14   C38   T    
C106  H16   S    
C129  C130  S    
C84   C96   A    
C112  H10   S    
C103  H3    S    
C128  H35   S    
C58   C66   T    
C152  H95   S    
C73   O49   S    
C121  H17   S    
C12   C36   T    
C19   C27   T    
C138  H59   S    
C13   C37   T    
Cu12  O29   S    
Cu4   O4    S    
Cu7   O13   S    
C48   O48   A    
C1    C25   S    
Cu2   O6    S    
Cu5   O15   S    
C46   O42   A    
C85   C105  A    
C4    C28   S    
C5    C29   S    
Cu6   O10   S    
C133  H48   S    
C134  H50   S    
C7    C31   S    
Cu9   O19   S    
C8    C32   S    
C110  C120  A    
C49   O23   A    
C125  H27   S    
C150  H91   S    
C137  H58   S    
C142  H69   S    
Cu11  O25   S    
C84   C110  A    
C98   H8    S    
C132  H45   S    
C110  H12   S    
C151  H92   S    
C81   C93   A    
C19   C115  S    
C148  H86   S    
C83   C95   A    
C35   C50   S    
C128  H34   S    
C10   C34   T    
C130  H40   S    
C55   O27   A    
C36   C51   S    
C86   C96   A    
C76   C92   A    
C104  C114  A    
C45   O41   A    
Cu4   O8    S    
C88   O64   S    
C146  H81   S    
C141  H68   S    
C97   C113  A    
Cu7   O11   S    
Cu8   O12   S    
C61   C69   T    
C147  H82   S    
Cu8   O48   S    
C6    O16   A    
C125  C126  S    
C111  H11   S    
C126  H30   S    
C3    O3    A    
C52   O20   A    
C112  C118  A    
C123  C124  S    
C144  H75   S    
C64   C72   T    
C80   C90   A    
C127  H32   S    
C138  H61   S    
O54   C131  S    
C102  C116  A    
Cu12  O31   S    
Cu2   O34   S    
Cu3   O35   S    
Cu5   O41   S    
C67   C70   S    
Cu6   O14   S    
C74   O50   S    
C140  H64   S    
