data_mof_unit_30633.cif
_audit_creation_date              2012-12-10T19:24:07-0500
_audit_creation_method            fapswitch 2.2
_symmetry_space_group_name_H-M    P1
_symmetry_Int_Tables_number       1
_space_group_crystal_system       triclinic
_cell_length_a                    10.555678
_cell_length_b                    10.528119
_cell_length_c                    9.915341
_cell_angle_alpha                 90.258678
_cell_angle_beta                  92.283062
_cell_angle_gamma                 88.518805
_cell_volume                      1100.65679402

loop_
_atom_site_label
_atom_site_type_symbol
_atom_type_description
_atom_site_fract_x
_atom_site_fract_y
_atom_site_fract_z
_atom_type_partial_charge
C1    C     C_R   0.502236 0.258366 0.499960 0.949623
C2    C     C_R   0.497761 0.741633 0.500040 0.949638
C3    C     C_3   0.403969 0.963941 0.574131 -0.094330
C4    C     C_3   0.596025 0.036054 0.425868 -0.094474
C5    C     C_3   0.469664 0.390593 0.046011 -0.142305
C6    C     C_3   0.530336 0.609408 0.953988 -0.142393
C7    C     C_3   0.580297 0.415971 0.955445 -0.189971
C8    C     C_3   0.419703 0.584030 0.044555 -0.190053
C9    C     C_3   0.391091 0.474664 0.947487 0.427826
C10   C     C_3   0.608909 0.525338 0.052513 0.427845
C11   C     C_R   0.258293 0.497434 0.497305 0.945353
C12   C     C_R   0.741706 0.502566 0.502695 0.945342
C13   C     C_3   0.049145 0.420482 0.590663 0.435328
C14   C     C_3   0.950854 0.579517 0.409337 0.435325
C15   C     C_3   0.955655 0.381738 0.475729 -0.353303
C16   C     C_3   0.044344 0.618262 0.524270 -0.353293
C17   C     C_3   0.876684 0.502539 0.508017 -0.143140
C18   C     C_3   0.123316 0.497461 0.491982 -0.143142
C19   C     C_3   0.969655 0.539212 0.623841 -0.126257
C20   C     C_3   0.030344 0.460788 0.376158 -0.126259
C21   C     C_3   0.517283 0.040324 0.625317 0.496499
C22   C     C_3   0.482712 0.959671 0.374683 0.496474
C23   C     C_3   0.611987 0.951869 0.553271 -0.450721
C24   C     C_3   0.388006 0.048126 0.446729 -0.450706
C25   C     C_3   0.497112 0.876350 0.500324 -0.134933
C26   C     C_3   0.502881 0.123647 0.499677 -0.135124
H1    H     H_    0.919834 0.284330 0.461731 0.205133
H2    H     H_    0.080163 0.715671 0.538265 0.205150
H3    H     H_    0.702988 0.910941 0.595314 0.189554
H4    H     H_    0.297005 0.089053 0.404684 0.189557
N1    N     N_3   0.499910 0.500030 0.863290 -0.157450
N2    N     N_3   0.500090 0.499970 0.136710 -0.157454
O1    O     O_R   0.500010 0.313960 0.616610 -0.532559
O2    O     O_R   0.499990 0.686040 0.383390 -0.532500
O3    O     O_R   0.500060 0.313950 0.383350 -0.613458
O4    O     O_R   0.499940 0.686050 0.616650 -0.613484
O5    O     O_R   0.313930 0.499970 0.616610 -0.561444
O6    O     O_R   0.686070 0.500030 0.383390 -0.561453
O7    O     O_R   0.313980 0.499960 0.383350 -0.581236
O8    O     O_R   0.686020 0.500040 0.616650 -0.581218
Zn1   Zn    Zn3+2 0.499970 0.500010 0.655740 1.080053
Zn2   Zn    Zn3+2 0.500030 0.499990 0.344260 1.080071
O9    O     O_3   0.104945 0.335482 0.684821 -0.659789
H5    H     H_    0.033324 0.294308 0.727457 0.369380
O10   O     O_3   0.895055 0.664518 0.315178 -0.659783
H6    H     H_    0.966676 0.705691 0.272541 0.369386
C27   C     C_2   0.943698 0.580345 0.764493 1.026485
O11   O     O_2   0.967012 0.688499 0.801232 -0.587625
O12   O     O_R   0.898284 0.493098 0.854712 -0.782474
H7    H     H_    0.894205 0.529485 0.948946 0.378907
C28   C     C_2   0.056302 0.419658 0.235506 1.026487
O13   O     O_2   0.032982 0.311507 0.198762 -0.587617
O14   O     O_R   0.101725 0.506905 0.145292 -0.782492
H8    H     H_    0.105803 0.470521 0.051057 0.378906
O15   O     O_3   0.531172 0.086632 0.757506 -0.659905
H9    H     H_    0.610383 0.046673 0.796193 0.354433
O16   O     O_3   0.468815 0.913337 0.242504 -0.659969
H10   H     H_    0.389817 0.953631 0.203662 0.354530
C29   C     C_2   0.296998 0.928833 0.660517 1.019270
O17   O     O_2   0.231798 0.012756 0.710669 -0.527033
O18   O     O_R   0.272416 0.801408 0.683935 -0.814160
H11   H     H_    0.197852 0.790595 0.743686 0.384470
C30   C     C_2   0.703001 0.071159 0.339487 1.019227
O19   O     O_2   0.768222 0.987236 0.289368 -0.527063
O20   O     O_R   0.727569 0.198582 0.316043 -0.814117
H12   H     H_    0.802144 0.209393 0.256306 0.384472
C31   C     C_2   0.678370 0.319154 0.913042 1.076315
O21   O     O_2   0.735692 0.255300 0.999273 -0.599212
O22   O     O_R   0.706061 0.302834 0.777862 -0.732431
H13   H     H_    0.775047 0.235805 0.763883 0.327010
C32   C     C_2   0.321635 0.680853 0.086957 1.076464
O23   O     O_2   0.264309 0.744702 0.000723 -0.599220
O24   O     O_R   0.293956 0.697189 0.222138 -0.732317
H14   H     H_    0.224986 0.764235 0.236117 0.327083
C33   C     C_2   0.424885 0.266885 0.097433 1.070956
O25   O     O_2   0.487057 0.169108 0.080207 -0.559224
O26   O     O_R   0.309817 0.263916 0.161654 -0.756626
H15   H     H_    0.285333 0.174468 0.184693 0.336817
C34   C     C_2   0.575112 0.733119 0.902566 1.071028
O27   O     O_2   0.512938 0.830894 0.919787 -0.559060
O28   O     O_R   0.690181 0.736092 0.838346 -0.756618
H16   H     H_    0.714660 0.825541 0.815306 0.336873
O29   O     O_3   0.274029 0.443093 0.887924 -0.670032
H17   H     H_    0.234254 0.524558 0.856613 0.356097
O30   O     O_3   0.725971 0.556908 0.112075 -0.670038
H18   H     H_    0.765745 0.475443 0.143388 0.356102

loop_
_geom_bond_atom_site_label_1
_geom_bond_atom_site_label_2
_ccdc_geom_bond_type
C16   H2    S    
C7    C10   S    
C21   C26   S    
C30   O20   S    
C10   O30   S    
C12   O8    A    
O24   H14   S    
O2    Zn2   S    
O15   H9    S    
C22   O16   S    
O28   H16   S    
C3    C24   S    
C1    O1    A    
C11   C18   S    
O10   H6    S    
C4    C30   S    
C13   C18   S    
C23   H3    S    
C24   C26   S    
O6    Zn2   S    
C20   C28   S    
C19   C27   S    
C11   O5    A    
O3    Zn2   S    
C33   O25   D    
O29   H17   S    
C8    C9    S    
C22   C25   S    
C12   C17   S    
O7    Zn2   S    
C18   C20   S    
O26   H15   S    
C5    N2    S    
C2    O2    A    
C6    N1    S    
C29   O17   D    
C12   O6    A    
C14   C17   S    
O4    Zn1   S    
O18   H11   S    
C6    C34   S    
C14   O10   S    
C15   C20   S    
C29   O18   S    
C7    N1    S    
C13   C19   S    
C31   O21   D    
C8    N2    S    
C14   C20   S    
C3    C25   S    
C27   O12   S    
C5    C7    S    
C4    C23   S    
C6    C8    S    
O30   H18   S    
C28   O13   D    
C31   O22   S    
C5    C33   S    
O9    H5    S    
C5    C9    S    
C4    C22   S    
C15   H1    S    
C27   O11   D    
C11   O7    A    
C33   O26   S    
C9    O29   S    
O8    Zn1   S    
O12   H7    S    
C21   C23   S    
C1    C26   S    
C22   C24   S    
C3    C21   S    
C13   O9    S    
C1    O3    A    
C34   O28   S    
C2    O4    A    
C15   C17   S    
C8    C32   S    
N1    Zn1   S    
C30   O19   D    
C6    C10   S    
C4    C26   S    
O14   H8    S    
O1    Zn1   S    
C13   C15   S    
C32   O23   D    
O16   H10   S    
C16   C19   S    
C21   O15   S    
C17   C19   S    
C2    C25   S    
C14   C16   S    
C23   C25   S    
O5    Zn1   S    
O22   H13   S    
C24   H4    S    
C9    N1    S    
C7    C31   S    
C34   O27   D    
C10   N2    S    
C16   C18   S    
O20   H12   S    
C32   O24   S    
N2    Zn2   S    
C28   O14   S    
C3    C29   S    
