data_mof_unit_32031.cif
_audit_creation_date              2012-12-10T17:12:28-0500
_audit_creation_method            fapswitch 2.2
_symmetry_space_group_name_H-M    P1
_symmetry_Int_Tables_number       1
_space_group_crystal_system       triclinic
_cell_length_a                    11.696178
_cell_length_b                    13.069083
_cell_length_c                    11.68055
_cell_angle_alpha                 98.954345
_cell_angle_beta                  94.13712
_cell_angle_gamma                 90.637771
_cell_volume                      1758.66031086

loop_
_atom_site_label
_atom_site_type_symbol
_atom_type_description
_atom_site_fract_x
_atom_site_fract_y
_atom_site_fract_z
_atom_type_partial_charge
C1    C     C_R   0.497194 0.299594 0.479836 0.845811
C2    C     C_R   0.502383 0.700829 0.520474 0.852814
C3    C     C_R   0.386182 0.408002 0.022582 -0.427790
C4    C     C_R   0.619042 0.585385 0.976576 -0.422196
C5    C     C_R   0.394793 0.417669 0.146115 0.689801
C6    C     C_R   0.607132 0.579453 0.854105 0.660113
C7    C     C_R   0.553731 0.534647 0.155428 -0.015902
C8    C     C_R   0.449305 0.461512 0.843826 -0.018902
C9    C     C_R   0.544683 0.529049 0.033139 0.006399
C10   C     C_R   0.459287 0.465789 0.966161 0.011226
C11   C     C_R   0.283896 0.499749 0.499939 0.821988
C12   C     C_R   0.716088 0.499823 0.500001 0.807172
C13   C     C_1   0.162271 0.499456 0.499867 -0.194581
C14   C     C_1   0.837684 0.499465 0.499908 -0.208320
C15   C     C_1   0.059818 0.499300 0.499797 -0.009513
C16   C     C_1   0.940119 0.499301 0.499824 -0.016412
C17   C     C_R   0.502303 0.814105 0.531895 -0.246832
C18   C     C_R   0.489036 0.187212 0.470727 -0.209862
C19   C     C_R   0.428403 0.021238 0.355218 0.502407
C20   C     C_R   0.526549 0.980710 0.656534 0.459689
C21   C     C_R   0.439867 0.129687 0.367865 -0.415799
C22   C     C_R   0.522357 0.873174 0.642433 -0.354797
C23   C     C_R   0.523026 0.138529 0.566564 0.402656
C24   C     C_R   0.481838 0.863927 0.434063 0.449347
C25   C     C_R   0.506481 0.031148 0.558481 -0.181372
C26   C     C_R   0.470773 0.972121 0.449011 -0.140267
Cu1   Cu    Cu3+1 0.508350 0.507730 0.615930 0.978122
Cu2   Cu    Cu3+1 0.491650 0.492270 0.384070 0.987415
H1    H     H_    0.538551 0.836188 0.718680 0.213562
H2    H     H_    0.409586 0.171263 0.299019 0.190150
H3    H     H_    0.384173 0.412040 0.791387 0.148340
H4    H     H_    0.620624 0.582034 0.207259 0.136534
H5    H     H_    0.323988 0.356106 0.969606 0.141891
H6    H     H_    0.685452 0.634254 0.027405 0.148266
N1    N     N_R   0.520920 0.519350 0.790130 -0.218297
N2    N     N_R   0.479080 0.480650 0.209870 -0.210014
O1    O     O_R   0.505930 0.354460 0.582000 -0.552438
O2    O     O_R   0.494070 0.645540 0.418000 -0.553099
O3    O     O_R   0.491820 0.341410 0.386200 -0.557290
O4    O     O_R   0.508180 0.658590 0.613800 -0.554209
O5    O     O_R   0.344250 0.506540 0.597900 -0.592846
O6    O     O_R   0.655750 0.493460 0.402100 -0.594197
O7    O     O_R   0.330140 0.493480 0.402100 -0.543421
O8    O     O_R   0.669860 0.506520 0.597900 -0.561149
O9    O     O_3   0.481583 0.808287 0.323004 -0.513833
C27   C     C_3   0.591336 0.818676 0.280966 0.114062
H7    H     H_    0.643880 0.751864 0.298403 0.127160
H8    H     H_    0.640441 0.890693 0.321448 0.099838
C28   C     C_3   0.578327 0.820043 0.150715 -0.756302
H9    H     H_    0.543015 0.894852 0.133032 0.252999
H10   H     H_    0.663476 0.811732 0.114623 0.175263
H11   H     H_    0.519783 0.756172 0.107046 0.263464
O10   O     O_3   0.570151 0.196567 0.668809 -0.535018
C29   C     C_3   0.690024 0.205201 0.662979 0.147156
H12   H     H_    0.711881 0.239098 0.585227 0.098744
H13   H     H_    0.729962 0.127980 0.660270 0.144341
C30   C     C_3   0.740715 0.276389 0.770662 -0.766247
H14   H     H_    0.722507 0.243947 0.850033 0.252507
H15   H     H_    0.834994 0.284111 0.767249 0.181929
H16   H     H_    0.702896 0.354359 0.775004 0.247498
O11   O     O_3   0.371200 0.959331 0.258721 -0.529600
C31   C     C_3   0.331717 0.012572 0.167783 0.057714
H17   H     H_    0.404557 0.051438 0.134440 0.138389
H18   H     H_    0.265779 0.069451 0.197506 0.142604
C32   C     C_3   0.276046 0.935128 0.068042 -0.779452
H19   H     H_    0.202957 0.894101 0.098141 0.253724
H20   H     H_    0.243853 0.976365 0.996327 0.184221
H21   H     H_    0.339444 0.877437 0.034648 0.250384
O12   O     O_3   0.553111 0.035380 0.766640 -0.548285
C33   C     C_3   0.450249 0.057090 0.821190 0.121301
H22   H     H_    0.414815 0.985399 0.847127 0.125653
H23   H     H_    0.384434 0.089553 0.763637 0.138632
C34   C     C_3   0.475190 0.137294 0.929617 -0.775331
H24   H     H_    0.510313 0.209761 0.905745 0.275542
H25   H     H_    0.394829 0.155326 0.973069 0.180313
H26   H     H_    0.538475 0.107118 0.990876 0.236669
O13   O     O_3   0.675720 0.640280 0.798153 -0.590461
C35   C     C_3   0.794250 0.627293 0.826226 0.040117
H27   H     H_    0.835444 0.604298 0.743694 0.179008
H28   H     H_    0.813741 0.564826 0.879484 0.116120
C36   C     C_3   0.849065 0.730387 0.886383 -0.355501
H29   H     H_    0.836339 0.789594 0.828120 0.232065
H30   H     H_    0.807232 0.757562 0.967584 0.209316
C37   C     C_3   0.977254 0.719958 0.915972 -0.914342
H31   H     H_    0.991865 0.662633 0.976163 0.257442
H32   H     H_    0.014556 0.795989 0.958905 0.255335
H33   H     H_    0.021527 0.694783 0.835652 0.259674
O14   O     O_3   0.325995 0.359833 0.206080 -0.599019
C38   C     C_3   0.210962 0.343993 0.158307 0.001555
H34   H     H_    0.166556 0.299105 0.215982 0.172015
H35   H     H_    0.204908 0.293590 0.072315 0.119749
C39   C     C_3   0.146526 0.445921 0.155552 -0.345023
H36   H     H_    0.154378 0.493469 0.243275 0.243269
H37   H     H_    0.183698 0.491372 0.093938 0.208330
C40   C     C_3   0.019624 0.425128 0.117939 -0.916434
H38   H     H_    0.009280 0.378346 0.029729 0.252580
H39   H     H_    0.975774 0.499818 0.115682 0.253280
H40   H     H_    0.978440 0.383108 0.180333 0.260685

loop_
_geom_bond_atom_site_label_1
_geom_bond_atom_site_label_2
_ccdc_geom_bond_type
O13   C35   S    
C22   H1    S    
C18   C21   A    
C7    N2    A    
C40   H38   S    
C37   H33   S    
C28   H10   S    
C36   H29   S    
C40   H40   S    
O10   C29   S    
C27   C28   S    
C1    C18   S    
C24   O9    S    
C19   C21   A    
C24   C26   A    
C35   H28   S    
C30   H15   S    
C20   C25   A    
C3    H5    S    
C15   C16   S    
C5    N2    A    
C6    N1    A    
C34   H24   S    
C19   C26   A    
C2    O2    A    
C31   H18   S    
C27   H7    S    
C5    O14   S    
Cu1   O8    S    
C32   H20   S    
C12   O6    A    
C11   O7    A    
C33   H22   S    
C38   H35   S    
C9    C10   A    
C1    O1    A    
C32   H21   S    
C2    C17   S    
C34   H25   S    
O11   C31   S    
C36   H30   S    
C23   O10   S    
C27   H8    S    
C29   H13   S    
C17   C24   A    
C18   C23   A    
C37   H31   S    
C4    C6    A    
C35   H27   S    
C6    O13   S    
C30   H16   S    
Cu2   O3    S    
Cu1   N1    S    
C25   C26   A    
O9    C27   S    
C39   C40   S    
C8    N1    A    
C31   H17   S    
Cu1   O5    S    
Cu2   O2    S    
Cu1   O4    S    
C28   H11   S    
C33   C34   S    
C39   H37   S    
C38   C39   S    
C12   C14   S    
C32   H19   S    
C13   C15   T    
C34   H26   S    
C14   C16   T    
C20   O12   S    
C36   C37   S    
C7    C9    A    
C29   H12   S    
C7    H4    S    
C31   C32   S    
C8    H3    S    
C20   C22   A    
C3    C5    A    
C40   H39   S    
C21   H2    S    
Cu2   O7    S    
C17   C22   A    
C4    C9    A    
C12   O8    A    
C3    C10   A    
C11   C13   S    
C35   C36   S    
C30   H14   S    
C19   O11   S    
Cu2   O6    S    
C39   H36   S    
C11   O5    A    
C23   C25   A    
C4    H6    S    
O12   C33   S    
C1    O3    A    
C2    O4    A    
O14   C38   S    
Cu2   N2    S    
C8    C10   A    
C28   H9    S    
Cu1   Cu2   S    
C37   H32   S    
C33   H23   S    
C38   H34   S    
Cu1   O1    S    
C29   C30   S    
