data_mof_unit_53223.cif
_audit_creation_date              2013-03-05T15:57:37-0500
_audit_creation_method            fapswitch 2.2
_symmetry_space_group_name_H-M    P1
_symmetry_Int_Tables_number       1
_space_group_crystal_system       triclinic
_cell_length_a                    15.067972
_cell_length_b                    13.899729
_cell_length_c                    11.68886
_cell_angle_alpha                 89.905766
_cell_angle_beta                  87.600584
_cell_angle_gamma                 89.255121
_cell_volume                      2445.76878068

loop_
_atom_site_label
_atom_site_type_symbol
_atom_site_description
_atom_site_fract_x
_atom_site_fract_y
_atom_site_fract_z
_atom_type_partial_charge
O1    O     O_R   0.370260 0.582280 0.500020 -0.565071
O2    O     O_R   0.629740 0.417720 0.499980 -0.555281
O3    O     O_R   0.629740 0.582280 0.499980 -0.558543
O4    O     O_R   0.370260 0.417720 0.500020 -0.555758
C1    C     C_R   0.328910 0.500611 0.498819 0.822724
C2    C     C_R   0.671168 0.499804 0.499352 0.820061
O5    O     O_R   0.500010 0.582270 0.337200 -0.542447
O6    O     O_R   0.499990 0.417730 0.662800 -0.548099
O7    O     O_R   0.499990 0.582270 0.662800 -0.538049
O8    O     O_R   0.500010 0.417730 0.337200 -0.549641
C3    C     C_R   0.500200 0.500057 0.284225 0.831748
C4    C     C_R   0.499824 0.499954 0.715772 0.838121
Cu1   Cu    Cu3+1 0.500000 0.597420 0.500000 1.086212
Cu2   Cu    Cu3+1 0.500000 0.402580 0.500000 1.086307
C5    C     C_1   0.500167 0.500156 0.162472 -0.046036
C6    C     C_1   0.499852 0.499908 0.837524 -0.043079
C7    C     C_1   0.500078 0.500127 0.059922 0.093030
C8    C     C_1   0.499936 0.500004 0.940073 0.093831
C9    C     C_R   0.817197 0.426304 0.445750 -0.122052
C10   C     C_R   0.183507 0.581053 0.538461 -0.138923
C11   C     C_R   0.768081 0.500617 0.498646 -0.084569
C12   C     C_R   0.232233 0.502199 0.494542 -0.084577
C13   C     C_R   0.811526 0.577835 0.547767 -0.119733
C14   C     C_R   0.188677 0.424980 0.445872 -0.102937
C15   C     C_R   0.904537 0.579671 0.548144 -0.001490
C16   C     C_R   0.095936 0.425471 0.440720 -0.003460
C17   C     C_R   0.953674 0.502918 0.495155 0.033939
C18   C     C_R   0.046882 0.503153 0.491796 0.034571
C19   C     C_R   0.909508 0.426023 0.444739 0.044299
C20   C     C_R   0.091120 0.581153 0.539822 0.046554
C21   C     C_R   0.949844 0.656877 0.597515 0.320847
C22   C     C_R   0.050728 0.349414 0.388884 0.320758
C23   C     C_R   0.042714 0.657501 0.590653 -0.189804
C24   C     C_R   0.957868 0.350382 0.392350 -0.184785
H1    H     H_    0.783680 0.370541 0.401571 0.227948
H2    H     H_    0.217230 0.641326 0.574634 0.214623
H3    H     H_    0.771999 0.636401 0.584518 0.207770
H4    H     H_    0.227884 0.364904 0.412366 0.216097
H5    H     H_    0.077356 0.716611 0.628626 0.219160
H6    H     H_    0.923223 0.292287 0.352311 0.220394
C25   C     C_R   0.451534 0.794762 0.582559 0.442020
C26   C     C_R   0.559826 0.204469 0.431792 0.470671
C27   C     C_R   0.548154 0.793018 0.416354 0.439531
C28   C     C_R   0.438495 0.207390 0.568124 0.439295
N1    N     N_R   0.500000 0.743810 0.500000 -0.299154
N2    N     N_R   0.500000 0.256190 0.500000 -0.302512
C29   C     C_R   0.551939 0.896198 0.416581 -0.193005
C30   C     C_R   0.439588 0.104071 0.574379 -0.191972
C31   C     C_R   0.443116 0.897246 0.576815 -0.193120
C32   C     C_R   0.552899 0.102586 0.420148 -0.184712
C33   C     C_R   0.496897 0.948349 0.496479 -0.012849
C34   C     C_R   0.496203 0.051610 0.496830 -0.021246
C35   C     C_R   0.606652 0.949163 0.337221 0.257711
C36   C     C_R   0.384189 0.051376 0.653008 0.265688
C37   C     C_R   0.383894 0.950058 0.651447 0.269547
C38   C     C_R   0.604159 0.050428 0.336213 0.278756
N3    N     N_R   0.903309 0.734079 0.656717 0.138040
O9    O     O_R   0.845745 0.715145 0.739539 -0.299287
O10   O     O_R   0.930540 0.822026 0.643536 -0.245590
N4    N     N_R   0.097431 0.272023 0.330214 0.141518
O11   O     O_R   0.157961 0.290750 0.250904 -0.304065
O12   O     O_R   0.068252 0.184573 0.340170 -0.244174
N5    N     N_R   0.419289 0.746049 0.683466 0.160740
O13   O     O_R   0.347217 0.695829 0.682908 -0.326631
O14   O     O_R   0.457994 0.759273 0.779557 -0.286685
N6    N     N_R   0.639094 0.249664 0.389180 0.138487
O15   O     O_R   0.638079 0.305000 0.299462 -0.309617
O16   O     O_R   0.714864 0.218283 0.424851 -0.349822
N7    N     N_R   0.590464 0.740033 0.324176 0.158236
O17   O     O_R   0.669362 0.702926 0.334698 -0.292671
O18   O     O_R   0.555650 0.741053 0.224109 -0.292063
N8    N     N_R   0.368991 0.260746 0.627224 0.159566
O19   O     O_R   0.380980 0.295507 0.728531 -0.284262
O20   O     O_R   0.288887 0.257893 0.589993 -0.313597
N9    N     N_R   0.668292 0.902134 0.258469 0.184640
O21   O     O_R   0.653975 0.903680 0.149447 -0.201627
O22   O     O_R   0.747341 0.880069 0.291711 -0.227354
N10   N     N_R   0.329915 0.098696 0.739897 0.185502
O23   O     O_R   0.243894 0.098509 0.733614 -0.199513
O24   O     O_R   0.364277 0.119183 0.837042 -0.227044
N11   N     N_R   0.317209 0.902183 0.720816 0.181122
O25   O     O_R   0.318302 0.906650 0.831940 -0.197668
O26   O     O_R   0.247754 0.868194 0.673057 -0.280754
N12   N     N_R   0.648342 0.099372 0.242216 0.182329
O27   O     O_R   0.733960 0.090919 0.224800 -0.199316
O28   O     O_R   0.601447 0.142570 0.166026 -0.257752

loop_
_geom_bond_atom_site_label_1
_geom_bond_atom_site_label_2
_geom_bond_distance
_ccdc_geom_bond_type
C15   C21   1.415917 A    
N6    O16   1.301494 A    
N5    O14   1.301447 A    
C16   C22   1.415678 A    
C17   C19   1.409232 A    
O3    C2    1.298067 A    
N11   O25   1.301297 A    
Cu2   N2    2.034781 S    
C10   C20   1.391495 A    
C30   C36   1.423886 A    
C23   H5    1.084564 S    
C24   H6    1.084566 S    
C9    C11   1.393143 A    
N12   O28   1.301091 A    
N10   O24   1.301034 A    
N3    O10   1.301380 A    
N4    O12   1.301362 A    
C26   N2    1.374757 A    
N7    O18   1.301784 A    
O7    Cu1   1.914212 S    
C3    C5    1.423170 S    
C1    C12   1.459551 S    
C4    C6    1.423159 S    
C31   C33   1.411412 A    
C14   H4    1.080998 S    
C21   C23   1.398437 A    
C37   N11   1.434341 S    
O3    Cu1   1.963480 S    
C29   C35   1.425351 A    
N6    O15   1.299995 A    
C27   N7    1.429205 S    
Cu1   Cu2   2.708222 S    
C35   N9    1.432453 S    
C25   C31   1.430207 A    
N11   O26   1.301042 A    
C28   N2    1.380520 A    
C38   N12   1.435733 S    
C33   C34   1.435215 A    
N12   O27   1.301431 A    
N8    O20   1.301202 A    
O8    Cu2   1.914212 S    
N10   O23   1.301345 A    
O4    C1    1.303031 A    
C29   C33   1.416784 A    
C13   H3    1.081238 S    
C2    C11   1.460148 S    
C19   C24   1.398643 A    
C32   C38   1.417405 A    
O2    C2    1.307517 A    
N4    O11   1.301383 A    
C22   C24   1.397998 A    
O5    C3    1.300529 A    
N9    O21   1.301444 A    
N9    O22   1.301020 A    
C32   C34   1.408833 A    
O5    Cu1   1.914900 S    
O6    C4    1.300664 A    
C7    C8    1.400990 S    
C25   N1    1.376932 A    
C27   N1    1.378967 A    
C26   C32   1.428486 A    
C10   C12   1.397601 A    
C11   C13   1.400704 A    
O1    C1    1.302383 A    
O1    Cu1   1.968921 S    
C22   N4    1.437023 S    
C9    C19   1.390454 A    
C35   C38   1.407614 A    
C5    C7    1.198749 T    
C36   C37   1.408510 A    
O6    Cu2   1.914900 S    
C20   C23   1.398878 A    
C14   C16   1.401159 A    
N8    O19   1.300153 A    
C15   C17   1.418876 A    
C16   C18   1.418824 A    
C21   N3    1.436774 S    
C18   C20   1.409612 A    
C31   C37   1.419886 A    
Cu1   N1    2.034781 S    
N3    O9    1.301384 A    
C28   N8    1.430010 S    
C12   C14   1.399290 A    
C13   C15   1.402232 A    
O4    Cu2   1.963481 S    
N7    O17   1.300219 A    
O2    Cu2   1.968920 S    
O7    C4    1.300046 A    
O8    C3    1.300205 A    
N5    O13   1.298834 A    
C10   H2    1.081237 S    
C30   C34   1.415056 A    
C6    C8    1.198744 T    
C17   C18   1.403411 A    
C26   N6    1.427588 S    
C25   N5    1.429572 S    
C9    H1    1.075099 S    
C27   C29   1.436057 A    
C28   C30   1.437763 A    
C36   N10   1.432341 S    
