data_mof_unit_36449.cif
_audit_creation_date              2012-10-26T18:47:58-0400
_audit_creation_method            fapswitch 2.2
_symmetry_space_group_name_H-M    P1
_symmetry_Int_Tables_number       1
_space_group_crystal_system       triclinic
_cell_length_a                    15.852187
_cell_length_b                    8.692042
_cell_length_c                    7.452417
_cell_angle_alpha                 103.010149
_cell_angle_beta                  94.037379
_cell_angle_gamma                 92.186219
_cell_volume                      996.469224969

loop_
_atom_site_label
_atom_site_type_symbol
_atom_type_description
_atom_site_fract_x
_atom_site_fract_y
_atom_site_fract_z
_atom_type_partial_charge
C1    C     C_R   0.497491 0.199737 0.453266 0.546540
C2    C     C_2   0.503722 0.968163 0.572980 -0.154469
C3    C     C_R   0.340329 0.499891 0.502606 0.548589
C4    C     C_R   0.502514 0.800263 0.546734 0.549295
C5    C     C_R   0.659671 0.500174 0.497400 0.551208
C6    C     C_3   0.049724 0.405305 0.638200 -0.234889
C7    C     C_3   0.042794 0.427628 0.306339 -0.217874
C8    C     C_3   0.944968 0.427212 0.301513 -0.192640
C9    C     C_1   0.749174 0.500343 0.492440 -0.017933
C10   C     C_3   0.083000 0.501886 0.504135 0.047578
C11   C     C_3   0.951888 0.405138 0.632868 -0.265377
C12   C     C_3   0.917164 0.502496 0.495847 0.114963
C13   C     C_3   0.956643 0.674600 0.559929 0.136909
C14   C     C_3   0.054835 0.673525 0.562690 -0.179224
C15   C     C_1   0.824786 0.501080 0.492271 -0.025826
C16   C     C_1   0.175258 0.501301 0.507824 -0.076780
C17   C     C_1   0.250846 0.500741 0.507664 -0.033012
C18   C     C_2   0.496290 0.031837 0.427019 -0.154797
Cu1   Cu    Cu3+1 0.509300 0.517380 0.684380 0.963849
Cu2   Cu    Cu3+1 0.490700 0.482620 0.315620 0.962980
H1    H     H_    0.924676 0.281139 0.590591 0.120445
H2    H     H_    0.062399 0.304233 0.260463 0.113854
H3    H     H_    0.917755 0.303456 0.254860 0.100018
H4    H     H_    0.920597 0.493436 0.198934 0.162170
H5    H     H_    0.083257 0.729691 0.704286 0.079979
H6    H     H_    0.078683 0.744889 0.468177 0.141010
H7    H     H_    0.938862 0.725048 0.702831 0.107953
H8    H     H_    0.939485 0.880018 0.506197 0.310951
H9    H     H_    0.077459 0.456985 0.781575 0.117564
H10   H     H_    0.932670 0.455817 0.773991 0.107909
H11   H     H_    0.489283 0.960255 0.286348 0.135065
H12   H     H_    0.510730 0.039746 0.713652 0.134858
H13   H     H_    0.434943 0.376772 0.948703 0.239076
H14   H     H_    0.565058 0.623227 0.051297 0.242886
H15   H     H_    0.069422 0.281418 0.599104 0.121308
H16   H     H_    0.065513 0.495605 0.207417 0.119399
N1    N     N_2   0.476670 0.456430 0.038530 -0.256271
N2    N     N_2   0.523330 0.543570 0.961470 -0.254546
O1    O     O_R   0.506050 0.286130 0.619770 -0.506317
O2    O     O_R   0.490330 0.256780 0.308370 -0.498501
O3    O     O_R   0.387300 0.514690 0.655770 -0.500652
O4    O     O_R   0.371580 0.485340 0.344370 -0.495441
O5    O     O_R   0.509670 0.743220 0.691630 -0.497206
O6    O     O_R   0.493950 0.713870 0.380230 -0.505442
O7    O     O_R   0.628420 0.514660 0.655630 -0.493765
O8    O     O_R   0.612700 0.485310 0.344230 -0.496758
O9    O     O_3   0.925243 0.768100 0.441579 -0.718637

loop_
_geom_bond_atom_site_label_1
_geom_bond_atom_site_label_2
_ccdc_geom_bond_type
C6    C10   S    
C7    C10   S    
C2    C4    S    
C11   C12   S    
Cu1   O7    S    
C3    O4    A    
C5    C9    S    
N1    N2    D    
C4    O5    A    
C2    C18   D    
C7    H2    S    
C7    H16   S    
Cu2   O4    S    
Cu1   Cu2   S    
C12   C15   S    
C8    C12   S    
C6    H9    S    
C9    C15   T    
C7    C8    S    
H8    O9    S    
C10   C16   S    
C13   C14   S    
C12   C13   S    
Cu2   N1    S    
C1    C18   S    
Cu1   O1    S    
C8    H4    S    
Cu1   O5    S    
C3    C17   S    
C14   H5    S    
C10   C14   S    
Cu2   O2    S    
Cu2   O8    S    
C1    O1    A    
C8    H3    S    
C6    H15   S    
C2    H12   S    
C14   H6    S    
C5    O8    A    
C6    C11   S    
C13   O9    S    
Cu1   N2    S    
C3    O3    A    
C13   H7    S    
C18   H11   S    
C4    O6    A    
C1    O2    A    
Cu2   O6    S    
H14   N2    S    
C5    O7    A    
C11   H1    S    
H13   N1    S    
Cu1   O3    S    
C11   H10   S    
C16   C17   T    
