data_mof_unit_31480.cif
_audit_creation_date              2012-12-11T17:39:31-0500
_audit_creation_method            fapswitch 2.2
_symmetry_space_group_name_H-M    P1
_symmetry_Int_Tables_number       1
_space_group_crystal_system       triclinic
_cell_length_a                    15.107226
_cell_length_b                    15.060744
_cell_length_c                    14.906447
_cell_angle_alpha                 108.773901
_cell_angle_beta                  109.812723
_cell_angle_gamma                 110.451835
_cell_volume                      2590.10878394

loop_
_atom_site_label
_atom_site_type_symbol
_atom_type_description
_atom_site_fract_x
_atom_site_fract_y
_atom_site_fract_z
_atom_type_partial_charge
C1    C     C_R   0.910388 0.911578 0.714031 -0.141265
C2    C     C_R   0.907619 0.684486 0.441984 -0.139223
C3    C     C_R   0.699742 0.788661 0.197576 -0.101831
C4    C     C_R   0.092277 0.296591 0.492630 -0.155103
C5    C     C_R   0.302097 0.004785 0.596270 -0.165049
C6    C     C_R   0.639251 0.691767 0.192291 0.096801
C7    C     C_R   0.363151 0.061552 0.562464 0.070491
C8    C     C_R   0.000209 0.676364 0.459964 0.040449
C9    C     C_R   0.000347 0.944937 0.177020 0.053104
C10   C     C_R   0.495842 0.681778 0.385979 -0.110627
C11   C     C_R   0.510642 0.786250 0.416857 -0.112558
C12   C     C_R   0.002681 0.299540 0.433317 0.055088
C13   C     C_R   0.534916 0.853203 0.523049 0.117415
C14   C     C_R   0.540796 0.812835 0.596483 -0.192382
C15   C     C_R   0.525961 0.708354 0.565245 -0.122259
C16   C     C_R   0.243651 0.221368 0.812550 -0.120722
C17   C     C_R   0.503855 0.643006 0.460214 -0.101646
C18   C     C_R   0.472166 0.979304 0.571307 -0.240417
C19   C     C_R   0.466136 0.071490 0.578405 0.044455
C20   C     C_R   0.548224 0.158038 0.582994 0.075276
C21   C     C_R   0.634749 0.147610 0.578544 -0.151469
C22   C     C_R   0.634478 0.050646 0.561778 0.036737
C23   C     C_R   0.266350 0.323067 0.822003 -0.067550
C24   C     C_R   0.551504 0.964655 0.556827 0.019354
C25   C     C_R   0.546903 0.284103 0.505182 0.539119
C26   C     C_R   0.529068 0.369410 0.502840 -0.284749
C27   C     C_R   0.503675 0.422854 0.576934 -0.137521
C28   C     C_R   0.743428 0.057081 0.466890 -0.133608
C29   C     C_R   0.498205 0.393822 0.655525 -0.079576
C30   C     C_R   0.520859 0.313315 0.662582 -0.234969
C31   C     C_R   0.542133 0.255363 0.585748 0.009405
C32   C     C_R   0.810285 0.115567 0.079466 -0.114268
C33   C     C_R   0.885351 0.214206 0.178801 -0.135796
C34   C     C_R   0.715492 0.036294 0.540545 0.044071
C35   C     C_R   0.850161 0.281688 0.226195 0.117289
C36   C     C_R   0.738569 0.249063 0.170991 -0.166947
C37   C     C_R   0.663924 0.150633 0.071135 -0.112879
C38   C     C_R   0.699701 0.083859 0.025645 -0.093393
C39   C     C_R   0.929385 0.481600 0.345746 -0.242503
C40   C     C_R   0.244171 0.312065 0.719855 -0.144582
C41   C     C_R   0.006765 0.580143 0.445227 0.071453
C42   C     C_R   0.089597 0.585762 0.531795 0.018172
C43   C     C_R   0.091848 0.492684 0.517471 -0.231630
C44   C     C_R   0.010007 0.392818 0.422748 0.060609
C45   C     C_R   0.700910 0.695996 0.287565 -0.151900
C46   C     C_R   0.930143 0.385868 0.332866 0.025549
C47   C     C_R   0.281680 0.733035 0.682013 -0.194410
C48   C     C_R   0.356172 0.825440 0.786480 -0.120385
C49   C     C_R   0.318328 0.867472 0.853262 -0.096502
C50   C     C_R   0.205848 0.816636 0.815858 -0.118045
C51   C     C_R   0.131065 0.724369 0.711475 -0.116086
C52   C     C_R   0.753310 0.971990 0.565925 -0.109426
C53   C     C_R   0.168472 0.682923 0.643291 0.113189
C54   C     C_2   0.365581 0.521532 0.930810 -0.202636
C55   C     C_2   0.309162 0.424795 0.922358 0.495979
C56   C     C_R   0.301817 0.091394 0.500369 -0.123731
C57   C     C_2   0.458756 0.617515 0.035827 -0.038962
C58   C     C_2   0.526876 0.604369 0.108596 -0.195923
C59   C     C_R   0.413597 0.147351 0.118276 -0.106192
C60   C     C_R   0.309186 0.056530 0.068040 -0.169507
C61   C     C_R   0.215951 0.066842 0.037536 0.108379
C62   C     C_R   0.229784 0.170794 0.062979 -0.156997
C63   C     C_R   0.334970 0.262081 0.116308 -0.132477
C64   C     C_R   0.910127 0.209399 0.405838 -0.120367
C65   C     C_R   0.426512 0.250144 0.142401 -0.107481
C66   C     C_R   0.104243 0.951450 0.082399 -0.217666
C67   C     C_R   0.090917 0.779923 0.524169 -0.105432
C68   C     C_R   0.003776 0.899600 0.075501 0.047116
C69   C     C_R   0.908068 0.831231 0.971069 0.025916
C70   C     C_R   0.911954 0.842910 0.882905 -0.237422
C71   C     C_R   0.009264 0.922215 0.899333 0.057070
C72   C     C_R   0.108538 0.974463 0.000878 0.008555
C73   C     C_R   0.813507 0.679073 0.999872 -0.135867
C74   C     C_R   0.719064 0.599286 0.985107 -0.088887
C75   C     C_R   0.617271 0.585343 0.923662 -0.090858
C76   C     C_R   0.092138 0.000469 0.801189 -0.152713
C77   C     C_R   0.609450 0.651284 0.876986 -0.133246
C78   C     C_R   0.909135 0.934212 0.187074 -0.134133
C79   C     C_R   0.703620 0.730556 0.890515 -0.173631
C80   C     C_R   0.806680 0.745436 0.952670 0.118198
C81   C     C_R   0.004046 0.948124 0.811101 0.057967
C82   C     C_R   0.092070 0.024036 0.280261 -0.119806
H1    H     H_    0.826654 0.853717 0.685462 0.095979
H2    H     H_    0.478171 0.630874 0.304510 0.135362
H3    H     H_    0.504351 0.815488 0.358709 0.121314
H4    H     H_    0.176364 0.348239 0.516321 0.095359
H5    H     H_    0.558228 0.862846 0.678196 0.109678
H6    H     H_    0.531798 0.678254 0.622623 0.101746
H7    H     H_    0.406779 0.910948 0.563178 0.135577
H8    H     H_    0.699862 0.212861 0.582968 0.148257
H9    H     H_    0.531555 0.392271 0.441498 0.117913
H10   H     H_    0.486431 0.485666 0.572315 0.116913
H11   H     H_    0.473509 0.431801 0.709211 0.114897
H12   H     H_    0.327924 0.144260 0.468615 0.110301
H13   H     H_    0.515766 0.291872 0.724143 0.139467
H14   H     H_    0.641856 0.007674 0.948557 0.090248
H15   H     H_    0.252221 0.201267 0.877043 0.116806
H16   H     H_    0.837962 0.063853 0.044055 0.113582
H17   H     H_    0.970966 0.237934 0.218660 0.115366
H18   H     H_    0.708995 0.298942 0.205725 0.103204
H19   H     H_    0.578215 0.125942 0.029010 0.102856
H20   H     H_    0.868944 0.479851 0.278968 0.127537
H21   H     H_    0.151953 0.497199 0.587107 0.129835
H22   H     H_    0.311825 0.701480 0.630608 0.121970
H23   H     H_    0.175466 0.803086 0.551959 0.112813
H24   H     H_    0.443142 0.864499 0.815494 0.099565
H25   H     H_    0.376409 0.939142 0.933963 0.100996
H26   H     H_    0.175998 0.848282 0.867203 0.114101
H27   H     H_    0.723561 0.102342 0.428082 0.125561
H28   H     H_    0.044158 0.685905 0.683244 0.115071
H29   H     H_    0.361479 0.527034 0.858930 0.070933
H30   H     H_    0.483980 0.696876 0.041419 0.108651
H31   H     H_    0.504374 0.524331 0.100802 0.167980
H32   H     H_    0.507682 0.320962 0.183695 0.093287
H33   H     H_    0.484808 0.138597 0.141645 0.109731
H34   H     H_    0.824100 0.883918 0.123218 0.117762
H35   H     H_    0.301337 0.978848 0.056313 0.113336
H36   H     H_    0.159828 0.181652 0.045516 0.118729
H37   H     H_    0.346205 0.342701 0.140176 0.151469
H38   H     H_    0.249910 0.373645 0.696456 0.094635
H39   H     H_    0.180350 0.991773 0.158718 0.132958
H40   H     H_    0.837992 0.792298 0.802903 0.124915
H41   H     H_    0.892008 0.689005 0.047927 0.114878
H42   H     H_    0.724749 0.548186 0.021244 0.107074
H43   H     H_    0.544289 0.522248 0.911114 0.105239
H44   H     H_    0.530248 0.640295 0.829556 0.100216
H45   H     H_    0.176919 0.056017 0.304206 0.098703
H46   H     H_    0.696398 0.781509 0.854496 0.103258
H47   H     H_    0.746008 0.941932 0.621130 0.112648
H48   H     H_    0.825638 0.181950 0.351815 0.108111
H49   H     H_    0.174950 0.019396 0.847294 0.116183
H50   H     H_    0.672000 0.640854 0.316456 0.092522
H51   H     H_    0.563942 0.255108 0.376887 0.308799
H52   H     H_    0.243381 0.348026 0.985090 0.304657
H53   H     H_    0.823345 0.618499 0.397516 0.097687
H54   H     H_    0.670828 0.818063 0.143274 0.088814
H55   H     H_    0.330020 0.981177 0.656820 0.106676
H56   H     H_    0.492566 0.562198 0.436169 0.100270
N1    N     N_R   0.941940 0.944580 0.650780 -0.039128
N2    N     N_R   0.204460 0.150250 0.707090 -0.036265
N3    N     N_R   0.794270 0.003240 0.446420 -0.045303
N4    N     N_R   0.204920 0.207570 0.650770 -0.031454
N5    N     N_R   0.793810 0.945920 0.502740 -0.042083
N6    N     N_R   0.943620 0.152590 0.446420 -0.040982
N7    N     N_R   0.055110 0.000900 0.707100 -0.039601
N8    N     N_R   0.795080 0.792430 0.349230 -0.038008
N9    N     N_R   0.206190 0.054080 0.497260 -0.042767
N10   N     N_R   0.056380 0.847410 0.553580 -0.042316
N11   N     N_R   0.944890 0.999100 0.292900 -0.042593
N12   N     N_R   0.058060 0.055420 0.349220 -0.042767
N13   N     N_R   0.943200 0.791100 0.497260 -0.039762
N14   N     N_R   0.795540 0.849750 0.292910 -0.045497
N15   N     N_R   0.205730 0.996760 0.553580 -0.039199
N16   N     N_R   0.056800 0.208900 0.502740 -0.036206
Ni1   Ni    Ni4+2 0.869690 0.869690 0.500000 0.216079
Ni2   Ni    Ni4+2 0.130310 0.130310 0.500000 0.214315
Ni3   Ni    Ni4+2 0.129250 0.998840 0.629170 0.217566
Ni4   Ni    Ni4+2 0.870750 0.001160 0.370830 0.213781
O1    O     O_3   0.563822 0.224962 0.427031 -0.789070
O2    O     O_3   0.301681 0.422545 0.011461 -0.773134

loop_
_geom_bond_atom_site_label_1
_geom_bond_atom_site_label_2
_ccdc_geom_bond_type
C25   C31   A    
C74   H42   S    
C79   H46   S    
C63   C65   A    
C41   C42   A    
C6    C45   A    
C40   N4    A    
C27   C29   A    
C65   H32   S    
C6    C58   S    
C66   C68   A    
C35   C36   A    
N10   N13   A    
C3    C6    A    
C39   C41   A    
C56   H12   S    
C9    C78   A    
C26   C27   A    
C37   C38   A    
C18   C24   A    
C52   H47   S    
C36   C37   A    
N2    N4    A    
C4    N16   A    
C18   C19   A    
N3    N5    A    
C42   C53   S    
C30   C31   A    
C12   C64   A    
C76   H49   S    
C16   H15   S    
C57   H30   S    
C4    H4    S    
C10   C17   A    
C1    C81   A    
C23   C40   A    
C63   H37   S    
C3    H54   S    
C73   C74   A    
C37   H19   S    
C48   H24   S    
N8    Ni1   S    
C19   C20   A    
C66   C72   A    
C68   C69   A    
C73   H41   S    
C25   O1    S    
C58   H31   S    
N15   Ni3   S    
C17   H56   S    
C32   C38   A    
C4    C12   A    
C29   C30   A    
N11   Ni4   S    
N16   Ni2   S    
C61   C62   A    
C1    N1    A    
C9    C82   A    
C47   C53   A    
C28   C34   A    
C59   C60   A    
N12   Ni2   S    
C13   C14   A    
C50   H26   S    
H52   O2    S    
C16   N2    A    
C7    C56   A    
C44   C46   A    
C78   H34   S    
C21   H8    S    
C77   C79   A    
C22   C34   S    
N14   Ni4   S    
C52   N5    A    
C74   C75   A    
C45   N8    A    
C27   H10   S    
C8    C41   S    
C49   H25   S    
C5    C7    A    
C67   H23   S    
C64   N6    A    
C25   C26   A    
C13   C24   S    
C60   C61   A    
C75   H43   S    
C43   C44   A    
C30   H13   S    
N2    Ni3   S    
N7    Ni3   S    
C70   H40   S    
N5    Ni1   S    
C47   C48   A    
N1    Ni1   S    
C62   C63   A    
C50   C51   A    
C3    N14   A    
C66   H39   S    
C60   H35   S    
C36   H18   S    
C5    H55   S    
N9    Ni2   S    
C75   C77   A    
C82   N12   A    
C45   H50   S    
C39   C46   A    
N8    N14   A    
C61   C72   S    
C48   C49   A    
C40   H38   S    
C64   H48   S    
C76   N7    A    
C51   H28   S    
N13   Ni1   S    
C22   C24   A    
C1    H1    S    
C42   C43   A    
N6    Ni4   S    
C70   C71   A    
C39   H20   S    
C2    N13   A    
C15   C17   A    
C54   C55   D    
C55   O2    S    
C47   H22   S    
C18   H7    S    
C34   C52   A    
C2    C8    A    
C76   C81   A    
C14   H5    S    
C23   C55   S    
C28   H27   S    
C16   C23   A    
C7    C19   S    
C2    H53   S    
H51   O1    S    
N4    Ni2   S    
C32   C33   A    
C56   N9    A    
C26   H9    S    
C9    C68   S    
C71   C72   A    
C12   C44   S    
N11   N12   A    
C59   C65   A    
C29   H11   S    
C11   C13   A    
C57   C58   D    
C11   H3    S    
C5    N15   A    
C10   H2    S    
C33   C35   A    
C73   C80   A    
C32   H16   S    
C54   H29   S    
N10   Ni3   S    
N6    N16   A    
C69   C70   A    
N9    N15   A    
C43   H21   S    
C82   H45   S    
C62   H36   S    
C10   C11   A    
C51   C53   A    
C79   C80   A    
N3    Ni4   S    
C20   C21   A    
C8    C67   A    
C59   H33   S    
C49   C50   A    
C38   H14   S    
C67   N10   A    
C14   C15   A    
C69   C80   S    
C28   N3    A    
C33   H17   S    
C21   C22   A    
C35   C46   S    
C54   C57   S    
C77   H44   S    
C78   N11   A    
N1    N7    A    
C15   H6    S    
C71   C81   S    
C20   C31   S    
