data_mof_unit_62956.cif
_audit_creation_date              2012-12-10T20:26:14-0500
_audit_creation_method            fapswitch 2.2
_symmetry_space_group_name_H-M    P1
_symmetry_Int_Tables_number       1
_space_group_crystal_system       triclinic
_cell_length_a                    25.701418
_cell_length_b                    25.701157
_cell_length_c                    59.984892
_cell_angle_alpha                 90.000039
_cell_angle_beta                  89.999662
_cell_angle_gamma                 89.951862
_cell_volume                      39623.3770803

loop_
_atom_site_label
_atom_site_type_symbol
_atom_type_description
_atom_site_fract_x
_atom_site_fract_y
_atom_site_fract_z
_atom_type_partial_charge
C1    C     C_R   0.499999 1.000000 0.810455 0.831540
C2    C     C_R   0.500000 1.000000 0.189547 0.831418
C3    C     C_R   1.000000 0.499999 0.810452 0.831531
C4    C     C_R   0.000000 0.500001 0.189545 0.831405
C5    C     C_R   0.000000 0.500000 0.310456 0.831418
C6    C     C_R   0.000001 0.500000 0.689548 0.831533
C7    C     C_R   0.500000 0.999999 0.310455 0.831419
C8    C     C_R   0.500000 0.000000 0.689548 0.831538
C9    C     C_R   0.500009 0.000009 0.617911 0.128135
C10   C     C_R   0.500001 0.999999 0.382101 0.128525
C11   C     C_R   0.000010 0.500004 0.617910 0.128133
C12   C     C_R   0.000006 0.500002 0.382103 0.128520
C13   C     C_R   0.999998 0.499999 0.117898 0.128517
C14   C     C_R   0.999986 0.499984 0.882091 0.128116
C15   C     C_R   0.499986 0.999993 0.117906 0.128217
C16   C     C_R   0.499992 0.999993 0.882099 0.128447
C17   C     C_R   0.500007 0.000007 0.547370 -0.042195
C18   C     C_R   0.500004 0.000003 0.452639 -0.042157
C19   C     C_R   0.000010 0.500003 0.547369 -0.042218
C20   C     C_R   0.000008 0.500002 0.452641 -0.042179
C21   C     C_R   0.999993 0.499994 0.047360 -0.042181
C22   C     C_R   0.999988 0.499988 0.952631 -0.042224
C23   C     C_R   0.499985 0.999994 0.047366 -0.042223
C24   C     C_R   0.499989 0.999993 0.952636 -0.042148
C25   C     C_R   0.536227 0.030267 0.559288 -0.043318
C26   C     C_R   0.465597 0.967695 0.440721 -0.043392
C27   C     C_R   0.969810 0.463733 0.559288 -0.043310
C28   C     C_R   0.032371 0.534357 0.440722 -0.043393
C29   C     C_R   0.463787 0.969748 0.559289 -0.043325
C30   C     C_R   0.534410 0.032309 0.440720 -0.043091
C31   C     C_R   0.030210 0.536274 0.559287 -0.043335
C32   C     C_R   0.967645 0.465647 0.440722 -0.043090
C33   C     C_R   0.034369 0.532336 0.059277 -0.043392
C34   C     C_R   0.963682 0.469829 0.940714 -0.043322
C35   C     C_R   0.469605 0.963874 0.059284 -0.043414
C36   C     C_R   0.532457 0.034248 0.940718 -0.043298
C37   C     C_R   0.965618 0.467654 0.059279 -0.043095
C38   C     C_R   0.036293 0.530145 0.940713 -0.043323
C39   C     C_R   0.530365 0.036113 0.059284 -0.043102
C40   C     C_R   0.467522 0.965737 0.940718 -0.043319
C41   C     C_R   0.572387 0.060212 0.547624 -0.101480
C42   C     C_R   0.431503 0.935419 0.452386 -0.101450
C43   C     C_R   0.939931 0.427517 0.547623 -0.101456
C44   C     C_R   0.064709 0.568394 0.452387 -0.101423
C45   C     C_R   0.427626 0.939804 0.547626 -0.101453
C46   C     C_R   0.568505 0.064586 0.452383 -0.101804
C47   C     C_R   0.060089 0.572488 0.547622 -0.101423
C48   C     C_R   0.935308 0.431610 0.452388 -0.101778
C49   C     C_R   0.068425 0.564653 0.047611 -0.101416
C50   C     C_R   0.927431 0.439995 0.952380 -0.101452
C51   C     C_R   0.439543 0.927812 0.047620 -0.101396
C52   C     C_R   0.564902 0.068182 0.952383 -0.101508
C53   C     C_R   0.931561 0.435336 0.047614 -0.101767
C54   C     C_R   0.072546 0.559980 0.952377 -0.101428
C55   C     C_R   0.560428 0.072176 0.047620 -0.101755
C56   C     C_R   0.435076 0.931803 0.952382 -0.101478
C57   C     C_R   0.500002 0.000003 0.664872 -0.191374
C58   C     C_R   0.499999 0.999999 0.335138 -0.192105
C59   C     C_R   0.000004 0.500000 0.664871 -0.191354
C60   C     C_R   0.000002 0.500000 0.335138 -0.192125
C61   C     C_R   0.000000 0.500000 0.164862 -0.192097
C62   C     C_R   0.999998 0.499993 0.835129 -0.191360
C63   C     C_R   0.499994 0.999999 0.164869 -0.191661
C64   C     C_R   0.499998 0.999999 0.835136 -0.191882
C65   C     C_R   0.036431 0.531338 0.988121 0.044666
C66   C     C_R   0.964410 0.467672 0.011870 0.044767
C67   C     C_R   0.467505 0.964558 0.988127 0.044717
C68   C     C_R   0.531535 0.036263 0.011875 0.044738
C69   C     C_R   0.963549 0.468643 0.988123 0.044673
C70   C     C_R   0.035573 0.532312 0.011868 0.044697
C71   C     C_R   0.532470 0.035429 0.988127 0.044726
C72   C     C_R   0.468437 0.963725 0.011875 0.044667
C73   C     C_R   0.535584 0.032331 0.488130 0.044781
C74   C     C_R   0.463617 0.968594 0.511879 0.044681
C75   C     C_R   0.967660 0.464446 0.488131 0.044770
C76   C     C_R   0.031395 0.536412 0.511878 0.044668
C77   C     C_R   0.464426 0.967679 0.488131 0.044711
C78   C     C_R   0.536394 0.031418 0.511878 0.044689
C79   C     C_R   0.032358 0.535558 0.488131 0.044700
C80   C     C_R   0.968624 0.463593 0.511879 0.044677
C81   C     C_R   0.999989 0.499989 0.976395 0.086748
C82   C     C_R   0.999992 0.499993 0.023596 0.086726
C83   C     C_R   0.499988 0.999993 0.976400 0.086716
C84   C     C_R   0.499986 0.999994 0.023602 0.086718
C85   C     C_R   0.500005 0.000004 0.476404 0.086694
C86   C     C_R   0.500006 0.000006 0.523605 0.086714
C87   C     C_R   0.000009 0.500002 0.476404 0.086720
C88   C     C_R   0.000010 0.500003 0.523605 0.086742
C89   C     C_R   0.072783 0.560563 0.975542 -0.184826
C90   C     C_R   0.930945 0.435180 0.024450 -0.184864
C91   C     C_R   0.434903 0.931203 0.975546 -0.184749
C92   C     C_R   0.561004 0.072417 0.024456 -0.184874
C93   C     C_R   0.927197 0.439414 0.975545 -0.184884
C94   C     C_R   0.069038 0.564805 0.024447 -0.184773
C95   C     C_R   0.565073 0.068784 0.975547 -0.184815
C96   C     C_R   0.438968 0.927571 0.024455 -0.184778
C97   C     C_R   0.569107 0.064759 0.475547 -0.184812
C98   C     C_R   0.427376 0.939235 0.524462 -0.184768
C99   C     C_R   0.935150 0.430998 0.475552 -0.184856
C100  C     C_R   0.060671 0.572724 0.524457 -0.184811
C101  C     C_R   0.430903 0.935249 0.475550 -0.184720
C102  C     C_R   0.572635 0.060779 0.524459 -0.184828
C103  C     C_R   0.064867 0.569006 0.475551 -0.184762
C104  C     C_R   0.939349 0.427281 0.524458 -0.184878
C105  C     C_R   0.599136 0.900861 0.749999 0.819301
C106  C     C_R   0.400862 0.099136 0.250000 0.819412
C107  C     C_R   0.099147 0.599147 0.750000 0.817205
C108  C     C_R   0.900853 0.400853 0.250000 0.817331
C109  C     C_R   0.400864 0.099139 0.750000 0.819287
C110  C     C_R   0.599138 0.900864 0.249999 0.819432
C111  C     C_R   0.900853 0.400853 0.750000 0.817218
C112  C     C_R   0.099147 0.599147 0.250000 0.817561
C113  C     C_R   0.599147 0.099147 0.250000 0.817251
C114  C     C_R   0.400854 0.900853 0.750000 0.817306
C115  C     C_R   0.099137 0.400862 0.250000 0.819445
C116  C     C_R   0.900863 0.599137 0.750000 0.819276
C117  C     C_R   0.400853 0.900853 0.250000 0.817476
C118  C     C_R   0.599146 0.099147 0.750000 0.817318
C119  C     C_R   0.900863 0.599137 0.250000 0.819456
C120  C     C_R   0.099137 0.400863 0.750000 0.819240
C121  C     C_R   0.748923 0.289729 0.766141 0.319253
C122  C     C_R   0.250598 0.710750 0.233641 0.319393
C123  C     C_R   0.705258 0.743925 0.763278 0.315880
C124  C     C_R   0.294849 0.256167 0.236804 0.316177
C125  C     C_R   0.251192 0.710156 0.766087 0.319232
C126  C     C_R   0.745588 0.293065 0.235629 0.318743
C127  C     C_R   0.294743 0.256077 0.763277 0.315881
C128  C     C_R   0.705156 0.743838 0.236801 0.315982
C129  C     C_R   0.743821 0.705151 0.236807 0.315947
C130  C     C_R   0.256054 0.294740 0.763283 0.316161
C131  C     C_R   0.706936 0.254414 0.235629 0.318750
C132  C     C_R   0.289844 0.748806 0.766087 0.319231
C133  C     C_R   0.256183 0.294853 0.236809 0.315731
C134  C     C_R   0.743947 0.705262 0.763284 0.316178
C135  C     C_R   0.289249 0.749401 0.233641 0.319396
C136  C     C_R   0.710271 0.251078 0.766141 0.319248
C137  C     C_R   0.249399 0.789252 0.266358 0.319411
C138  C     C_R   0.751075 0.210273 0.733858 0.319232
C139  C     C_R   0.205068 0.243745 0.263145 0.316070
C140  C     C_R   0.794655 0.755981 0.736668 0.316019
C141  C     C_R   0.754414 0.206934 0.264370 0.318758
C142  C     C_R   0.248810 0.789842 0.733912 0.319216
C143  C     C_R   0.794926 0.756250 0.263149 0.315865
C144  C     C_R   0.205342 0.244016 0.736670 0.316010
C145  C     C_R   0.244023 0.205344 0.736670 0.316062
C146  C     C_R   0.756254 0.794930 0.263148 0.316028
C147  C     C_R   0.210158 0.751192 0.733912 0.319211
C148  C     C_R   0.793066 0.245584 0.264370 0.318767
C149  C     C_R   0.755975 0.794653 0.736668 0.316065
C150  C     C_R   0.243741 0.205065 0.263144 0.315816
C151  C     C_R   0.789726 0.248924 0.733858 0.319230
C152  C     C_R   0.210748 0.750601 0.266358 0.319413
C153  C     C_R   0.788632 0.288633 0.749999 -0.208320
C154  C     C_R   0.211367 0.711369 0.250000 -0.208243
C155  C     C_R   0.711311 0.788599 0.749975 -0.207017
C156  C     C_R   0.288604 0.211312 0.249977 -0.207284
C157  C     C_R   0.211368 0.711367 0.750000 -0.208334
C158  C     C_R   0.788633 0.288631 0.250000 -0.208613
C159  C     C_R   0.288689 0.211401 0.749976 -0.207015
C160  C     C_R   0.711396 0.788689 0.249977 -0.207282
C161  C     C_R   0.788674 0.711386 0.249982 -0.207166
C162  C     C_R   0.211384 0.288677 0.749980 -0.207154
C163  C     C_R   0.711368 0.211367 0.250000 -0.208633
C164  C     C_R   0.288634 0.788631 0.750000 -0.208311
C165  C     C_R   0.211325 0.288613 0.249981 -0.207168
C166  C     C_R   0.788615 0.711322 0.749980 -0.207160
C167  C     C_R   0.288631 0.788633 0.249999 -0.208262
C168  C     C_R   0.711366 0.211369 0.750000 -0.208295
C169  C     C_1   0.828330 0.328331 0.750000 0.185971
C170  C     C_1   0.171669 0.671670 0.250000 0.186165
C171  C     C_1   0.671624 0.828309 0.749985 0.135597
C172  C     C_1   0.328314 0.171626 0.249986 0.135556
C173  C     C_1   0.171669 0.671669 0.750000 0.185951
C174  C     C_1   0.828332 0.328329 0.250000 0.185499
C175  C     C_1   0.328375 0.171691 0.749985 0.135593
C176  C     C_1   0.671686 0.828375 0.249985 0.135562
C177  C     C_1   0.828360 0.671675 0.249989 0.135515
C178  C     C_1   0.171673 0.328361 0.749988 0.135653
C179  C     C_1   0.671670 0.171669 0.250000 0.185491
C180  C     C_1   0.328332 0.828329 0.750000 0.185962
C181  C     C_1   0.171639 0.328324 0.249988 0.135511
C182  C     C_1   0.828326 0.671638 0.749988 0.135660
C183  C     C_1   0.328330 0.828331 0.249999 0.186157
C184  C     C_1   0.671668 0.171671 0.750000 0.185981
C185  C     C_1   0.638539 0.138541 0.750000 -0.068983
C186  C     C_1   0.361460 0.861461 0.250000 -0.068836
C187  C     C_1   0.861471 0.638513 0.749994 -0.109773
C188  C     C_1   0.138513 0.361469 0.249994 -0.109840
C189  C     C_1   0.361461 0.861459 0.750000 -0.068987
C190  C     C_1   0.638540 0.138540 0.250000 -0.069116
C191  C     C_1   0.138529 0.361487 0.749994 -0.109771
C192  C     C_1   0.861486 0.638531 0.249995 -0.109838
C193  C     C_1   0.638537 0.861495 0.249992 -0.109714
C194  C     C_1   0.361495 0.138540 0.749992 -0.109921
C195  C     C_1   0.861461 0.361459 0.250000 -0.069136
C196  C     C_1   0.138540 0.638540 0.750000 -0.068966
C197  C     C_1   0.361464 0.138506 0.249992 -0.109716
C198  C     C_1   0.638505 0.861460 0.749992 -0.109921
C199  C     C_1   0.138539 0.638540 0.250000 -0.068855
C200  C     C_1   0.861460 0.361460 0.750000 -0.068958
C201  C     C_R   0.535561 0.029732 0.582730 0.625254
C202  C     C_R   0.466227 0.968273 0.417279 0.625354
C203  C     C_R   0.970347 0.464401 0.582730 0.625235
C204  C     C_R   0.031790 0.533726 0.417280 0.625355
C205  C     C_R   0.464456 0.970285 0.582731 0.625236
C206  C     C_R   0.533778 0.031729 0.417278 0.625160
C207  C     C_R   0.029674 0.535607 0.582729 0.625256
C208  C     C_R   0.968224 0.466278 0.417280 0.625159
C209  C     C_R   0.033739 0.531759 0.082719 0.625352
C210  C     C_R   0.964350 0.470362 0.917272 0.625258
C211  C     C_R   0.470144 0.964539 0.082726 0.625348
C212  C     C_R   0.531870 0.033625 0.917276 0.625264
C213  C     C_R   0.966251 0.468235 0.082721 0.625166
C214  C     C_R   0.035623 0.529609 0.917270 0.625226
C215  C     C_R   0.529825 0.035448 0.082726 0.625121
C216  C     C_R   0.468111 0.966360 0.917276 0.625275
C217  C     C_R   0.532581 0.965576 0.629560 0.356649
C218  C     C_R   0.467014 0.034033 0.370454 0.356223
C219  C     C_R   0.034454 0.467444 0.629560 0.356629
C220  C     C_R   0.965978 0.532995 0.370455 0.356230
C221  C     C_R   0.467435 0.034440 0.629560 0.356629
C222  C     C_R   0.532986 0.965965 0.370453 0.356304
C223  C     C_R   0.965564 0.532563 0.629559 0.356642
C224  C     C_R   0.034032 0.467009 0.370455 0.356304
C225  C     C_R   0.032973 0.465954 0.129545 0.356221
C226  C     C_R   0.967425 0.534426 0.870440 0.356658
C227  C     C_R   0.534311 0.967308 0.129555 0.356428
C228  C     C_R   0.465884 0.032903 0.870451 0.356429
C229  C     C_R   0.967024 0.534044 0.129546 0.356316
C230  C     C_R   0.032553 0.465546 0.870441 0.356624
C231  C     C_R   0.465663 0.032680 0.129556 0.356501
C232  C     C_R   0.534103 0.967086 0.870451 0.356423
C233  C     C_R   0.532900 0.965398 0.653032 -0.133572
C234  C     C_R   0.466743 0.034260 0.346982 -0.133623
C235  C     C_R   0.034623 0.467117 0.653031 -0.133550
C236  C     C_R   0.965746 0.533262 0.346984 -0.133622
C237  C     C_R   0.467108 0.034612 0.653032 -0.133554
C238  C     C_R   0.533254 0.965736 0.346982 -0.133703
C239  C     C_R   0.965389 0.532886 0.653031 -0.133561
C240  C     C_R   0.034259 0.466740 0.346983 -0.133707
C241  C     C_R   0.033243 0.465726 0.153017 -0.133599
C242  C     C_R   0.967105 0.534602 0.846969 -0.133581
C243  C     C_R   0.534490 0.966987 0.153027 -0.133697
C244  C     C_R   0.465652 0.033166 0.846980 -0.133494
C245  C     C_R   0.966758 0.534274 0.153017 -0.133699
C246  C     C_R   0.032887 0.465380 0.846969 -0.133559
C247  C     C_R   0.465493 0.033007 0.153028 -0.133755
C248  C     C_R   0.534341 0.966828 0.846980 -0.133481
H1    H     H_    0.600957 0.083494 0.556382 0.199380
H2    H     H_    0.404942 0.909869 0.443627 0.199341
H3    H     H_    0.916714 0.398894 0.556381 0.199380
H4    H     H_    0.090318 0.594898 0.443628 0.199336
H5    H     H_    0.399056 0.916523 0.556385 0.199398
H6    H     H_    0.595066 0.090134 0.443624 0.199076
H7    H     H_    0.083307 0.601112 0.556380 0.199398
H8    H     H_    0.909698 0.405106 0.443630 0.199071
H9    H     H_    0.094943 0.590249 0.056369 0.199340
H10   H     H_    0.898777 0.416815 0.943623 0.199380
H11   H     H_    0.416174 0.899312 0.056378 0.199427
H12   H     H_    0.590587 0.094613 0.943624 0.199285
H13   H     H_    0.905043 0.409741 0.056373 0.199075
H14   H     H_    0.101200 0.583159 0.943618 0.199397
H15   H     H_    0.583796 0.100676 0.056379 0.199162
H16   H     H_    0.409391 0.905373 0.943623 0.199303
H17   H     H_    0.102653 0.584112 0.983003 0.151610
H18   H     H_    0.903906 0.408428 0.016989 0.151374
H19   H     H_    0.408062 0.904249 0.983004 0.151452
H20   H     H_    0.584762 0.102124 0.016998 0.151478
H21   H     H_    0.897327 0.415866 0.983007 0.151552
H22   H     H_    0.096076 0.591557 0.016985 0.151481
H23   H     H_    0.591913 0.095739 0.983005 0.151392
H24   H     H_    0.415210 0.897864 0.016998 0.151585
H25   H     H_    0.596210 0.091451 0.483002 0.151339
H26   H     H_    0.397600 0.915559 0.517007 0.151568
H27   H     H_    0.908386 0.403972 0.483013 0.151366
H28   H     H_    0.084262 0.602561 0.516997 0.151603
H29   H     H_    0.403801 0.908556 0.483005 0.151447
H30   H     H_    0.602410 0.084456 0.517004 0.151509
H31   H     H_    0.091632 0.596033 0.483012 0.151474
H32   H     H_    0.915758 0.397443 0.516998 0.151544
N1    N     N_R   0.500009 0.000008 0.593921 -0.316989
N2    N     N_R   0.500002 0.000000 0.406089 -0.316944
N3    N     N_R   0.000010 0.500004 0.593920 -0.316988
N4    N     N_R   0.000007 0.500002 0.406091 -0.316945
N5    N     N_R   0.999996 0.499997 0.093910 -0.316946
N6    N     N_R   0.999986 0.499985 0.906080 -0.316988
N7    N     N_R   0.499985 0.999993 0.093917 -0.316927
N8    N     N_R   0.499991 0.999993 0.906087 -0.317017
O1    O     O_3   0.500000 0.000000 0.750000 -0.497580
O2    O     O_3   0.500000 0.000000 0.250000 -0.497579
O3    O     O_3   0.000000 0.500000 0.750000 -0.497650
O4    O     O_3   1.000000 0.500000 0.250000 -0.497520
O5    O     O_R   0.500000 0.042590 0.799690 -0.632906
O6    O     O_R   0.500000 0.957410 0.200310 -0.632717
O7    O     O_R   0.957410 0.500000 0.799690 -0.632821
O8    O     O_R   0.042590 0.500000 0.200310 -0.632773
O9    O     O_R   0.500000 0.957410 0.799690 -0.632915
O10   O     O_R   0.500000 0.042590 0.200310 -0.633230
O11   O     O_R   0.042590 0.500000 0.799690 -0.632810
O12   O     O_R   0.957410 0.500000 0.200310 -0.633325
O13   O     O_R   0.000000 0.542590 0.299690 -0.632787
O14   O     O_R   0.000000 0.457410 0.700310 -0.632801
O15   O     O_R   0.457410 0.000000 0.299690 -0.632776
O16   O     O_R   0.542590 0.000000 0.700310 -0.632837
O17   O     O_R   0.000000 0.457410 0.299690 -0.633326
O18   O     O_R   0.000000 0.542590 0.700310 -0.632825
O19   O     O_R   0.542590 0.000000 0.299690 -0.633315
O20   O     O_R   0.457410 0.000000 0.700310 -0.632830
O21   O     O_R   0.560170 0.897070 0.762850 -0.621870
O22   O     O_R   0.439830 0.102930 0.237150 -0.621279
O23   O     O_R   0.102930 0.560170 0.762850 -0.620193
O24   O     O_R   0.897070 0.439830 0.237150 -0.620163
O25   O     O_R   0.439830 0.102930 0.762850 -0.621893
O26   O     O_R   0.560170 0.897070 0.237150 -0.621792
O27   O     O_R   0.897070 0.439830 0.762850 -0.620208
O28   O     O_R   0.102930 0.560170 0.237150 -0.620230
O29   O     O_R   0.560170 0.102930 0.237150 -0.620106
O30   O     O_R   0.439830 0.897070 0.762850 -0.620264
O31   O     O_R   0.102930 0.439830 0.237150 -0.621920
O32   O     O_R   0.897070 0.560170 0.762850 -0.621722
O33   O     O_R   0.439830 0.897070 0.237150 -0.620186
O34   O     O_R   0.560170 0.102930 0.762850 -0.620270
O35   O     O_R   0.897070 0.560170 0.237150 -0.621435
O36   O     O_R   0.102930 0.439830 0.762850 -0.621690
O37   O     O_R   0.060170 0.397070 0.262850 -0.621449
O38   O     O_R   0.939830 0.602930 0.737150 -0.621701
O39   O     O_R   0.602930 0.060170 0.262850 -0.620190
O40   O     O_R   0.397070 0.939830 0.737150 -0.620166
O41   O     O_R   0.939830 0.602930 0.262850 -0.621944
O42   O     O_R   0.060170 0.397070 0.737150 -0.621714
O43   O     O_R   0.397070 0.939830 0.262850 -0.620262
O44   O     O_R   0.602930 0.060170 0.737150 -0.620178
O45   O     O_R   0.060170 0.602930 0.737150 -0.620204
O46   O     O_R   0.939830 0.397070 0.262850 -0.620169
O47   O     O_R   0.602930 0.939830 0.737150 -0.621644
O48   O     O_R   0.397070 0.060170 0.262850 -0.622009
O49   O     O_R   0.939830 0.397070 0.737150 -0.620205
O50   O     O_R   0.060170 0.602930 0.262850 -0.620240
O51   O     O_R   0.397070 0.060170 0.737150 -0.621614
O52   O     O_R   0.602930 0.939830 0.262850 -0.621510
O53   O     O_2   0.570094 0.058678 0.594266 -0.517756
O54   O     O_2   0.433396 0.937412 0.405742 -0.517532
O55   O     O_2   0.941459 0.429819 0.594266 -0.517772
O56   O     O_2   0.062703 0.566507 0.405742 -0.517522
O57   O     O_2   0.429923 0.941340 0.594268 -0.517789
O58   O     O_2   0.566608 0.062588 0.405739 -0.518532
O59   O     O_2   0.058561 0.570189 0.594265 -0.517765
O60   O     O_2   0.937311 0.433497 0.405743 -0.518527
O61   O     O_2   0.066539 0.562653 0.094256 -0.517518
O62   O     O_2   0.929735 0.441512 0.905736 -0.517752
O63   O     O_2   0.441085 0.930101 0.094263 -0.517612
O64   O     O_2   0.562872 0.066322 0.905739 -0.517640
O65   O     O_2   0.933452 0.437342 0.094259 -0.518508
O66   O     O_2   0.070237 0.558458 0.905734 -0.517802
O67   O     O_2   0.558884 0.069886 0.094263 -0.518637
O68   O     O_2   0.437111 0.933663 0.905738 -0.517645
Zn1   Zn    Zn3+2 0.561090 0.000000 0.731040 1.007809
Zn2   Zn    Zn3+2 0.438910 0.000000 0.268960 1.007584
Zn3   Zn    Zn3+2 1.000000 0.561090 0.731040 1.007754
Zn4   Zn    Zn3+2 1.000000 0.438910 0.268960 1.007599
Zn5   Zn    Zn3+2 0.438910 0.000000 0.731040 1.007834
Zn6   Zn    Zn3+2 0.561090 0.000000 0.268960 1.007544
Zn7   Zn    Zn3+2 1.000000 0.438910 0.731040 1.007753
Zn8   Zn    Zn3+2 1.000000 0.561090 0.268960 1.007650
Zn9   Zn    Zn3+2 0.061090 0.500000 0.231040 1.007677
Zn10  Zn    Zn3+2 0.938910 0.500000 0.768960 1.007735
Zn11  Zn    Zn3+2 0.500000 0.061090 0.231040 1.007800
Zn12  Zn    Zn3+2 0.500000 0.938910 0.768960 1.007557
Zn13  Zn    Zn3+2 0.938910 0.500000 0.231040 1.007613
Zn14  Zn    Zn3+2 0.061090 0.500000 0.768960 1.007760
Zn15  Zn    Zn3+2 0.500000 0.938910 0.231040 1.007819
Zn16  Zn    Zn3+2 0.500000 0.061090 0.768960 1.007543
Cl1   Cl    Cl    0.660381 0.252483 0.786432 -0.451348
Cl2   Cl    Cl    0.338539 0.748596 0.213077 -0.451108
Cl3   Cl    Cl    0.736314 0.649088 0.779988 -0.510411
Cl4   Cl    Cl    0.264093 0.351287 0.220292 -0.510119
Cl5   Cl    Cl    0.339879 0.747256 0.786311 -0.451284
Cl6   Cl    Cl    0.652851 0.260015 0.217565 -0.449438
Cl7   Cl    Cl    0.263690 0.350917 0.779984 -0.510376
Cl8   Cl    Cl    0.735918 0.648722 0.220285 -0.508882
Cl9   Cl    Cl    0.648756 0.735975 0.220258 -0.509632
Cl10  Cl    Cl    0.350949 0.263765 0.779955 -0.511035
Cl11  Cl    Cl    0.739989 0.347151 0.217565 -0.449609
Cl12  Cl    Cl    0.252740 0.660120 0.786311 -0.451095
Cl13  Cl    Cl    0.351257 0.264036 0.220267 -0.508336
Cl14  Cl    Cl    0.649054 0.736240 0.779958 -0.510995
Cl15  Cl    Cl    0.251402 0.661458 0.213077 -0.451264
Cl16  Cl    Cl    0.747519 0.339619 0.786432 -0.451157
Cl17  Cl    Cl    0.161458 0.751406 0.286923 -0.451307
Cl18  Cl    Cl    0.839616 0.247519 0.713566 -0.451125
Cl19  Cl    Cl    0.235836 0.148634 0.279664 -0.510100
Cl20  Cl    Cl    0.763615 0.850830 0.719967 -0.510498
Cl21  Cl    Cl    0.847151 0.239983 0.282435 -0.449646
Cl22  Cl    Cl    0.160124 0.752742 0.713688 -0.451063
Cl23  Cl    Cl    0.764152 0.851356 0.279671 -0.508855
Cl24  Cl    Cl    0.236380 0.149164 0.719971 -0.510444
Cl25  Cl    Cl    0.149167 0.236365 0.719970 -0.510479
Cl26  Cl    Cl    0.851353 0.764145 0.279672 -0.510110
Cl27  Cl    Cl    0.247262 0.839878 0.713688 -0.451055
Cl28  Cl    Cl    0.760013 0.152847 0.282434 -0.449658
Cl29  Cl    Cl    0.850829 0.763629 0.719966 -0.510448
Cl30  Cl    Cl    0.148634 0.235844 0.279663 -0.508824
Cl31  Cl    Cl    0.752478 0.160383 0.713567 -0.451121
Cl32  Cl    Cl    0.248595 0.838544 0.286922 -0.451314
C249  C     C_R   0.433769 0.072390 0.665121 0.187591
C250  C     C_R   0.379443 0.066555 0.665164 -0.054733
C251  C     C_R   0.348213 0.101412 0.677079 -0.067419
C252  C     C_R   0.370988 0.142165 0.689021 -0.074204
C253  C     C_R   0.425034 0.148096 0.689105 -0.154129
C254  C     C_R   0.456400 0.113399 0.677182 -0.125484
H33   H     H_    0.361434 0.034867 0.656111 0.167345
H34   H     H_    0.306364 0.096759 0.677102 0.191278
H35   H     H_    0.346788 0.169102 0.698236 0.171894
H36   H     H_    0.442621 0.179531 0.698443 0.155365
H37   H     H_    0.498256 0.118253 0.677417 0.139898
C255  C     C_R   0.566885 0.928205 0.334902 0.188284
C256  C     C_R   0.621150 0.934571 0.334777 -0.055401
C257  C     C_R   0.652632 0.899917 0.322874 -0.066992
C258  C     C_R   0.630168 0.858842 0.311026 -0.073765
C259  C     C_R   0.576183 0.852386 0.311022 -0.154158
C260  C     C_R   0.544567 0.886879 0.322932 -0.124717
H38   H     H_    0.638913 0.966508 0.343758 0.166466
H39   H     H_    0.694432 0.904976 0.322786 0.190891
H40   H     H_    0.654561 0.832058 0.301822 0.172286
H41   H     H_    0.558836 0.820702 0.301757 0.155421
H42   H     H_    0.502760 0.881618 0.322760 0.140035
C261  C     C_R   0.927599 0.566211 0.665120 0.187574
C262  C     C_R   0.933421 0.620539 0.665168 -0.054704
C263  C     C_R   0.898555 0.651756 0.677084 -0.067437
C264  C     C_R   0.857807 0.628965 0.689024 -0.074264
C265  C     C_R   0.851888 0.574917 0.689103 -0.154114
C266  C     C_R   0.886594 0.543564 0.677179 -0.125508
H43   H     H_    0.965106 0.638559 0.656116 0.167348
H44   H     H_    0.903199 0.693605 0.677111 0.191290
H45   H     H_    0.830863 0.653155 0.698241 0.171845
H46   H     H_    0.820457 0.557318 0.698439 0.155377
H47   H     H_    0.881751 0.501707 0.677410 0.139919
C267  C     C_R   0.071784 0.433104 0.334902 0.188297
C268  C     C_R   0.065404 0.378840 0.334775 -0.055417
C269  C     C_R   0.100053 0.347352 0.322872 -0.066987
C270  C     C_R   0.141137 0.369809 0.311027 -0.073741
C271  C     C_R   0.147606 0.423794 0.311026 -0.154165
C272  C     C_R   0.113118 0.455415 0.322936 -0.124709
H48   H     H_    0.033461 0.361083 0.343754 0.166447
H49   H     H_    0.094983 0.305553 0.322782 0.190883
H50   H     H_    0.167916 0.345412 0.301823 0.172305
H51   H     H_    0.179296 0.441135 0.301763 0.155425
H52   H     H_    0.118389 0.497222 0.322766 0.140042
C273  C     C_R   0.566230 0.927614 0.665121 0.187592
C274  C     C_R   0.620554 0.933462 0.665180 -0.054695
C275  C     C_R   0.651775 0.898598 0.677095 -0.067428
C276  C     C_R   0.628991 0.857824 0.689022 -0.074247
C277  C     C_R   0.574946 0.851879 0.689090 -0.154126
C278  C     C_R   0.543590 0.886585 0.677166 -0.125539
H53   H     H_    0.638569 0.965167 0.656138 0.167325
H54   H     H_    0.693622 0.903263 0.677132 0.191300
H55   H     H_    0.653184 0.830881 0.698237 0.171886
H56   H     H_    0.557353 0.820427 0.698415 0.155404
H57   H     H_    0.501736 0.881720 0.677389 0.139930
C279  C     C_R   0.433108 0.071788 0.334902 0.188323
C280  C     C_R   0.378843 0.065419 0.334781 -0.054813
C281  C     C_R   0.347356 0.100068 0.322879 -0.067504
C282  C     C_R   0.369814 0.141141 0.311027 -0.073699
C283  C     C_R   0.423800 0.147599 0.311019 -0.153940
C284  C     C_R   0.455421 0.113111 0.322930 -0.125347
H58   H     H_    0.361084 0.033484 0.343766 0.166962
H59   H     H_    0.305556 0.095007 0.322794 0.190792
H60   H     H_    0.345418 0.167921 0.301823 0.172369
H61   H     H_    0.441141 0.179281 0.301751 0.155601
H62   H     H_    0.497227 0.118374 0.322755 0.139245
C285  C     C_R   0.072406 0.433785 0.665122 0.187583
C286  C     C_R   0.066590 0.379457 0.665160 -0.054711
C287  C     C_R   0.101450 0.348234 0.677076 -0.067461
C288  C     C_R   0.142185 0.371019 0.689026 -0.074230
C289  C     C_R   0.148098 0.425068 0.689115 -0.154103
C290  C     C_R   0.113399 0.456427 0.677189 -0.125501
H63   H     H_    0.034915 0.361441 0.656101 0.167370
H64   H     H_    0.096810 0.306384 0.677096 0.191268
H65   H     H_    0.169124 0.346823 0.698243 0.171854
H66   H     H_    0.179520 0.442662 0.698458 0.155362
H67   H     H_    0.118238 0.498284 0.677428 0.139864
C291  C     C_R   0.928219 0.566897 0.334904 0.188326
C292  C     C_R   0.934597 0.621160 0.334775 -0.054822
C293  C     C_R   0.899945 0.652646 0.322874 -0.067482
C294  C     C_R   0.858859 0.630187 0.311031 -0.073691
C295  C     C_R   0.852392 0.576202 0.311031 -0.153961
C296  C     C_R   0.886883 0.544583 0.322940 -0.125361
H68   H     H_    0.966542 0.638919 0.343753 0.166940
H69   H     H_    0.905014 0.694446 0.322783 0.190810
H70   H     H_    0.832077 0.654582 0.301828 0.172395
H71   H     H_    0.820700 0.558860 0.301769 0.155616
H72   H     H_    0.881613 0.502776 0.322771 0.139271
C297  C     C_R   0.933145 0.571820 0.165098 0.188259
C298  C     C_R   0.878879 0.565471 0.165228 -0.055414
C299  C     C_R   0.847414 0.600143 0.177129 -0.066952
C300  C     C_R   0.869896 0.641219 0.188970 -0.073780
C301  C     C_R   0.923884 0.647657 0.188969 -0.154181
C302  C     C_R   0.955483 0.613146 0.177061 -0.124753
H73   H     H_    0.861102 0.533534 0.156251 0.166455
H74   H     H_    0.805612 0.595097 0.177221 0.190953
H75   H     H_    0.845517 0.668018 0.198172 0.172303
H76   H     H_    0.941245 0.679342 0.198229 0.155461
H77   H     H_    0.997292 0.618393 0.177228 0.140078
C303  C     C_R   0.066237 0.427611 0.834879 0.187598
C304  C     C_R   0.120563 0.433444 0.834848 -0.054718
C305  C     C_R   0.151805 0.398602 0.822930 -0.067477
C306  C     C_R   0.129040 0.357868 0.810973 -0.074200
C307  C     C_R   0.074994 0.351938 0.810877 -0.154098
C308  C     C_R   0.043616 0.386619 0.822804 -0.125457
H78   H     H_    0.138564 0.465119 0.843913 0.167372
H79   H     H_    0.193653 0.403254 0.822916 0.191210
H80   H     H_    0.153250 0.330944 0.801754 0.171845
H81   H     H_    0.057416 0.320518 0.801528 0.155318
H82   H     H_    0.001761 0.381767 0.822559 0.139844
C309  C     C_R   0.427824 0.066475 0.165115 0.187898
C310  C     C_R   0.433849 0.120780 0.165161 -0.055081
C311  C     C_R   0.399093 0.152130 0.177073 -0.067294
C312  C     C_R   0.358253 0.129494 0.189009 -0.074087
C313  C     C_R   0.352131 0.075468 0.189090 -0.153970
C314  C     C_R   0.386727 0.043984 0.177169 -0.125147
H83   H     H_    0.465605 0.138681 0.156112 0.166891
H84   H     H_    0.403894 0.193962 0.177100 0.190976
H85   H     H_    0.331396 0.153788 0.198223 0.171788
H86   H     H_    0.320629 0.057990 0.198423 0.155380
H87   H     H_    0.381726 0.002145 0.177402 0.139911
C315  C     C_R   0.571967 0.933312 0.834896 0.188021
C316  C     C_R   0.565772 0.879027 0.834774 -0.055102
C317  C     C_R   0.600519 0.847653 0.822869 -0.067091
C318  C     C_R   0.641515 0.870246 0.811016 -0.073834
C319  C     C_R   0.647797 0.924252 0.811007 -0.154337
C320  C     C_R   0.613212 0.955759 0.822921 -0.124977
H88   H     H_    0.533897 0.861164 0.843760 0.166894
H89   H     H_    0.595595 0.805836 0.822785 0.191170
H90   H     H_    0.668372 0.845938 0.801810 0.172435
H91   H     H_    0.679419 0.941698 0.801737 0.155391
H92   H     H_    0.618340 0.997584 0.822746 0.140002
C321  C     C_R   0.066861 0.428183 0.165097 0.188298
C322  C     C_R   0.121129 0.434520 0.165214 -0.054837
C323  C     C_R   0.152600 0.399852 0.177115 -0.067471
C324  C     C_R   0.130122 0.358793 0.188968 -0.073697
C325  C     C_R   0.076133 0.352368 0.188980 -0.153961
C326  C     C_R   0.044528 0.386875 0.177072 -0.125366
H93   H     H_    0.138903 0.466444 0.156228 0.166970
H94   H     H_    0.194403 0.404888 0.177196 0.190845
H95   H     H_    0.154506 0.331998 0.198170 0.172383
H96   H     H_    0.058775 0.320697 0.198250 0.155620
H97   H     H_    0.002718 0.381637 0.177250 0.139255
C327  C     C_R   0.933779 0.572389 0.834879 0.187589
C328  C     C_R   0.879454 0.566547 0.834821 -0.054644
C329  C     C_R   0.848238 0.601406 0.822900 -0.067495
C330  C     C_R   0.871026 0.642168 0.810969 -0.074302
C331  C     C_R   0.925072 0.648109 0.810902 -0.154091
C332  C     C_R   0.956424 0.613409 0.822830 -0.125552
H98   H     H_    0.861436 0.534850 0.843865 0.167340
H99   H     H_    0.806390 0.596745 0.822864 0.191251
H100  H     H_    0.846836 0.669105 0.801748 0.171796
H101  H     H_    0.942669 0.679552 0.801573 0.155382
H102  H     H_    0.998279 0.618268 0.822607 0.139918
C333  C     C_R   0.572166 0.933525 0.165112 0.187936
C334  C     C_R   0.566117 0.879223 0.165179 -0.054464
C335  C     C_R   0.600879 0.847880 0.177091 -0.067776
C336  C     C_R   0.641751 0.870520 0.189005 -0.074080
C337  C     C_R   0.647897 0.924544 0.189064 -0.153772
C338  C     C_R   0.613293 0.956021 0.177145 -0.125849
H103  H     H_    0.534336 0.861320 0.156146 0.167335
H104  H     H_    0.596059 0.806051 0.177134 0.190929
H105  H     H_    0.668613 0.846233 0.198218 0.171874
H106  H     H_    0.679425 0.942026 0.198380 0.155619
H107  H     H_    0.618312 0.997858 0.177361 0.139204
C339  C     C_R   0.428029 0.066686 0.834896 0.188027
C340  C     C_R   0.434233 0.120969 0.834771 -0.055090
C341  C     C_R   0.399490 0.152346 0.822866 -0.067116
C342  C     C_R   0.358488 0.129757 0.811015 -0.073833
C343  C     C_R   0.352197 0.075752 0.811010 -0.154327
C344  C     C_R   0.386778 0.044241 0.822923 -0.124999
H108  H     H_    0.466113 0.138829 0.843755 0.166889
H109  H     H_    0.404422 0.194162 0.822780 0.191159
H110  H     H_    0.331634 0.154067 0.801809 0.172435
H111  H     H_    0.320571 0.058309 0.801742 0.155404
H112  H     H_    0.381644 0.002418 0.822751 0.139994
Cl33  Cl    Cl    0.428373 0.078624 0.614367 -0.546284
Cl34  Cl    Cl    0.572743 0.922420 0.385654 -0.546512
Cl35  Cl    Cl    0.921363 0.571606 0.614367 -0.546264
Cl36  Cl    Cl    0.077564 0.427236 0.385654 -0.546508
Cl37  Cl    Cl    0.571651 0.921398 0.614368 -0.546248
Cl38  Cl    Cl    0.427256 0.077578 0.385655 -0.546623
Cl39  Cl    Cl    0.078659 0.428405 0.614367 -0.546284
Cl40  Cl    Cl    0.922447 0.572768 0.385656 -0.546609
Cl41  Cl    Cl    0.927274 0.577597 0.114346 -0.546490
Cl42  Cl    Cl    0.071593 0.421341 0.885634 -0.546298
Cl43  Cl    Cl    0.421609 0.071889 0.114363 -0.546416
Cl44  Cl    Cl    0.577717 0.927405 0.885652 -0.546382
Cl45  Cl    Cl    0.072719 0.422399 0.114344 -0.546626
Cl46  Cl    Cl    0.928375 0.578623 0.885632 -0.546245
Cl47  Cl    Cl    0.578357 0.928090 0.114361 -0.546506
Cl48  Cl    Cl    0.422266 0.072581 0.885651 -0.546375

loop_
_geom_bond_atom_site_label_1
_geom_bond_atom_site_label_2
_ccdc_geom_bond_type
C261  C262  A    
C8    O16   A    
C160  C176  S    
C149  Cl20  S    
C77   C101  A    
C299  C300  A    
C76   C79   A    
C104  H32   S    
C79   C87   A    
C6    O18   A    
C65   C89   A    
C124  C133  A    
O1    Zn1   S    
C259  C260  A    
C2    O10   A    
O3    Zn3   S    
C123  Cl14  S    
C13   C225  A    
C213  O65   S    
C121  Cl16  S    
C291  C296  A    
C22   C38   A    
C122  Cl15  S    
C287  H64   S    
C17   C29   A    
C154  C170  S    
C319  C320  A    
C90   H18   S    
C286  H63   S    
C170  C199  T    
C240  C267  S    
C308  H82   S    
C158  C174  S    
O7    Zn10  S    
C317  C318  A    
O52   Zn6   S    
C111  O49   A    
C15   N7    S    
C210  O62   S    
C116  O38   A    
C256  H38   S    
C230  C246  A    
C109  O25   A    
C106  C197  S    
C292  H68   S    
C19   C31   A    
C304  H78   S    
C327  C332  A    
C334  H103  S    
C38   C214  A    
C91   H19   S    
C307  H81   S    
C61   C241  A    
C316  H88   S    
C59   C235  A    
C18   C85   A    
C23   C84   A    
C123  C134  A    
C282  C283  A    
O1    Zn5   S    
C309  C314  A    
C217  C233  A    
C312  H85   S    
C310  C311  A    
C20   C28   A    
C151  Cl18  S    
C305  C306  A    
C244  C339  S    
C4    C61   S    
C28   C44   A    
C221  C237  A    
C54   H14   S    
C217  Cl37  S    
C249  C254  A    
C31   C207  A    
C55   C92   A    
C8    C57   S    
C66   C82   A    
O32   Zn10  S    
C274  H53   S    
C228  C244  A    
O14   Zn7   S    
C336  C337  A    
C238  C255  S    
C295  H71   S    
O1    Zn12  S    
C114  O40   A    
C119  C192  S    
C108  C195  S    
C3    O11   A    
C72   C84   A    
O3    Zn10  S    
C225  Cl45  S    
C36   C212  A    
C169  C200  T    
C111  O27   A    
C13   N5    S    
C334  C335  A    
C100  H28   S    
C324  H95   S    
C35   C51   A    
C210  N6    A    
C183  C186  T    
O26   Zn15  S    
C161  C177  S    
C289  C290  A    
C303  C304  A    
C202  N2    A    
C275  H54   S    
C101  H29   S    
C321  C326  A    
C16   C228  A    
C323  H94   S    
C231  C247  A    
C144  C145  A    
C152  Cl17  S    
C125  Cl12  S    
C312  C313  A    
C138  C151  A    
C76   C100  A    
C127  Cl10  S    
C63   C247  A    
C139  C150  A    
C69   C93   A    
C284  H62   S    
C39   C215  A    
C17   C25   A    
C255  C256  A    
C10   N2    S    
C149  C155  A    
C329  H99   S    
O11   Zn14  S    
C223  C239  A    
C249  C250  A    
C313  H86   S    
O12   Zn13  S    
C288  C289  A    
C120  O36   A    
C213  N5    A    
C214  O66   S    
C68   C92   A    
C215  N7    A    
C290  H67   S    
C151  C153  A    
C295  C296  A    
C70   C82   A    
C14   C230  A    
C62   C246  A    
C338  H107  S    
C10   C222  A    
C207  N3    A    
C257  H39   S    
C72   C96   A    
C43   H3    S    
C93   H21   S    
C80   C88   A    
C278  H57   S    
C269  H49   S    
C206  N2    A    
C4    O12   A    
C253  C254  A    
C268  H48   S    
C5    O13   A    
C12   C220  A    
C57   C237  A    
C218  Cl38  S    
C7    O15   A    
C221  Cl33  S    
C67   C83   A    
C258  C259  A    
C166  C182  S    
C138  Cl31  S    
C128  C129  A    
C129  Cl8   S    
C270  H50   S    
C74   C98   A    
C227  Cl47  S    
C280  C281  A    
C113  C190  S    
C226  Cl46  S    
C340  H108  S    
C294  C295  A    
C229  Cl41  S    
C326  H97   S    
C27   C203  A    
C231  Cl43  S    
C25   C201  A    
C117  C186  S    
C329  C330  A    
C145  C159  A    
C226  C242  A    
C146  C160  A    
C65   C70   A    
C52   H12   S    
C20   C87   A    
C328  H98   S    
O27   Zn10  S    
C29   C205  A    
C184  C185  T    
O3    Zn14  S    
C138  C168  A    
C67   C72   A    
C294  H70   S    
C139  C165  A    
C43   C104  A    
C243  C333  S    
C34   C210  A    
C105  O21   A    
C49   H9    S    
C342  H110  S    
C265  C266  A    
C107  O23   A    
O9    Zn12  S    
C148  Cl21  S    
O43   Zn2   S    
C237  C249  S    
C332  H102  S    
C299  H74   S    
C176  C193  T    
C32   C208  A    
C36   C52   A    
C229  C245  A    
C130  C162  A    
C216  N8    A    
C289  H66   S    
C77   C85   A    
C117  O43   A    
C206  O58   S    
C235  C285  S    
O2    Zn11  S    
C79   C103  A    
C259  H41   S    
C110  C193  S    
O4    Zn13  S    
C293  C294  A    
C44   C103  A    
C124  Cl13  S    
O25   Zn16  S    
C71   C83   A    
C56   H16   S    
C22   C34   A    
C116  C187  S    
C126  Cl11  S    
C319  H91   S    
C219  C235  A    
C109  C194  S    
C248  C315  S    
C286  C287  A    
C120  C191  S    
C142  Cl27  S    
C283  C284  A    
O41   Zn8   S    
C50   H10   S    
C255  C260  A    
C73   C78   A    
C156  C172  S    
O18   Zn3   S    
O51   Zn5   S    
C232  C248  A    
C92   H20   S    
O10   Zn11  S    
C325  C326  A    
C9    C221  A    
C111  C200  S    
C292  C293  A    
C64   C248  A    
C40   C216  A    
C173  C196  T    
C75   C99   A    
C318  C319  A    
C129  C161  A    
C279  C280  A    
C224  C240  A    
C73   C85   A    
C147  Cl22  S    
C60   C240  A    
O21   Zn12  S    
C75   C87   A    
C136  Cl1   S    
C145  Cl24  S    
C119  O35   A    
C163  C179  S    
C282  H60   S    
C133  Cl4   S    
C309  C310  A    
O29   Zn11  S    
C42   C101  A    
C11   C219  A    
C262  C263  A    
C26   C42   A    
C20   C32   A    
O37   Zn4   S    
C9    C217  A    
O44   Zn1   S    
C344  H112  S    
C5    C60   S    
C15   C231  A    
C6    C59   S    
C30   C46   A    
C276  C277  A    
C112  O50   A    
C141  C163  A    
C120  O42   A    
C336  H105  S    
C1    O5    A    
O4    Zn4   S    
O35   Zn13  S    
C3    O7    A    
C311  H84   S    
C107  C196  S    
C201  O53   S    
C306  H80   S    
C216  O68   S    
C14   N6    S    
O19   Zn6   S    
O16   Zn1   S    
C203  O55   S    
C143  C161  A    
C128  Cl9   S    
C89   H17   S    
C267  C272  A    
C246  C303  S    
C162  C178  S    
C275  C276  A    
C203  N3    A    
C134  Cl3   S    
C340  C341  A    
C21   C82   A    
C223  Cl35  S    
C273  C274  A    
O39   Zn6   S    
O4    Zn9   S    
O15   Zn2   S    
C135  C167  A    
C310  H83   S    
C140  C149  A    
C29   C45   A    
O36   Zn14  S    
C307  C308  A    
C262  H43   S    
C143  C146  A    
C1    C64   S    
C314  H87   S    
C78   C102  A    
C113  O29   A    
C146  Cl23  S    
C18   C26   A    
C11   N3    S    
C115  O31   A    
O17   Zn4   S    
C301  H76   S    
C116  O32   A    
C245  C297  S    
C288  H65   S    
C66   C90   A    
O5    Zn16  S    
C123  C155  A    
C2    C63   S    
C214  N6    A    
C10   C218  A    
C322  C323  A    
O2    Zn2   S    
C121  C153  A    
C80   C104  A    
C15   C227  A    
C1    O9    A    
C324  C325  A    
C70   C94   A    
C24   C83   A    
C132  Cl5   S    
C14   C226  A    
C171  C198  T    
C45   C98   A    
C142  C164  A    
C311  C312  A    
C260  H42   S    
C71   C95   A    
C125  C157  A    
C3    C62   S    
C108  O24   A    
C33   C49   A    
C94   H22   S    
C7    C58   S    
C305  H79   S    
C208  N4    A    
C269  C270  A    
C52   C95   A    
C108  O46   A    
C253  H36   S    
C267  C268  A    
C12   C224  A    
C6    O14   A    
O42   Zn7   S    
C252  H35   S    
C181  C188  T    
C56   C91   A    
C39   C55   A    
C40   C56   A    
C140  Cl29  S    
C134  C166  A    
C137  C152  A    
C219  Cl39  S    
C296  H72   S    
O50   Zn8   S    
C164  C180  S    
O13   Zn8   S    
C144  C162  A    
C174  C195  T    
C177  C192  T    
C31   C47   A    
C297  C298  A    
O33   Zn15  S    
C142  C147  A    
C37   C213  A    
C118  C185  S    
C232  Cl44  S    
C140  C166  A    
C331  H101  S    
C209  N5    A    
C17   C86   A    
O2    Zn6   S    
C22   C81   A    
C306  C307  A    
C280  H58   S    
C19   C88   A    
C99   H27   S    
C281  C282  A    
C106  O22   A    
C339  C340  A    
C263  C264  A    
C298  H73   S    
C337  C338  A    
O48   Zn2   S    
C341  C342  A    
C68   C84   A    
O31   Zn9   S    
C73   C97   A    
C268  C269  A    
C132  C164  A    
C208  O60   S    
C328  C329  A    
C133  C165  A    
C65   C81   A    
C38   C54   A    
C131  Cl6   S    
C131  C163  A    
C74   C77   A    
C67   C91   A    
C24   C36   A    
C293  H69   S    
O8    Zn9   S    
C236  C291  S    
C343  H111  S    
C105  C198  S    
C46   C97   A    
C105  O47   A    
C23   C35   A    
C250  H33   S    
C300  H75   S    
O45   Zn3   S    
C11   C223  A    
C137  C167  A    
C48   C99   A    
C51   H11   S    
O1    Zn16  S    
C228  Cl48  S    
C297  C302  A    
O38   Zn3   S    
C315  C320  A    
C302  H77   S    
C277  H56   S    
C58   C234  A    
C119  O41   A    
C95   H23   S    
C265  H46   S    
C64   C244  A    
O23   Zn14  S    
C209  O61   S    
C261  C266  A    
C8    O20   A    
C318  H90   S    
C180  C189  T    
C320  H92   S    
C165  C181  S    
C254  H37   S    
C285  C290  A    
O6    Zn15  S    
C5    O17   A    
C32   C48   A    
C68   C71   A    
C118  O34   A    
C325  H96   S    
C333  C338  A    
C121  C136  A    
C113  O39   A    
C122  C135  A    
O3    Zn7   S    
C13   C229  A    
C27   C43   A    
C21   C37   A    
C252  C253  A    
C42   H2    S    
C291  C292  A    
C153  C169  S    
C53   C90   A    
C250  C251  A    
O47   Zn1   S    
C276  H55   S    
C46   H6    S    
C118  O44   A    
C335  H104  S    
C157  C173  S    
C112  O28   A    
O49   Zn7   S    
C283  H61   S    
C178  C191  T    
O4    Zn8   S    
C2    O6    A    
C242  C327  S    
C60   C236  A    
C103  H31   S    
C285  C286  A    
C256  C257  A    
C212  N8    A    
C53   H13   S    
C313  C314  A    
C25   C41   A    
C41   C102  A    
C47   H7    S    
C304  C305  A    
C343  C344  A    
O34   Zn16  S    
C55   H15   S    
C263  H44   S    
C327  C328  A    
C26   C202  A    
C301  C302  A    
C227  C243  A    
C66   C69   A    
C117  O33   A    
C61   C245  A    
C273  C278  A    
C30   C206  A    
C337  H106  S    
C225  C241  A    
C271  H51   S    
C224  Cl36  S    
C35   C211  A    
C264  C265  A    
O28   Zn9   S    
C141  C148  A    
C109  O51   A    
C207  O59   S    
C44   H4    S    
C167  C183  S    
C241  C321  S    
C168  C184  S    
C279  C284  A    
C251  C252  A    
C114  O30   A    
C21   C33   A    
C49   C94   A    
C16   N8    S    
C143  Cl26  S    
C98   H26   S    
C75   C80   A    
C76   C88   A    
C112  C199  S    
C51   C96   A    
C78   C86   A    
C114  C189  S    
C274  C275  A    
C322  H93   S    
C159  C175  S    
C130  Cl7   S    
C122  C154  A    
C205  O57   S    
C277  C278  A    
C33   C209  A    
C102  H30   S    
C281  H59   S    
C62   C242  A    
C126  C158  A    
C106  O48   A    
C266  H47   S    
C34   C50   A    
O46   Zn4   S    
C28   C204  A    
C211  N7    A    
C218  C234  A    
C54   C89   A    
C212  O64   S    
C201  N1    A    
C330  C331  A    
C303  C308  A    
C136  C168  A    
C287  C288  A    
C16   C232  A    
C47   C100  A    
C222  Cl34  S    
C59   C239  A    
C139  Cl30  S    
C204  O56   S    
C137  Cl32  S    
C247  C309  S    
C333  C334  A    
C150  Cl19  S    
O24   Zn13  S    
C63   C243  A    
C321  C322  A    
C144  Cl25  S    
C272  H52   S    
C9    N1    S    
C172  C197  T    
C148  C158  A    
C251  H34   S    
C74   C86   A    
C230  Cl42  S    
C135  Cl2   S    
C69   C81   A    
C18   C30   A    
C331  C332  A    
C152  C154  A    
O20   Zn5   S    
C335  C336  A    
C239  C261  S    
C124  C156  A    
C141  Cl28  S    
C48   H8    S    
C234  C279  S    
C147  C157  A    
C127  C159  A    
C323  C324  A    
C19   C27   A    
C128  C160  A    
C257  C258  A    
C339  C344  A    
C298  C299  A    
C175  C194  T    
C205  N1    A    
C204  N4    A    
C220  C236  A    
C4    O8    A    
C341  H109  S    
C57   C233  A    
C50   C93   A    
C330  H100  S    
C96   H24   S    
C316  C317  A    
C215  O67   S    
C220  Cl40  S    
C211  O63   S    
C12   N4    S    
C258  H40   S    
C271  C272  A    
C127  C130  A    
C37   C53   A    
C202  O54   S    
C233  C273  S    
C115  C188  S    
C115  O37   A    
C125  C132  A    
C270  C271  A    
C222  C238  A    
C179  C190  T    
C126  C131  A    
C23   C39   A    
C264  H45   S    
C300  C301  A    
C24   C40   A    
O22   Zn11  S    
C182  C187  T    
C342  C343  A    
C107  O45   A    
C7    O19   A    
C155  C171  S    
O30   Zn12  S    
O40   Zn5   S    
O2    Zn15  S    
C41   H1    S    
C317  H89   S    
C315  C316  A    
C110  O26   A    
C150  C156  A    
C58   C238  A    
C97   H25   S    
C110  O52   A    
C45   H5    S    
