data_mof_unit_7554.cif
_audit_creation_date              2012-12-10T17:02:31-0500
_audit_creation_method            fapswitch 2.2
_symmetry_space_group_name_H-M    P1
_symmetry_Int_Tables_number       1
_space_group_crystal_system       triclinic
_cell_length_a                    10.789272
_cell_length_b                    11.085623
_cell_length_c                    9.927379
_cell_angle_alpha                 112.100915
_cell_angle_beta                  99.540182
_cell_angle_gamma                 91.54911
_cell_volume                      1079.70739746

loop_
_atom_site_label
_atom_site_type_symbol
_atom_type_description
_atom_site_fract_x
_atom_site_fract_y
_atom_site_fract_z
_atom_type_partial_charge
C1    C     C_R   0.489260 0.253275 0.439016 0.755977
C2    C     C_R   0.510090 0.746815 0.561044 0.739471
C3    C     C_2   0.479856 0.111454 0.402610 0.196789
C4    C     C_2   0.518472 0.888808 0.597584 0.224425
C5    C     C_2   0.509573 0.069630 0.513086 -0.093198
C6    C     C_2   0.500281 0.930455 0.486059 -0.138435
C7    C     C_2   0.516482 0.503934 0.080707 -0.000899
C8    C     C_2   0.505319 0.476997 0.915901 0.041747
C9    C     C_R   0.263566 0.516440 0.502864 0.811599
C10   C     C_R   0.737547 0.486815 0.498387 0.805195
C11   C     C_R   0.157672 0.670156 0.768255 -0.099983
C12   C     C_R   0.848729 0.343007 0.233602 -0.134716
C13   C     C_R   0.114965 0.706172 0.901527 0.530322
C14   C     C_R   0.893343 0.312257 0.101460 0.495807
C15   C     C_R   0.007053 0.636049 0.907387 -0.261613
C16   C     C_R   0.999644 0.387624 0.099757 -0.284411
C17   C     C_R   0.936622 0.539303 0.777795 -0.080405
C18   C     C_R   0.066428 0.483312 0.231934 -0.034360
C19   C     C_R   0.962907 0.529905 0.638462 0.035922
C20   C     C_R   0.039568 0.486255 0.367865 0.025767
C21   C     C_R   0.084453 0.578065 0.636762 -0.036207
C22   C     C_R   0.919190 0.434879 0.367627 -0.044542
C23   C     C_R   0.874558 0.473280 0.501662 -0.118272
C24   C     C_R   0.128245 0.537264 0.502798 -0.104734
Cu1   Cu    Cu3+1 0.521920 0.521810 0.644910 1.030553
Cu2   Cu    Cu3+1 0.478080 0.478190 0.355090 1.016765
H1    H     H_    0.026405 0.375850 0.995580 0.172885
H2    H     H_    0.984038 0.652593 0.014263 0.133249
H3    H     H_    0.245201 0.719415 0.766611 0.168210
H4    H     H_    0.762451 0.289855 0.232137 0.172670
H5    H     H_    0.477948 0.860551 0.371965 0.214909
H6    H     H_    0.541258 0.139398 0.626228 0.209247
H7    H     H_    0.459653 0.383595 0.836146 0.178856
H8    H     H_    0.592588 0.574474 0.157292 0.160800
N1    N     N_2   0.445130 0.445420 0.137360 -0.242187
N2    N     N_2   0.554870 0.554580 0.862640 -0.239472
O1    O     O_R   0.511700 0.332340 0.577400 -0.596150
O2    O     O_R   0.488300 0.667660 0.422600 -0.591506
O3    O     O_R   0.474680 0.295500 0.332650 -0.555005
O4    O     O_R   0.525320 0.704500 0.667350 -0.570411
O5    O     O_R   0.338170 0.518410 0.622370 -0.578118
O6    O     O_R   0.661830 0.481590 0.377630 -0.599152
O7    O     O_R   0.301150 0.481570 0.377630 -0.567067
O8    O     O_R   0.698850 0.518430 0.622370 -0.554077
O9    O     O_3   0.185144 0.803672 0.025512 -0.663667
H9    H     H_    0.139760 0.821230 0.109007 0.336120
O10   O     O_3   0.826747 0.214517 0.975003 -0.665114
H10   H     H_    0.872938 0.201751 0.892979 0.356696
C25   C     C_2   0.856596 0.432515 0.789136 0.908579
O11   O     O_2   0.844333 0.323091 0.691522 -0.578910
O12   O     O_R   0.794162 0.452464 0.907232 -0.743757
H11   H     H_    0.806418 0.544758 0.983889 0.281532
C26   C     C_2   0.149290 0.590932 0.227692 0.856360
O13   O     O_2   0.195992 0.575358 0.119258 -0.569791
O14   O     O_R   0.173944 0.710932 0.348844 -0.780057
H12   H     H_    0.233146 0.775534 0.334105 0.340776
O15   O     O_3   0.544923 0.979082 0.742655 -0.693098
H13   H     H_    0.556026 0.932231 0.810620 0.366716
O16   O     O_3   0.438663 0.021625 0.259038 -0.695131
H14   H     H_    0.417442 0.068776 0.192428 0.379284
C27   C     C_2   0.604378 0.685019 0.958577 0.965399
O17   O     O_2   0.693622 0.736414 0.931675 -0.597627
O18   O     O_R   0.547126 0.757395 0.076611 -0.755344
H15   H     H_    0.592442 0.848088 0.135143 0.351483
C28   C     C_2   0.344221 0.348255 0.044537 1.038037
O19   O     O_2   0.314631 0.259668 0.081237 -0.582940
O20   O     O_R   0.272941 0.357747 0.918132 -0.775103
H16   H     H_    0.204064 0.282915 0.864074 0.323310

loop_
_geom_bond_atom_site_label_1
_geom_bond_atom_site_label_2
_ccdc_geom_bond_type
C4    O15   S    
O9    H9    S    
C19   C23   A    
O14   H12   S    
C9    C24   S    
C14   O10   S    
C2    O4    A    
C10   C23   S    
C10   O6    A    
C2    O2    A    
C9    O5    A    
O10   H10   S    
C1    O1    A    
C5    H6    S    
Cu1   O1    S    
C16   H1    S    
C26   O14   S    
C6    H5    S    
O15   H13   S    
O16   H14   S    
C26   O13   D    
C13   O9    S    
C11   C13   A    
C11   H3    S    
C15   H2    S    
C27   O17   D    
C2    C4    S    
Cu1   O8    S    
C16   C18   A    
C17   C19   A    
C12   C14   A    
Cu2   O7    S    
C25   O11   D    
C18   C20   A    
C8    H7    S    
C13   C15   A    
Cu1   O4    S    
C5    C6    S    
C20   C24   A    
C7    H8    S    
C14   C16   A    
Cu2   O3    S    
C9    O7    A    
C28   O20   S    
N1    C28   S    
Cu1   N2    S    
C10   O8    A    
O20   H16   S    
C12   C22   A    
Cu2   N1    S    
C7    C8    S    
O12   H11   S    
Cu2   O6    S    
C4    C6    D    
C28   O19   D    
C8    N2    D    
C21   C24   A    
Cu1   O5    S    
C1    C3    S    
C15   C17   A    
C25   O12   S    
C1    O3    A    
C22   C23   A    
Cu2   O2    S    
C18   C26   S    
C12   H4    S    
Cu1   Cu2   S    
C19   C21   A    
C7    N1    D    
C11   C21   A    
C27   O18   S    
C17   C25   S    
N2    C27   S    
C20   C22   A    
O18   H15   S    
C3    C5    D    
C3    O16   S    
