data_mof_unit_48424.cif
_audit_creation_date              2012-12-10T16:50:10-0500
_audit_creation_method            fapswitch 2.2
_symmetry_space_group_name_H-M    P1
_symmetry_Int_Tables_number       1
_space_group_crystal_system       triclinic
_cell_length_a                    23.440867
_cell_length_b                    8.652735
_cell_length_c                    7.453445
_cell_angle_alpha                 103.196595
_cell_angle_beta                  94.516836
_cell_angle_gamma                 93.123789
_cell_volume                      1463.17514619

loop_
_atom_site_label
_atom_site_type_symbol
_atom_type_description
_atom_site_fract_x
_atom_site_fract_y
_atom_site_fract_z
_atom_type_partial_charge
C1    C     C_R   0.498329 0.199549 0.452929 0.878684
C2    C     C_R   0.501676 0.800452 0.547071 0.878779
C3    C     C_R   0.235589 0.569113 0.400743 -0.124659
C4    C     C_R   0.764470 0.431459 0.599220 -0.124662
C5    C     C_R   0.294995 0.577568 0.398516 0.075692
C6    C     C_R   0.705063 0.422763 0.601442 0.075712
C7    C     C_R   0.328401 0.492862 0.504045 -0.110320
C8    C     C_R   0.671600 0.507394 0.495965 -0.110619
C9    C     C_R   0.301069 0.399886 0.610883 0.196981
C10   C     C_R   0.698870 0.600504 0.389138 0.197069
C11   C     C_R   0.241272 0.394247 0.611907 -0.134264
C12   C     C_R   0.758669 0.606395 0.388103 -0.133940
C13   C     C_R   0.208737 0.478039 0.506645 0.268706
C14   C     C_R   0.791265 0.522687 0.493341 0.268597
C15   C     C_2   0.497506 0.031329 0.426621 -0.350642
C16   C     C_2   0.502498 0.968673 0.573381 -0.350546
C17   C     C_R   0.391051 0.499746 0.501700 0.846628
C18   C     C_R   0.608949 0.500308 0.498305 0.846837
C19   C     C_R   0.886795 0.647749 0.589866 0.605851
C20   C     C_R   0.113200 0.353108 0.409925 0.605806
C21   C     C_R   0.873595 0.392286 0.382574 0.596038
C22   C     C_R   0.126404 0.608563 0.617239 0.596083
C23   C     C_R   0.932842 0.372124 0.400225 -0.098189
C24   C     C_R   0.067155 0.628740 0.599566 -0.098181
C25   C     C_R   0.970013 0.505607 0.496050 -0.070223
C26   C     C_R   0.029982 0.495260 0.503734 -0.070217
C27   C     C_R   0.946984 0.649297 0.584461 -0.094806
C28   C     C_R   0.053010 0.351568 0.415324 -0.094789
C29   C     C_R   0.955533 0.223503 0.329920 0.183297
C30   C     C_R   0.044463 0.777358 0.669887 0.183308
C31   C     C_R   0.015581 0.213357 0.336455 0.175309
C32   C     C_R   0.984413 0.787501 0.663351 0.175312
Cu1   Cu    Cu3+1 0.506340 0.517380 0.684380 0.994192
Cu2   Cu    Cu3+1 0.493660 0.482620 0.315620 0.994243
H1    H     H_    0.209973 0.635668 0.321997 0.183383
H2    H     H_    0.790130 0.364932 0.677899 0.183420
H3    H     H_    0.219975 0.324582 0.694272 0.168027
H4    H     H_    0.779914 0.676133 0.305691 0.168036
H5    H     H_    0.492784 0.958841 0.285629 0.187524
H6    H     H_    0.507220 0.041161 0.714373 0.187548
H7    H     H_    0.454542 0.377792 0.948649 0.240060
H8    H     H_    0.545458 0.622206 0.051349 0.239950
N1    N     N_R   0.852121 0.522691 0.486106 -0.465581
N2    N     N_R   0.147876 0.478139 0.513737 -0.465583
N3    N     N_2   0.484110 0.456420 0.038520 -0.201043
N4    N     N_2   0.515890 0.543580 0.961480 -0.201110
O1    O     O_R   0.504120 0.286130 0.619770 -0.573331
O2    O     O_R   0.495880 0.713870 0.380230 -0.573316
O3    O     O_R   0.493410 0.256770 0.308360 -0.587797
O4    O     O_R   0.506590 0.743230 0.691640 -0.587825
O5    O     O_R   0.423230 0.514630 0.655730 -0.555990
O6    O     O_R   0.576770 0.485370 0.344270 -0.555987
O7    O     O_R   0.412530 0.485280 0.344320 -0.565433
O8    O     O_R   0.587470 0.514720 0.655680 -0.565525
O9    O     O_2   0.862534 0.766116 0.701207 -0.470245
O10   O     O_2   0.137458 0.234758 0.298544 -0.470293
O11   O     O_2   0.837153 0.285648 0.261014 -0.475402
O12   O     O_2   0.162844 0.715197 0.738807 -0.475419
I1    I     I_    0.900381 0.005092 0.239271 -0.145780
I2    I     I_    0.099614 0.995775 0.760607 -0.145863
I3    I     I_    0.047277 0.980673 0.246302 -0.180355
I4    I     I_    0.952716 0.020155 0.753596 -0.180300
I5    I     I_    0.330363 0.730598 0.242352 -0.332299
I6    I     I_    0.669771 0.269402 0.757360 -0.332269
N5    N     N_2   0.333388 0.311353 0.716709 -0.426660
H9    H     H_    0.316071 0.302248 0.837262 0.272139
C33   C     C_3   0.347813 0.158614 0.611455 -0.608529
H10   H     H_    0.308219 0.078599 0.561889 0.254304
H11   H     H_    0.376320 0.102824 0.700677 0.224414
H12   H     H_    0.370819 0.172805 0.490853 0.220221
N6    N     N_2   0.666466 0.688761 0.283165 -0.426838
H13   H     H_    0.683644 0.697465 0.162233 0.272017
C34   C     C_3   0.652072 0.841661 0.388067 -0.608213
H14   H     H_    0.691639 0.922244 0.435993 0.254229
H15   H     H_    0.629496 0.827970 0.509796 0.220402
H16   H     H_    0.623161 0.896480 0.298915 0.224244

loop_
_geom_bond_atom_site_label_1
_geom_bond_atom_site_label_2
_ccdc_geom_bond_type
C4    H2    S    
C34   H14   S    
C31   I3    S    
C20   O10   S    
C17   O5    A    
C18   O6    A    
N3    N4    D    
C23   C29   A    
C24   C26   A    
N5    C33   S    
C15   C16   D    
C5    I5    S    
H8    N4    S    
C6    I6    S    
C11   H3    S    
C2    O4    A    
C21   N1    A    
C22   N2    A    
C29   I1    S    
C7    C17   S    
C30   I2    S    
C1    C15   S    
C2    C16   S    
C3    C13   A    
C10   N6    S    
C12   H4    S    
Cu1   N4    S    
C34   H15   S    
C20   N2    A    
C19   N1    A    
C24   C30   A    
C33   H10   S    
C4    C6    A    
C5    C7    A    
C1    O1    A    
C6    C8    A    
C20   C28   A    
C2    O2    A    
C25   C26   A    
C8    C18   S    
C33   H11   S    
C21   O11   S    
C3    H1    S    
Cu1   Cu2   S    
Cu2   N3    S    
C9    C11   A    
C15   H5    S    
C10   C12   A    
C16   H6    S    
C12   C14   A    
C21   C23   A    
Cu1   O1    S    
C34   H16   S    
C22   C24   A    
C25   C27   A    
C17   O7    A    
C19   C27   A    
N6    C34   S    
C19   O9    S    
Cu1   O8    S    
C7    C9    A    
Cu2   O3    S    
C27   C32   A    
Cu2   O6    S    
C28   C31   A    
C3    C5    A    
C22   O12   S    
Cu1   O5    S    
C26   C28   A    
C33   H12   S    
Cu1   O4    S    
C32   I4    S    
N6    H13   S    
C29   C31   A    
C30   C32   A    
C11   C13   A    
C23   C25   A    
C4    C14   A    
C9    N5    S    
C18   O8    A    
Cu2   O2    S    
Cu2   O7    S    
C8    C10   A    
N5    H9    S    
H7    N3    S    
C1    O3    A    
C13   N2    S    
C14   N1    S    
