data_mof_unit_13142.cif
_audit_creation_date              2013-03-05T16:06:54-0500
_audit_creation_method            fapswitch 2.2
_symmetry_space_group_name_H-M    P1
_symmetry_Int_Tables_number       1
_space_group_crystal_system       triclinic
_cell_length_a                    10.915547
_cell_length_b                    9.620853
_cell_length_c                    10.867699
_cell_angle_alpha                 92.259228
_cell_angle_beta                  92.778095
_cell_angle_gamma                 90.492227
_cell_volume                      1139.00131255

loop_
_atom_site_label
_atom_site_type_symbol
_atom_site_description
_atom_site_fract_x
_atom_site_fract_y
_atom_site_fract_z
_atom_type_partial_charge
O1    O     O_R   0.319640 0.618740 0.499990 -0.595651
O2    O     O_R   0.680360 0.618740 0.500010 -0.579086
O3    O     O_R   0.319620 0.381170 0.499990 -0.516354
O4    O     O_R   0.680380 0.381170 0.500010 -0.517626
C1    C     C_R   0.262430 0.498745 0.502786 0.809773
C2    C     C_R   0.737387 0.499405 0.495136 0.888659
O5    O     O_R   0.499990 0.618810 0.319660 -0.508768
O6    O     O_R   0.500010 0.618810 0.680340 -0.534444
O7    O     O_R   0.499960 0.381240 0.319650 -0.536960
O8    O     O_R   0.500040 0.381240 0.680350 -0.550131
C3    C     C_R   0.496970 0.497736 0.262661 0.854318
C4    C     C_R   0.500087 0.502458 0.737713 0.854063
Cu1   Cu    Cu3+1 0.500000 0.640660 0.500000 1.073761
Cu2   Cu    Cu3+1 0.500000 0.359340 0.500000 1.135920
C5    C     C_R   0.543602 0.607072 0.072315 0.003064
C6    C     C_R   0.539112 0.617209 0.946759 -0.015472
C7    C     C_R   0.491438 0.496332 0.129343 -0.076146
C8    C     C_R   0.490583 0.506848 0.870921 -0.062032
C9    C     C_R   0.426286 0.395246 0.055585 -0.108272
C10   C     C_R   0.427200 0.399410 0.926776 -0.119617
H1    H     H_    0.376559 0.312994 0.096324 0.229143
H2    H     H_    0.380468 0.317433 0.871134 0.200399
C11   C     C_3   0.657974 0.700090 0.951927 0.554722
C12   C     C_3   0.667082 0.673459 0.092499 0.502380
C13   C     C_R   0.061945 0.366547 0.496745 0.281630
C14   C     C_R   0.934065 0.367724 0.480314 0.304338
C15   C     C_R   0.871322 0.495635 0.488914 -0.125093
C16   C     C_R   0.128249 0.494298 0.504036 -0.183528
C17   C     C_R   0.938133 0.620324 0.495737 -0.188195
C18   C     C_R   0.064730 0.619842 0.503640 -0.234634
H3    H     H_    0.892914 0.718973 0.491722 0.166492
H4    H     H_    0.112692 0.718691 0.509850 0.183162
C19   C     C_R   0.442782 0.068244 0.405274 0.303959
C20   C     C_R   0.560506 0.077712 0.592736 0.274013
C21   C     C_R   0.436210 0.920056 0.409751 0.448591
C22   C     C_R   0.565830 0.929201 0.588171 0.429994
N1    N     N_R   0.500000 0.852070 0.500000 -0.279475
N2    N     N_R   0.500000 0.147940 0.500000 -0.304141
O9    O     O_3   0.743460 0.633484 0.874740 -0.579564
C23   C     C_3   0.865492 0.681510 0.898413 -0.221020
H5    H     H_    0.902339 0.658891 0.991867 0.187386
H6    H     H_    0.877005 0.793284 0.881887 0.175042
H7    H     H_    0.924326 0.625083 0.833093 0.187772
O10   O     O_3   0.657982 0.792111 0.173844 -0.564820
C24   C     C_3   0.769989 0.866258 0.194056 -0.025728
H8    H     H_    0.840679 0.838804 0.127326 0.119588
H9    H     H_    0.807604 0.849399 0.288955 0.167888
H10   H     H_    0.751350 0.978999 0.188123 0.235752
N3    N     N_R   0.632966 0.846271 0.923852 0.174184
O11   O     O_R   0.520855 0.885995 0.899471 -0.267399
O12   O     O_R   0.718225 0.941299 0.940127 -0.340826
N4    N     N_R   0.757266 0.568805 0.132730 0.073641
O13   O     O_R   0.765084 0.450346 0.071396 -0.285226
O14   O     O_R   0.823001 0.587563 0.234912 -0.396583
N5    N     N_R   0.122423 0.235286 0.507227 0.169747
O15   O     O_R   0.173744 0.202873 0.612693 -0.350861
O16   O     O_R   0.106694 0.139305 0.420094 -0.324633
N6    N     N_R   0.869806 0.239406 0.448737 0.161303
O17   O     O_R   0.811103 0.222891 0.341969 -0.319912
O18   O     O_R   0.882508 0.133694 0.518922 -0.350879
N7    N     N_R   0.397892 0.130654 0.295109 0.140517
O19   O     O_R   0.303593 0.211941 0.297017 -0.345848
O20   O     O_R   0.435333 0.084288 0.189399 -0.303179
N8    N     N_R   0.616576 0.151578 0.697829 0.173313
O21   O     O_R   0.571327 0.139614 0.805349 -0.248994
O22   O     O_R   0.717913 0.221558 0.689497 -0.305660
O23   O     O_3   0.373522 0.842181 0.316839 -0.515363
C25   C     C_3   0.246100 0.864239 0.321486 -0.140064
H11   H     H_    0.217080 0.945329 0.256758 0.225089
H12   H     H_    0.216052 0.892559 0.415674 0.150344
H13   H     H_    0.197462 0.766514 0.290093 0.161543
O24   O     O_3   0.638626 0.860317 0.672325 -0.502569
C26   C     C_3   0.763007 0.883563 0.649190 -0.099881
H14   H     H_    0.801100 0.971159 0.708790 0.232847
H15   H     H_    0.779188 0.901964 0.550639 0.133999
H16   H     H_    0.814724 0.789796 0.673867 0.156298

loop_
_geom_bond_atom_site_label_1
_geom_bond_atom_site_label_2
_geom_bond_distance
_ccdc_geom_bond_type
C12   N4    1.477841 S    
N5    O15   1.301435 A    
O6    Cu1   1.979340 S    
C15   C17   1.396118 A    
C26   H14   1.107922 S    
C9    C10   1.402520 A    
C24   H8    1.110727 S    
N4    O13   1.302978 A    
C13   C16   1.418521 A    
O5    C3    1.296968 A    
C14   C15   1.415563 A    
O1    C1    1.309915 A    
C22   N1    1.361332 A    
C21   N1    1.366318 A    
C11   N3    1.475765 S    
N6    O18   1.299505 A    
C5    C6    1.370355 A    
C8    C10   1.411899 A    
N7    O20   1.301555 A    
O2    Cu1   1.981786 S    
C7    C9    1.401967 A    
C23   H7    1.109442 S    
C25   H11   1.108929 S    
N3    O12   1.299973 A    
C11   C12   1.557551 S    
Cu1   N1    2.033945 S    
C23   H6    1.104331 S    
Cu1   Cu2   2.706538 S    
C26   H15   1.114624 S    
O2    C2    1.311154 A    
N4    O14   1.298198 A    
C24   H9    1.109880 S    
O23   C25   1.411790 S    
O4    C2    1.296053 A    
O8    Cu2   1.962984 S    
O9    C23   1.414523 S    
N6    O17   1.301469 A    
N8    O22   1.298757 A    
O7    Cu2   1.979503 S    
C17   C18   1.380444 A    
Cu2   N2    2.033848 S    
C1    C16   1.465658 S    
O7    C3    1.301618 A    
C2    C15   1.467493 S    
C21   O23   1.383374 S    
O6    C4    1.302623 A    
C20   N8    1.429974 S    
C5    C12   1.489380 S    
C14   N6    1.436042 S    
O3    Cu2   1.981904 S    
O8    C4    1.300518 A    
C6    C8    1.402230 A    
C23   H5    1.104521 S    
C10   H2    1.083279 S    
C6    C11   1.514586 S    
N5    O16   1.300551 A    
C12   O10   1.423155 S    
C26   H16   1.103436 S    
O1    Cu1   1.978183 S    
O10   C24   1.413705 S    
C24   H10   1.109101 S    
C5    C7    1.385376 A    
C3    C7    1.446715 S    
C9    H1    1.077214 S    
C20   N2    1.380309 A    
C13   N5    1.435942 S    
O24   C26   1.410257 S    
O3    C1    1.296699 A    
C19   N2    1.380201 A    
N8    O21   1.299289 A    
C16   C18   1.397895 A    
C13   C14   1.398836 A    
C17   H3    1.074951 S    
C18   H4    1.079825 S    
C25   H13   1.109422 S    
C11   O9    1.424350 S    
C19   C21   1.429749 A    
C20   C22   1.429489 A    
O4    Cu2   1.978314 S    
N7    O19   1.298527 A    
O5    Cu1   1.962860 S    
C19   N7    1.427899 S    
N3    O11   1.303243 A    
C4    C8    1.455369 S    
C25   H12   1.114309 S    
C22   O24   1.376012 S    
