data_mof_unit_43421.cif
_audit_creation_date              2012-12-10T16:57:10-0500
_audit_creation_method            fapswitch 2.2
_symmetry_space_group_name_H-M    P1
_symmetry_Int_Tables_number       1
_space_group_crystal_system       triclinic
_cell_length_a                    15.89425
_cell_length_b                    10.932939
_cell_length_c                    9.692281
_cell_angle_alpha                 89.726735
_cell_angle_beta                  90.668156
_cell_angle_gamma                 89.094173
_cell_volume                      1683.8904068

loop_
_atom_site_label
_atom_site_type_symbol
_atom_type_description
_atom_site_fract_x
_atom_site_fract_y
_atom_site_fract_z
_atom_type_partial_charge
C1    C     C_R   0.506549 0.266224 0.500707 0.855536
C2    C     C_3   0.958092 0.415119 0.593551 0.242705
C3    C     C_3   0.916066 0.508567 0.486482 -0.227153
C4    C     C_3   0.947263 0.639155 0.541735 0.051241
C5    C     C_3   0.047899 0.646721 0.539396 0.335599
C6    C     C_1   0.824336 0.501856 0.497736 0.204744
C7    C     C_1   0.175381 0.512787 0.487366 0.131222
C8    C     C_1   0.250787 0.507276 0.494836 -0.091125
C9    C     C_2   0.533606 0.935459 0.405691 0.095161
C10   C     C_2   0.487928 0.867276 0.496225 -0.073468
C11   C     C_2   0.518153 0.067384 0.394461 -0.189440
C12   C     C_R   0.340272 0.501472 0.499034 0.809698
C13   C     C_2   0.527354 0.137526 0.504845 -0.310771
C14   C     C_2   0.452205 0.429581 0.921585 -0.034731
C15   C     C_2   0.451497 0.430577 0.077299 -0.029089
C16   C     C_R   0.498461 0.734777 0.499344 0.803098
C17   C     C_R   0.659651 0.498447 0.500723 0.821080
C18   C     C_3   0.052641 0.405257 0.565768 -0.417695
C19   C     C_3   0.047457 0.499718 0.328062 0.133543
C20   C     C_3   0.947169 0.482783 0.329474 0.368870
C21   C     C_1   0.748998 0.498662 0.501849 -0.013540
C22   C     C_3   0.082775 0.517566 0.480488 -0.132035
Cu1   Cu    Cu3+1 0.500020 0.500020 0.638630 0.974328
Cu2   Cu    Cu3+1 0.499980 0.499980 0.361370 0.967985
H1    H     H_    0.088390 0.393090 0.663986 0.240444
H2    H     H_    0.954055 0.456176 0.697445 0.175348
H3    H     H_    0.498556 0.105561 0.295248 0.162593
H4    H     H_    0.552150 0.099495 0.601026 0.160771
H5    H     H_    0.410309 0.366836 0.869719 0.159322
H6    H     H_    0.538349 0.559398 0.894331 0.195608
H7    H     H_    0.408295 0.369731 0.128211 0.169880
H8    H     H_    0.066221 0.320267 0.508595 0.248348
H9    H     H_    0.540825 0.555780 0.106583 0.192453
H10   H     H_    0.059106 0.585324 0.272568 0.074723
H11   H     H_    0.931658 0.636774 0.652791 0.173685
N1    N     N_2   0.499090 0.498660 0.846910 -0.279977
N2    N     N_2   0.499070 0.498630 0.153040 -0.283618
O1    O     O_R   0.500010 0.321960 0.617040 -0.583634
O2    O     O_R   0.499990 0.321920 0.382900 -0.577349
O3    O     O_R   0.379450 0.500030 0.617120 -0.560263
O4    O     O_R   0.379420 0.499980 0.382980 -0.551719
O5    O     O_R   0.500010 0.678080 0.617100 -0.575478
O6    O     O_R   0.499990 0.678040 0.382960 -0.591320
O7    O     O_R   0.620580 0.500020 0.617020 -0.568505
O8    O     O_R   0.620550 0.499970 0.382880 -0.569946
S1    S     S_3+6 0.910102 0.269804 0.636639 0.065741
O9    O     O_2   0.833242 0.243499 0.551176 -0.246570
O10   O     O_2   0.972632 0.166108 0.622212 -0.247190
O11   O     O_3   0.881038 0.276318 0.802855 -0.502635
H12   H     H_    0.860768 0.193331 0.824833 0.392498
S2    S     S_3+6 0.882975 0.778673 0.507061 -0.048953
O12   O     O_2   0.792289 0.748815 0.482338 -0.346076
O13   O     O_2   0.886656 0.856629 0.634386 -0.235782
O14   O     O_3   0.913320 0.864745 0.372788 -0.585856
H13   H     H_    0.882784 0.943834 0.382937 0.408457
C23   C     C_3   0.598949 0.878318 0.309646 -0.365926
C24   C     C_3   0.665455 0.968222 0.258381 -0.336369
C25   C     C_3   0.729475 0.904165 0.166080 -0.788652
H14   H     H_    0.761104 0.827204 0.222096 0.296789
H15   H     H_    0.697815 0.868274 0.072217 0.243603
H16   H     H_    0.777982 0.970201 0.134025 0.261218
H17   H     H_    0.634923 0.043467 0.197674 0.218275
H18   H     H_    0.699052 0.008324 0.348290 0.260116
H19   H     H_    0.633585 0.803606 0.365305 0.227335
H20   H     H_    0.565677 0.838631 0.219250 0.200782
C26   C     C_3   0.421005 0.919465 0.593239 -0.389813
C27   C     C_3   0.343139 0.972480 0.516996 -0.349768
C28   C     C_3   0.289722 0.050097 0.614223 -0.804319
H21   H     H_    0.266043 0.992964 0.700066 0.280357
H22   H     H_    0.327377 0.125999 0.657354 0.250463
H23   H     H_    0.235428 0.090969 0.556928 0.237463
H24   H     H_    0.360562 0.030578 0.428235 0.230730
H25   H     H_    0.304802 0.896234 0.476171 0.220477
H26   H     H_    0.397873 0.846487 0.662864 0.216070
H27   H     H_    0.448571 0.986880 0.664577 0.203267
S3    S     S_3+6 0.111943 0.398484 0.220438 0.044448
O15   O     O_2   0.075542 0.387077 0.077798 -0.191962
O16   O     O_2   0.197251 0.453953 0.203936 -0.332462
O17   O     O_3   0.124821 0.257706 0.288190 -0.483634
H28   H     H_    0.178265 0.260024 0.341684 0.329280
S4    S     S_3+6 0.912981 0.330808 0.269720 0.087532
O18   O     O_2   0.928789 0.310158 0.119417 -0.210217
O19   O     O_2   0.957513 0.229519 0.347085 -0.198433
O20   O     O_3   0.808566 0.317599 0.289856 -0.537341
H29   H     H_    0.795661 0.233313 0.260060 0.372868
C29   C     C_3   0.902510 0.579941 0.231428 -0.467956
C30   C     C_3   0.925292 0.581791 0.077157 -0.286274
C31   C     C_3   0.886256 0.693828 0.004801 -0.740113
H30   H     H_    0.816686 0.693382 0.014057 0.239310
H31   H     H_    0.910984 0.779343 0.050288 0.280214
H32   H     H_    0.901995 0.692029 0.893634 0.291242
H33   H     H_    0.994192 0.585600 0.064188 0.266260
H34   H     H_    0.900523 0.501083 0.023018 0.297661
H35   H     H_    0.833095 0.571484 0.238045 0.239150
H36   H     H_    0.918275 0.670774 0.268963 0.249282
S5    S     S_3+6 0.088541 0.671794 0.715986 -0.039528
O21   O     O_2   0.181792 0.692848 0.711966 -0.320320
O22   O     O_2   0.046537 0.782614 0.777401 -0.264520
O23   O     O_3   0.071101 0.553920 0.822833 -0.562361
H37   H     H_    0.114265 0.560953 0.896751 0.408863
C32   C     C_3   0.080929 0.754328 0.444399 -0.370243
C33   C     C_3   0.086975 0.883897 0.506236 -0.207432
C34   C     C_3   0.102982 0.979505 0.394814 -0.726755
H38   H     H_    0.164779 0.962023 0.345741 0.230893
H39   H     H_    0.052756 0.979156 0.314323 0.310874
H40   H     H_    0.103162 0.071172 0.443063 0.275867
H41   H     H_    0.028957 0.910780 0.560213 0.321294
H42   H     H_    0.139937 0.887530 0.581460 0.250016
H43   H     H_    0.145366 0.731736 0.408523 0.176674
H44   H     H_    0.042524 0.761489 0.349259 0.214961

loop_
_geom_bond_atom_site_label_1
_geom_bond_atom_site_label_2
_ccdc_geom_bond_type
C30   C31   S    
C32   C33   S    
C2    C18   S    
C19   C20   S    
S3    O17   S    
C3    C6    S    
S4    O20   S    
S4    O18   D    
C7    C8    T    
C2    S1    S    
S1    O11   S    
Cu1   O5    S    
Cu2   O8    S    
C19   S3    S    
S3    O16   D    
C14   N1    D    
C32   H43   S    
Cu1   O3    S    
C26   H26   S    
S5    O23   S    
Cu2   O2    S    
C23   C24   S    
C27   H24   S    
C15   N2    D    
C29   H35   S    
S1    O9    D    
C5    C22   S    
C28   H21   S    
C20   C29   S    
Cu1   Cu2   S    
C23   H19   S    
C13   H4    S    
C33   H42   S    
C27   H25   S    
C9    C10   D    
C25   H16   S    
C26   C27   S    
C4    H11   S    
C30   H33   S    
Cu2   O4    S    
C18   H1    S    
S4    O19   D    
C24   H18   S    
C5    C32   S    
C10   C26   S    
S1    O10   D    
C4    S2    S    
C27   C28   S    
C33   H41   S    
C19   C22   S    
S3    O15   D    
C34   H39   S    
C29   C30   S    
C24   H17   S    
C25   H14   S    
C6    C21   T    
H9    N2    S    
Cu1   O7    S    
S2    O12   D    
S5    O22   D    
S2    O13   D    
C12   O3    A    
C12   O4    A    
O23   H37   S    
C31   H32   S    
C11   H3    S    
C8    C12   S    
S5    O21   D    
Cu2   N2    S    
C3    C20   S    
C2    H2    S    
C9    C23   S    
O20   H29   S    
C9    C11   S    
C16   O6    A    
C1    O1    A    
C31   H31   S    
O11   H12   S    
C1    C13   S    
C14   H5    S    
C3    C4    S    
Cu1   O1    S    
C16   O5    A    
C5    S5    S    
O14   H13   S    
C18   C22   S    
C17   O8    A    
C4    C5    S    
C19   H10   S    
C15   H7    S    
C7    C22   S    
H6    N1    S    
S2    O14   S    
C2    C3    S    
C32   H44   S    
C17   O7    A    
C10   C16   S    
C11   C13   D    
C24   C25   S    
C28   H23   S    
C26   H27   S    
C30   H34   S    
C34   H40   S    
C33   C34   S    
C17   C21   S    
C29   H36   S    
C1    O2    A    
O17   H28   S    
C18   H8    S    
C31   H30   S    
C28   H22   S    
Cu1   N1    S    
C34   H38   S    
Cu2   O6    S    
C14   C15   S    
C20   S4    S    
C25   H15   S    
C23   H20   S    
