data_mof_unit_5514.cif
_audit_creation_date              2012-12-10T17:45:34-0500
_audit_creation_method            fapswitch 2.2
_symmetry_space_group_name_H-M    P1
_symmetry_Int_Tables_number       1
_space_group_crystal_system       triclinic
_cell_length_a                    11.482485
_cell_length_b                    10.711289
_cell_length_c                    10.038149
_cell_angle_alpha                 92.015363
_cell_angle_beta                  87.485854
_cell_angle_gamma                 92.154857
_cell_volume                      1231.85867885

loop_
_atom_site_label
_atom_site_type_symbol
_atom_type_description
_atom_site_fract_x
_atom_site_fract_y
_atom_site_fract_z
_atom_type_partial_charge
C1    C     C_R   0.510639 0.261452 0.498163 0.856878
C2    C     C_R   0.486579 0.874005 0.510335 -0.113579
C3    C     C_R   0.346864 0.335903 0.135769 -0.193355
C4    C     C_R   0.282367 0.499225 0.502291 0.904071
C5    C     C_R   0.271487 0.259021 0.060962 -0.237062
C6    C     C_R   0.252188 0.286981 0.928646 0.113010
C7    C     C_R   0.306071 0.396175 0.877366 0.020141
C8    C     C_R   0.411788 0.438517 0.932229 0.102531
C9    C     C_R   0.419678 0.426806 0.072947 0.103003
C10   C     C_R   0.586265 0.561657 0.069404 0.145847
C11   C     C_R   0.584866 0.564574 0.925975 0.162841
C12   C     C_R   0.597298 0.079693 0.850770 -0.132247
C13   C     C_R   0.493127 0.739739 0.503273 0.870877
C14   C     C_R   0.717597 0.499662 0.497670 0.895345
C15   C     C_1   0.161537 0.497950 0.505928 -0.195165
C16   C     C_1   0.059165 0.497120 0.503154 -0.006794
C17   C     C_1   0.940618 0.497012 0.496945 -0.019104
C18   C     C_1   0.838314 0.497871 0.494002 -0.213045
C19   C     C_R   0.603506 0.130883 0.724940 -0.144504
C20   C     C_3   0.165233 0.209145 0.849822 -0.454974
C21   C     C_3   0.211340 0.079620 0.815167 -0.780567
C22   C     C_2   0.223044 0.493267 0.845823 0.425038
C23   C     C_R   0.536558 0.966723 0.869716 -0.175205
C24   C     C_3   0.668372 0.656339 0.853183 -0.346041
C25   C     C_3   0.793991 0.614616 0.829669 -0.828960
C26   C     C_3   0.692012 0.616220 0.139040 -0.318814
C27   C     C_3   0.786089 0.518121 0.145505 -0.794113
C28   C     C_R   0.492758 0.899184 0.760374 -0.190482
C29   C     C_R   0.508497 0.945023 0.629488 0.091469
C30   C     C_R   0.547711 0.069224 0.616450 0.095880
C31   C     C_R   0.524629 0.128816 0.497084 -0.118944
C32   C     C_R   0.491601 0.059974 0.383804 -0.230900
C33   C     C_R   0.476800 0.932954 0.389237 -0.218178
H1    H     H_    0.475088 0.104159 0.291322 0.169428
H2    H     H_    0.226063 0.028759 0.907131 0.258369
H3    H     H_    0.146877 0.024513 0.755774 0.243665
H4    H     H_    0.081112 0.200261 0.908417 0.206584
H5    H     H_    0.148285 0.253912 0.754663 0.195923
H6    H     H_    0.134875 0.466922 0.818381 0.039886
H7    H     H_    0.797667 0.511151 0.821630 0.264635
H8    H     H_    0.831604 0.653408 0.735382 0.247771
H9    H     H_    0.850546 0.653228 0.908845 0.246328
H10   H     H_    0.637507 0.676561 0.756830 0.267624
H11   H     H_    0.667708 0.749700 0.904378 0.158945
H12   H     H_    0.651204 0.219226 0.713673 0.152720
H13   H     H_    0.748273 0.426973 0.178728 0.268465
H14   H     H_    0.829576 0.497712 0.047661 0.231924
H15   H     H_    0.854095 0.552678 0.214281 0.246138
H16   H     H_    0.731486 0.700185 0.092203 0.166949
H17   H     H_    0.666311 0.655386 0.237917 0.242738
H18   H     H_    0.636113 0.129735 0.934287 0.133048
H19   H     H_    0.525261 0.930058 0.968792 0.136394
H20   H     H_    0.442478 0.814699 0.782026 0.205194
H21   H     H_    0.456399 0.881104 0.298038 0.173452
H22   H     H_    0.350911 0.317746 0.239463 0.210501
H23   H     H_    0.223406 0.182397 0.108158 0.162747
H24   H     H_    0.294659 0.088049 0.755028 0.270373
N1    N     N_R   0.498930 0.498800 0.142780 -0.140240
N2    N     N_R   0.498900 0.498720 0.857170 -0.138791
O1    O     O_R   0.500000 0.316780 0.614690 -0.618523
O2    O     O_R   0.499990 0.316750 0.385360 -0.643114
O3    O     O_R   0.334450 0.500030 0.614670 -0.590481
O4    O     O_R   0.334440 0.500000 0.385330 -0.616436
O5    O     O_R   0.500010 0.683250 0.614640 -0.647679
O6    O     O_R   0.500000 0.683220 0.385310 -0.634506
O7    O     O_R   0.665560 0.500000 0.614670 -0.619919
O8    O     O_R   0.665550 0.499970 0.385330 -0.618367
O9    O     O_2   0.251176 0.604425 0.853325 -0.577763
Zn1   Zn    Zn3+2 0.500010 0.500020 0.653130 0.950269
Zn2   Zn    Zn3+2 0.499990 0.499980 0.346870 0.920856

loop_
_geom_bond_atom_site_label_1
_geom_bond_atom_site_label_2
_ccdc_geom_bond_type
C25   H9    S    
O2    Zn2   S    
C14   O8    A    
C19   H12   S    
C21   H24   S    
C6    C7    A    
C21   H2    S    
C7    C22   S    
C20   H5    S    
C14   C18   S    
C5    H23   S    
C31   C32   A    
C12   C23   A    
O4    Zn2   S    
C27   H13   S    
C28   H20   S    
O8    Zn2   S    
C32   C33   A    
C10   C26   S    
C4    C15   S    
C17   C18   T    
C14   O7    A    
C7    C8    A    
C25   H7    S    
C21   H3    S    
C13   O6    A    
C23   C28   A    
C24   C25   S    
C20   H4    S    
C2    C13   S    
C4    O4    A    
C22   O9    D    
C23   H19   S    
C29   C30   A    
C13   O5    A    
O1    Zn1   S    
N2    Zn1   S    
C2    C29   A    
C11   N2    A    
C22   H6    S    
C12   C19   A    
C28   C29   A    
C10   N1    A    
C1    O1    A    
C26   H17   S    
C8    N2    A    
C26   C27   S    
C30   C31   A    
C24   H11   S    
C3    C9    A    
O7    Zn1   S    
C16   C17   S    
C10   C11   A    
C27   H14   S    
C15   C16   T    
C4    O3    A    
C11   C24   S    
C1    C31   S    
C12   H18   S    
C6    C20   S    
C20   C21   S    
C2    C33   A    
C9    N1    A    
C26   H16   S    
C25   H8    S    
C33   H21   S    
C5    C6    A    
C24   H10   S    
N1    Zn2   S    
C27   H15   S    
O5    Zn1   S    
C19   C30   A    
C3    H22   S    
O6    Zn2   S    
O3    Zn1   S    
C32   H1    S    
C8    C9    A    
C3    C5    A    
C1    O2    A    
