data_mof_unit_23209.cif
_audit_creation_date              2013-03-05T16:50:00-0500
_audit_creation_method            fapswitch 2.2
_symmetry_space_group_name_H-M    P1
_symmetry_Int_Tables_number       1
_space_group_crystal_system       triclinic
_cell_length_a                    27.796168
_cell_length_b                    10.812187
_cell_length_c                    26.524349
_cell_angle_alpha                 89.7106
_cell_angle_beta                  89.771658
_cell_angle_gamma                 89.745109
_cell_volume                      7971.31482918

loop_
_atom_site_label
_atom_site_type_symbol
_atom_site_description
_atom_site_fract_x
_atom_site_fract_y
_atom_site_fract_z
_atom_type_partial_charge
O1    O     O_R   0.500000 0.319660 0.542350 -0.583059
O2    O     O_R   0.500000 0.680340 0.457650 -0.583066
O3    O     O_R   0.500000 0.319630 0.457650 -0.567996
O4    O     O_R   0.500000 0.680370 0.542350 -0.567996
C1    C     C_R   0.498640 0.262122 0.500032 0.800918
C2    C     C_R   0.501361 0.737878 0.499968 0.800902
O5    O     O_R   0.430260 0.500030 0.542340 -0.592131
O6    O     O_R   0.569740 0.499970 0.457660 -0.592127
O7    O     O_R   0.430270 0.500010 0.457650 -0.592611
O8    O     O_R   0.569730 0.499990 0.542350 -0.592616
C3    C     C_R   0.407346 0.499879 0.500097 0.795657
C4    C     C_R   0.592653 0.500128 0.499903 0.795644
Cu1   Cu    Cu3+1 0.500000 0.500020 0.550150 0.953425
Cu2   Cu    Cu3+1 0.500000 0.499980 0.449850 0.953424
O9    O     O_2   0.490602 0.716114 0.785578 -0.573382
O10   O     O_2   0.509405 0.283892 0.214422 -0.573400
C5    C     C_R   0.477017 0.716111 0.055701 -0.155446
C6    C     C_R   0.522985 0.283893 0.944299 -0.155451
H1    H     H_    0.433237 0.594900 0.630882 0.132472
H2    H     H_    0.566765 0.405109 0.369119 0.132503
C7    C     C_R   0.177862 0.389019 0.507510 0.542785
C8    C     C_R   0.822138 0.611052 0.492493 0.542770
O11   O     O_2   0.202652 0.281807 0.511410 -0.527555
O12   O     O_2   0.797348 0.718266 0.488601 -0.527585
N1    N     N_R   0.201992 0.498299 0.502324 -0.470193
N2    N     N_R   0.798008 0.501770 0.497675 -0.470176
C9    C     C_R   0.177958 0.608745 0.499707 0.564894
C10   C     C_R   0.822043 0.391324 0.500288 0.564888
C11   C     C_R   0.279086 0.476116 0.546129 -0.097038
C12   C     C_R   0.720910 0.524158 0.453889 -0.097001
C13   C     C_R   0.329225 0.477154 0.545679 -0.215117
C14   C     C_R   0.670771 0.523100 0.454339 -0.215195
C15   C     C_R   0.328570 0.520580 0.455833 -0.235708
C16   C     C_R   0.671430 0.479255 0.544152 -0.235730
C17   C     C_R   0.278386 0.519993 0.456429 -0.104210
C18   C     C_R   0.721614 0.479855 0.543556 -0.104168
C19   C     C_R   0.253541 0.497629 0.501556 0.354628
C20   C     C_R   0.746458 0.502438 0.498445 0.354535
C21   C     C_R   0.101797 0.500109 0.503560 -0.049779
C22   C     C_R   0.898204 0.499962 0.496438 -0.049782
C23   C     C_R   0.127369 0.388001 0.508566 -0.016517
C24   C     C_R   0.872631 0.612070 0.491435 -0.016502
C25   C     C_R   0.102084 0.278624 0.517060 -0.136254
C26   C     C_R   0.897915 0.721449 0.482942 -0.136258
C27   C     C_R   0.127449 0.611698 0.501008 -0.091211
C28   C     C_R   0.872552 0.388373 0.498988 -0.091204
C29   C     C_R   0.354420 0.499158 0.500487 -0.040849
C30   C     C_R   0.645579 0.500872 0.499514 -0.040857
H3    H     H_    0.347086 0.538451 0.420556 0.147462
H4    H     H_    0.652914 0.461215 0.579415 0.147464
H5    H     H_    0.258755 0.536883 0.421875 0.141069
H6    H     H_    0.741245 0.462803 0.578096 0.141122
H7    H     H_    0.120777 0.192569 0.524940 0.204523
H8    H     H_    0.879222 0.807504 0.475064 0.204522
C31   C     C_R   0.974633 0.384781 0.499474 -0.043710
C32   C     C_R   0.025368 0.615292 0.500524 -0.043709
C33   C     C_R   0.974475 0.613508 0.495004 0.068176
C34   C     C_R   0.025525 0.386565 0.504994 0.068176
C35   C     C_R   0.949324 0.499358 0.497662 0.028313
C36   C     C_R   0.050676 0.500715 0.502336 0.028314
C37   C     C_R   0.947561 0.273936 0.493009 0.345196
C38   C     C_R   0.052440 0.726137 0.506986 0.345199
C39   C     C_R   0.897554 0.276471 0.496383 -0.154235
C40   C     C_R   0.102447 0.723600 0.503611 -0.154234
H9    H     H_    0.461863 0.798410 0.039528 0.201367
H10   H     H_    0.538139 0.201594 0.960471 0.201369
H11   H     H_    0.431642 0.592620 0.723832 0.161567
H12   H     H_    0.568361 0.407392 0.276169 0.161572
O13   O     O_2   0.797112 0.284717 0.503526 -0.524270
O14   O     O_2   0.202889 0.715349 0.496463 -0.524247
C41   C     C_R   0.052133 0.279118 0.517348 -0.111592
C42   C     C_R   0.947867 0.720955 0.482652 -0.111596
H13   H     H_    0.651771 0.540166 0.419401 0.157433
H14   H     H_    0.348223 0.460252 0.580631 0.157415
H15   H     H_    0.739991 0.541221 0.418884 0.142586
H16   H     H_    0.260003 0.459226 0.581147 0.142529
H17   H     H_    0.878062 0.190281 0.493157 0.220086
H18   H     H_    0.121940 0.809790 0.506835 0.220084
H19   H     H_    0.035059 0.195170 0.529845 0.225277
H20   H     H_    0.964939 0.804904 0.470156 0.225280
H21   H     H_    0.386414 0.291569 0.306991 0.135270
H22   H     H_    0.613600 0.708366 0.692988 0.135265
C43   C     C_R   0.386160 0.252932 0.386718 -0.113172
C44   C     C_R   0.613842 0.747001 0.613261 -0.113121
H23   H     H_    0.353913 0.306455 0.393891 0.136404
H24   H     H_    0.646078 0.693440 0.606080 0.136433
C45   C     C_R   0.409547 0.192628 0.426492 -0.092891
C46   C     C_R   0.590455 0.807329 0.573493 -0.092867
H25   H     H_    0.395265 0.200806 0.464393 0.114036
H26   H     H_    0.604728 0.799134 0.535588 0.114003
C47   C     C_R   0.451482 0.123038 0.417330 0.111163
C48   C     C_R   0.548531 0.876956 0.582664 0.111142
C49   C     C_R   0.469225 0.113311 0.367847 -0.138231
C50   C     C_R   0.530801 0.886701 0.632151 -0.138244
H27   H     H_    0.501521 0.060169 0.360119 0.142457
H28   H     H_    0.498513 0.939870 0.639887 0.142465
C51   C     C_R   0.445803 0.174176 0.328245 -0.101819
C52   C     C_R   0.554224 0.825817 0.671747 -0.101817
H29   H     H_    0.459782 0.167130 0.290252 0.188734
H30   H     H_    0.540253 0.832876 0.709744 0.188713
C53   C     C_R   0.404401 0.244233 0.337684 -0.120500
C54   C     C_R   0.595613 0.755720 0.662299 -0.120517
C55   C     C_R   0.480573 0.934039 0.459811 -0.223995
C56   C     C_R   0.519434 0.065960 0.540187 -0.223995
H31   H     H_    0.464358 0.882625 0.429287 0.159312
H32   H     H_    0.535648 0.117375 0.570711 0.159298
C57   C     C_R   0.502493 0.871712 0.499998 -0.081441
C58   C     C_R   0.497512 0.128287 0.500001 -0.081438
C59   C     C_R   0.522679 0.937931 0.540476 0.002730
C60   C     C_R   0.477328 0.062067 0.459522 0.002712
H33   H     H_    0.491070 0.808037 0.869482 0.197919
H34   H     H_    0.508936 0.191969 0.130518 0.197919
C61   C     C_R   0.492300 0.608530 0.187880 0.541712
C62   C     C_R   0.507701 0.391474 0.812119 0.541711
O15   O     O_2   0.487305 0.716016 0.213033 -0.546724
O16   O     O_2   0.512695 0.283988 0.786967 -0.546724
N3    N     N_R   0.499185 0.500128 0.214103 -0.448691
N4    N     N_R   0.500818 0.499877 0.785897 -0.448692
C63   C     C_R   0.504726 0.390957 0.188518 0.560228
C64   C     C_R   0.495278 0.609049 0.811481 0.560228
C65   C     C_R   0.538009 0.447722 0.295918 -0.229021
C66   C     C_R   0.461994 0.552286 0.704082 -0.229012
C67   C     C_R   0.537300 0.447352 0.348765 0.049791
C68   C     C_R   0.462701 0.552654 0.651235 0.049806
C69   C     C_R   0.462372 0.552184 0.349228 0.052003
C70   C     C_R   0.537627 0.447812 0.650772 0.052010
C71   C     C_R   0.461163 0.552012 0.296433 -0.238405
C72   C     C_R   0.538838 0.447986 0.703566 -0.238410
C73   C     C_R   0.499515 0.500254 0.268947 0.345406
C74   C     C_R   0.500487 0.499749 0.731053 0.345408
C75   C     C_R   0.498798 0.499002 0.107732 -0.048248
C76   C     C_R   0.501206 0.501003 0.892268 -0.048247
C77   C     C_R   0.490805 0.609135 0.134633 0.001892
C78   C     C_R   0.509197 0.390869 0.865367 0.001894
C79   C     C_R   0.479168 0.716481 0.108018 -0.188971
C80   C     C_R   0.520833 0.283523 0.891981 -0.188972
C81   C     C_R   0.504943 0.388944 0.135214 -0.091304
C82   C     C_R   0.495061 0.611061 0.864786 -0.091307
N5    N     N_R   0.500000 0.499970 0.374520 -0.165678
N6    N     N_R   0.500000 0.500030 0.625480 -0.165674
H35   H     H_    0.432995 0.594043 0.369903 0.125733
H36   H     H_    0.567003 0.405949 0.630096 0.125715
H37   H     H_    0.430502 0.591840 0.277131 0.157820
H38   H     H_    0.569498 0.408155 0.722868 0.157817
H39   H     H_    0.469655 0.800826 0.127657 0.186854
H40   H     H_    0.530345 0.199177 0.872342 0.186853
C83   C     C_R   0.493518 0.614616 0.972735 -0.058808
C84   C     C_R   0.506486 0.385389 0.027265 -0.058809
C85   C     C_R   0.509288 0.388485 0.973135 0.085812
C86   C     C_R   0.490715 0.611520 0.026865 0.085811
C87   C     C_R   0.500779 0.501308 0.946331 0.000825
C88   C     C_R   0.499225 0.498697 0.053669 0.000826
C89   C     C_R   0.491202 0.726908 0.943634 0.471939
C90   C     C_R   0.508802 0.273097 0.056366 0.471939
C91   C     C_R   0.491487 0.722283 0.890675 -0.225362
C92   C     C_R   0.508518 0.277723 0.109325 -0.225360
Cl1   Cl    Cl    0.971343 0.134417 0.468660 -0.585351
Cl2   Cl    Cl    0.028660 0.865657 0.531335 -0.585356
O17   O     O_3   0.496850 0.841343 0.966254 -0.605827
C93   C     C_3   0.460363 0.925097 0.950873 -0.355982
H41   H     H_    0.425192 0.879227 0.943776 0.158310
H42   H     H_    0.472212 0.978054 0.917099 0.189774
H43   H     H_    0.454180 0.992720 0.981492 0.239417
O18   O     O_3   0.503155 0.158661 0.033746 -0.605829
C94   C     C_3   0.539643 0.074909 0.049126 -0.355982
H44   H     H_    0.527795 0.021953 0.082901 0.189775
H45   H     H_    0.574814 0.120781 0.056222 0.158309
H46   H     H_    0.545826 0.007286 0.018507 0.239417

loop_
_geom_bond_atom_site_label_1
_geom_bond_atom_site_label_2
_geom_bond_distance
_ccdc_geom_bond_type
C82   C91   1.390779 A    
C43   C45   1.398358 A    
C94   H44   1.110417 S    
C45   C47   1.405584 A    
C23   C25   1.395240 A    
C61   N3    1.372940 A    
C3    C29   1.471204 S    
C5    C86   1.418241 A    
C4    C30   1.471181 S    
C56   H32   1.085061 S    
C21   C23   1.408401 A    
C11   H16   1.082888 S    
H21   C53   1.082343 S    
C32   C33   1.422992 A    
C22   C28   1.405382 A    
C10   C28   1.404475 A    
C84   C90   1.436752 A    
C55   C60   1.386779 A    
O1    C1    1.286852 A    
C47   C60   1.482521 S    
C90   O18   1.387627 S    
O18   C94   1.416503 S    
C17   C19   1.400036 A    
C44   H24   1.081523 S    
C31   C35   1.422600 A    
C85   C87   1.428107 A    
C56   C59   1.386790 A    
C48   C59   1.482533 S    
C33   C35   1.422462 A    
C11   C19   1.399468 A    
C50   C52   1.398185 A    
C34   C36   1.422462 A    
C67   N5    1.363203 A    
C44   C54   1.397508 A    
O9    C64   1.349212 S    
C12   C20   1.399485 A    
O4    Cu1   1.959882 S    
C37   C39   1.392693 A    
C49   H27   1.083128 S    
H2    C67   1.080995 S    
C38   C40   1.392693 A    
N1    C19   1.432912 S    
C25   H7    1.083497 S    
C46   C48   1.405590 A    
C69   H35   1.080745 S    
C79   H39   1.083731 S    
C5    C79   1.389242 A    
O6    Cu2   1.950362 S    
C2    C57   1.447525 S    
C38   Cl2   1.768407 S    
C6    C80   1.389243 A    
C13   C29   1.405626 A    
C89   C91   1.405832 A    
C6    C85   1.418242 A    
N3    C73   1.454777 S    
C90   C92   1.405832 A    
C18   H6    1.082817 S    
C21   C27   1.405384 A    
C32   C38   1.429367 A    
C9    C27   1.404476 A    
C22   C24   1.408397 A    
C21   C36   1.421440 A    
C94   H45   1.115287 S    
C22   C35   1.421442 A    
C61   C77   1.413116 A    
Cu1   Cu2   2.660397 S    
C14   C30   1.405615 A    
C75   C88   1.434008 A    
O2    C2    1.286850 A    
C24   C26   1.395242 A    
C83   C89   1.436754 A    
C41   H19   1.076328 S    
C51   H29   1.081546 S    
C62   C78   1.413114 A    
H1    C68   1.080996 S    
C16   H4    1.083033 S    
C63   C81   1.414136 A    
Cu1   N6    1.998080 S    
C44   C46   1.398359 A    
C83   C86   1.437791 A    
C84   C85   1.437792 A    
O4    C2    1.282406 A    
C93   H43   1.107912 S    
O10   C63   1.349211 S    
C14   H13   1.083090 S    
N2    C20   1.432938 S    
C13   H14   1.083087 S    
C78   C80   1.392925 A    
C75   C77   1.407631 A    
C52   C54   1.397379 A    
C70   H36   1.080744 S    
C69   N5    1.363532 A    
C32   C36   1.422603 A    
C81   C92   1.390779 A    
C93   H42   1.110416 S    
C89   O17   1.387629 S    
O1    Cu1   1.962069 S    
O5    C3    1.291050 A    
O7    Cu2   1.948419 S    
C71   C73   1.404899 A    
N4    C74   1.454777 S    
C37   Cl1   1.768408 S    
C47   C49   1.404546 A    
O7    C3    1.291482 A    
C51   C53   1.397378 A    
O17   C93   1.416502 S    
O6    C4    1.291046 A    
C70   N6    1.363530 A    
C10   O13   1.349748 S    
C48   C50   1.404548 A    
H22   C54   1.082343 S    
C55   H31   1.085064 S    
C71   H37   1.082520 S    
C50   H28   1.083128 S    
C72   H38   1.082521 S    
C62   N4    1.372939 A    
C9    O14   1.349748 S    
O8    C4    1.291472 A    
C7    C23   1.403768 A    
C76   C78   1.407631 A    
C5    H9    1.071220 S    
C43   H23   1.081519 S    
C46   H26   1.083272 S    
C94   H46   1.107911 S    
C52   H30   1.081547 S    
C7    O11   1.349641 S    
C17   H5    1.082814 S    
C15   C29   1.405463 A    
C8    O12   1.349642 S    
C64   C82   1.414138 A    
C66   C68   1.401762 A    
H11   C66   1.082530 S    
C49   C51   1.398182 A    
C56   C58   1.398517 A    
C70   C72   1.400889 A    
C69   C71   1.400893 A    
C39   H17   1.083967 S    
C76   C87   1.434011 A    
C7    N1    1.367312 A    
C6    H10   1.071218 S    
C25   C41   1.388435 A    
C43   C53   1.397508 A    
C40   H18   1.083967 S    
C68   N6    1.363201 A    
C84   C88   1.427394 A    
C65   C73   1.405655 A    
C15   H3    1.083030 S    
O3    C1    1.282407 A    
O8    Cu1   1.948416 S    
C72   C74   1.404898 A    
H12   C65   1.082532 S    
C62   O16   1.349309 S    
O3    Cu2   1.959884 S    
N1    C9    1.367323 A    
C27   C40   1.394484 A    
N2    C10   1.367333 A    
C28   C39   1.394484 A    
C93   H41   1.115287 S    
N3    C63   1.372288 A    
C42   H20   1.076326 S    
H34   C92   1.081895 S    
C12   C14   1.393773 A    
C12   H15   1.082892 S    
C57   C59   1.412916 A    
H33   C91   1.081894 S    
C83   C87   1.427393 A    
C31   C37   1.429364 A    
C18   C20   1.400052 A    
C15   C17   1.394989 A    
C16   C18   1.394990 A    
C58   C60   1.412916 A    
C26   C42   1.388435 A    
C86   C88   1.428107 A    
C33   C42   1.412247 A    
O2    Cu2   1.962069 S    
N4    C64   1.372287 A    
C65   C67   1.401759 A    
C34   C41   1.412248 A    
C26   H8    1.083499 S    
O5    Cu1   1.950362 S    
C16   C30   1.405456 A    
Cu2   N5    1.998080 S    
C11   C13   1.393770 A    
C8    N2    1.367322 A    
C31   C34   1.422988 A    
C8    C24   1.403769 A    
C77   C79   1.392927 A    
C45   H25   1.083269 S    
C55   C57   1.398507 A    
C76   C82   1.402489 A    
C66   C74   1.405657 A    
C80   H40   1.083730 S    
C75   C81   1.402487 A    
C61   O15   1.349308 S    
C1    C58   1.447529 S    
