data_mof_unit_68389.cif
_audit_creation_date              2012-12-11T16:32:23-0500
_audit_creation_method            fapswitch 2.2
_symmetry_space_group_name_H-M    P1
_symmetry_Int_Tables_number       1
_space_group_crystal_system       triclinic
_cell_length_a                    7.011489
_cell_length_b                    14.525573
_cell_length_c                    16.09767
_cell_angle_alpha                 90.250722
_cell_angle_beta                  88.886618
_cell_angle_gamma                 90.06691
_cell_volume                      1639.15542595

loop_
_atom_site_label
_atom_site_type_symbol
_atom_type_description
_atom_site_fract_x
_atom_site_fract_y
_atom_site_fract_z
_atom_type_partial_charge
O1    O     O_R   0.361630 0.167340 0.164570 -0.526986
O2    O     O_R   0.638370 0.832660 0.835430 -0.535996
O3    O     O_R   0.690860 0.157560 0.338690 -0.538921
O4    O     O_R   0.309140 0.842440 0.661310 -0.538776
O5    O     O_R   0.861260 0.336420 0.339380 -0.542080
O6    O     O_R   0.138740 0.663580 0.660620 -0.535131
C1    C     C_R   0.521028 0.136289 0.369136 0.695541
C2    C     C_R   0.479002 0.866138 0.633182 0.686559
O7    O     O_R   0.691330 0.156310 0.165190 -0.544561
O8    O     O_R   0.308670 0.843690 0.834810 -0.535849
O9    O     O_R   0.861730 0.335160 0.164640 -0.559346
O10   O     O_R   0.138270 0.664840 0.835360 -0.523166
C3    C     C_R   0.522859 0.130843 0.139881 0.703671
C4    C     C_R   0.476958 0.866517 0.863457 0.693171
O11   O     O_R   0.361150 0.168600 0.339320 -0.542809
O12   O     O_R   0.638850 0.831400 0.660680 -0.539828
O13   O     O_3   0.527950 0.310560 0.252000 -0.380790
O14   O     O_3   0.472050 0.689440 0.748000 -0.386216
V1    V     V_3+5 0.802770 0.240990 0.251980 1.388866
V2    V     V_3+5 0.197230 0.759010 0.748020 1.408735
O15   O     O_R   0.191450 0.346190 0.165260 -0.513024
O16   O     O_R   0.808550 0.653810 0.834740 -0.548787
C5    C     C_R   0.025501 0.365901 0.134892 0.810057
C6    C     C_R   0.978254 0.625567 0.857981 0.852218
O17   O     O_R   0.190980 0.347440 0.338770 -0.535884
O18   O     O_R   0.809020 0.652560 0.661230 -0.545064
C7    C     C_R   0.020355 0.372592 0.364802 0.679207
C8    C     C_R   0.978456 0.632934 0.630436 0.681338
V3    V     V_3+5 0.302780 0.262760 0.251980 1.421536
V4    V     V_3+5 0.697220 0.737240 0.748020 1.377021
O19   O     O_3   0.027730 0.193200 0.251960 -0.371319
O20   O     O_3   0.972270 0.806800 0.748040 -0.370523
C9    C     C_3   0.974681 0.420463 0.523974 -0.133706
C10   C     C_3   0.019205 0.591798 0.465667 -0.156397
C11   C     C_3   0.137071 0.487663 0.547610 -0.121981
C12   C     C_3   0.857738 0.524064 0.441064 -0.137687
H1    H     H_    0.262418 0.475257 0.586277 0.095118
H2    H     H_    0.741474 0.538604 0.397162 0.094108
H3    H     H_    0.942471 0.350206 0.546319 0.114449
H4    H     H_    0.039407 0.663277 0.443523 0.112075
C13   C     C_3   0.989578 0.565661 0.557667 -0.014929
C14   C     C_3   0.005716 0.445748 0.432200 -0.018459
C15   C     C_3   0.827431 0.499218 0.533843 -0.107887
C16   C     C_3   0.166698 0.512945 0.455230 -0.122116
H5    H     H_    0.687040 0.493075 0.566508 0.098844
H6    H     H_    0.307315 0.518961 0.422751 0.103359
C17   C     C_R   0.934246 0.681036 0.033633 0.200781
C18   C     C_R   0.039716 0.297569 0.958487 0.222487
C19   C     C_R   0.928276 0.706407 0.117156 -0.221281
C20   C     C_R   0.065816 0.268645 0.875843 -0.225011
C21   C     C_R   0.002964 0.649653 0.177811 0.230259
C22   C     C_R   0.082531 0.329964 0.810475 0.237825
C23   C     C_R   0.072279 0.562794 0.155128 0.189599
C24   C     C_R   0.075609 0.425459 0.827997 0.205976
C25   C     C_R   0.028464 0.525764 0.075704 -0.047653
C26   C     C_R   0.033861 0.459610 0.910199 -0.055472
C27   C     C_R   0.981896 0.587900 0.010843 -0.037288
C28   C     C_R   0.029752 0.394627 0.977531 -0.060161
C29   C     C_R   0.026090 0.429073 0.061318 -0.135239
C30   C     C_R   0.992108 0.555963 0.926749 -0.140635
C31   C     C_3   0.321538 0.024462 0.478539 -0.169923
C32   C     C_3   0.676662 0.982262 0.528525 -0.210136
C33   C     C_3   0.412710 0.926273 0.475153 -0.255902
C34   C     C_3   0.585589 0.080445 0.531582 -0.250292
H7    H     H_    0.343226 0.862615 0.452377 0.109642
H8    H     H_    0.654343 0.144252 0.554421 0.117685
H9    H     H_    0.176263 0.045769 0.461831 0.113889
H10   H     H_    0.822952 0.961720 0.544782 0.126169
C35   C     C_3   0.490171 0.939116 0.564089 -0.096890
C36   C     C_3   0.508935 0.067016 0.441994 -0.072125
C37   C     C_3   0.400686 0.035688 0.566800 0.371315
C38   C     C_3   0.598018 0.970548 0.440605 0.360808
C39   C     C_R   0.557107 0.187004 0.971823 -0.213837
C40   C     C_R   0.428689 0.811608 0.037055 -0.254041
C41   C     C_R   0.601675 0.217650 0.893266 -0.119351
C42   C     C_R   0.422715 0.781080 0.118830 -0.139911
C43   C     C_R   0.615594 0.155842 0.826449 0.348541
C44   C     C_R   0.457497 0.841525 0.184695 0.345764
C45   C     C_R   0.579179 0.061819 0.840028 -0.246957
C46   C     C_R   0.482442 0.934789 0.167929 -0.224202
C47   C     C_R   0.533755 0.028762 0.920309 0.017595
C48   C     C_R   0.486691 0.967915 0.085782 0.008362
C49   C     C_R   0.535560 0.092581 0.987956 0.044588
C50   C     C_R   0.465704 0.904628 0.018327 0.059329
C51   C     C_R   0.487588 0.934563 0.934518 -0.156278
C52   C     C_R   0.514707 0.062485 0.070453 -0.147748
H11   H     H_    0.545374 0.238695 0.020254 0.120136
H12   H     H_    0.401759 0.761546 0.988651 0.123985
H13   H     H_    0.628660 0.290510 0.886104 0.119746
H14   H     H_    0.385972 0.710718 0.130022 0.144869
H15   H     H_    0.590102 0.014804 0.787861 0.094272
H16   H     H_    0.503127 0.980780 0.220130 0.127590
N1    N     N_2   0.295522 0.070352 0.638414 -0.543699
H17   H     H_    0.363551 0.058481 0.693290 0.244021
C53   C     C_3   0.094801 0.048366 0.642878 -0.560825
H18   H     H_    0.018678 0.085763 0.593570 0.198185
H19   H     H_    0.034151 0.070522 0.703949 0.195998
H20   H     H_    0.072701 0.973108 0.636570 0.213149
N2    N     N_2   0.709839 0.931867 0.373281 -0.528488
H21   H     H_    0.713196 0.861427 0.378418 0.269073
C54   C     C_3   0.898682 0.970566 0.361370 -0.555674
H22   H     H_    0.002446 0.931430 0.398413 0.166150
H23   H     H_    0.905754 0.043255 0.381511 0.220270
H24   H     H_    0.940538 0.966839 0.294638 0.207317
N3    N     N_2   0.461395 0.812159 0.268938 -0.525887
H25   H     H_    0.384049 0.851088 0.311135 0.260175
C55   C     C_3   0.496632 0.717133 0.289958 -0.607444
H26   H     H_    0.544967 0.713036 0.355082 0.190300
H27   H     H_    0.609804 0.687652 0.248973 0.210143
H28   H     H_    0.364627 0.676509 0.284963 0.251446
N4    N     N_2   0.667176 0.187449 0.745531 -0.551920
H29   H     H_    0.654303 0.141044 0.697546 0.253863
C56   C     C_3   0.628960 0.282929 0.726286 -0.618041
H30   H     H_    0.625278 0.293544 0.658037 0.204259
H31   H     H_    0.732816 0.330316 0.753498 0.226300
H32   H     H_    0.496113 0.303128 0.757904 0.208690
N5    N     N_2   0.056087 0.294850 0.727708 -0.526355
H33   H     H_    0.989075 0.232107 0.727686 0.305528
C57   C     C_3   0.211749 0.287694 0.668850 -0.589467
H34   H     H_    0.157614 0.269221 0.606929 0.206357
H35   H     H_    0.301121 0.229035 0.685891 0.257091
H36   H     H_    0.292215 0.352289 0.663288 0.206427
N6    N     N_2   0.009687 0.677821 0.262355 -0.537871
H37   H     H_    0.932343 0.636085 0.301988 0.248686
C58   C     C_3   0.998971 0.774467 0.281763 -0.593442
H38   H     H_    0.038426 0.785237 0.347333 0.198423
H39   H     H_    0.853223 0.799459 0.271350 0.238225
H40   H     H_    0.096894 0.814368 0.241089 0.225559
N7    N     N_2   0.871270 0.746712 0.974850 -0.505644
H41   H     H_    0.728744 0.740233 0.962763 0.266549
C59   C     C_3   0.935594 0.841261 0.982598 -0.480367
H42   H     H_    0.917501 0.877717 0.922982 0.213659
H43   H     H_    0.087853 0.843769 0.997179 0.202645
H44   H     H_    0.853217 0.878306 0.031727 0.175560
N8    N     N_2   0.001938 0.229553 0.020942 -0.506821
H45   H     H_    0.869818 0.237898 0.048056 0.266554
C60   C     C_3   0.041233 0.132966 0.005572 -0.507109
H46   H     H_    0.039531 0.095257 0.065418 0.207511
H47   H     H_    0.181981 0.124151 0.975389 0.207980
H48   H     H_    0.931645 0.102447 0.965014 0.184893
H49   H     H_    0.869644 0.772646 0.133987 0.163406
H50   H     H_    0.062554 0.196288 0.860032 0.148317
N9    N     N_2   0.202332 0.517618 0.208712 -0.516316
H51   H     H_    0.193805 0.534919 0.270739 0.250547
C61   C     C_3   0.397645 0.510474 0.177436 -0.462975
H52   H     H_    0.405135 0.473136 0.117154 0.199817
H53   H     H_    0.485417 0.474111 0.223249 0.199548
H54   H     H_    0.462742 0.578349 0.168377 0.147278
N10   N     N_2   0.132725 0.486463 0.764269 -0.541891
H55   H     H_    0.079013 0.469328 0.707460 0.265416
C62   C     C_3   0.336181 0.504108 0.763351 -0.441698
H56   H     H_    0.379017 0.540133 0.705628 0.198190
H57   H     H_    0.418475 0.440420 0.764965 0.138404
H58   H     H_    0.377223 0.543619 0.819301 0.211494

loop_
_geom_bond_atom_site_label_1
_geom_bond_atom_site_label_2
_ccdc_geom_bond_type
C31   C36   S    
C33   H7    S    
N1    H17   S    
C25   C29   A    
C39   C41   A    
C18   N8    S    
C12   C14   S    
C53   H18   S    
O4    C2    A    
C59   H44   S    
V1    O19   S    
C1    C36   S    
C61   H52   S    
C53   H20   S    
N6    H37   S    
C17   C19   A    
C5    C29   S    
N3    C55   S    
O9    V1    S    
C2    C35   S    
C9    H3    S    
C40   C42   A    
N3    H25   S    
C17   N7    S    
C44   N3    S    
C10   H4    S    
C9    C14   S    
C11   H1    S    
C42   C44   A    
C56   H30   S    
O3    C1    A    
N5    C57   S    
C9    C11   S    
C44   C46   A    
C62   H58   S    
O12   V4    S    
N9    H51   S    
C8    C13   S    
O13   V3    S    
C43   N4    S    
C2    O12   A    
C34   C37   S    
C35   C37   S    
O7    C3    A    
C39   H11   S    
C32   C34   S    
C47   C49   A    
O5    C7    A    
O7    V1    S    
O6    C8    A    
C33   C35   S    
C16   H6    S    
C19   C21   A    
C19   H49   S    
C3    C52   S    
C58   H40   S    
C20   C22   A    
C55   H26   S    
O3    V1    S    
O14   V4    S    
C34   C36   S    
C45   H15   S    
C56   H32   S    
C22   N5    S    
C31   C37   S    
C18   C20   A    
C62   H56   S    
C54   H23   S    
N8    C60   S    
C13   C15   S    
N10   C62   S    
C10   C13   S    
C14   C16   S    
C11   C13   S    
C61   H53   S    
C22   C24   A    
O11   V3    S    
C24   N10   S    
C57   H35   S    
O17   V3    S    
C60   H48   S    
C24   C26   A    
C9    C15   S    
C54   H22   S    
N8    H45   S    
C10   C16   S    
C50   C51   A    
C46   C48   A    
O8    C4    A    
O8    V2    S    
C45   C47   A    
C27   C30   A    
C1    O11   A    
C28   C29   A    
C48   C52   A    
O15   V3    S    
C26   C30   A    
C32   C35   S    
C56   H31   S    
C21   C23   A    
C34   H8    S    
C46   H16   S    
C17   C27   A    
C60   H47   S    
C31   H9    S    
N2    H21   S    
C6    C30   S    
O10   V2    S    
O1    V3    S    
C43   C45   A    
C32   C38   S    
N4    C56   S    
C11   C16   S    
C15   H5    S    
O5    V1    S    
N2    C54   S    
O18   V4    S    
C54   H24   S    
C48   C50   A    
C25   C27   A    
C58   H38   S    
C55   H28   S    
O16   C6    A    
O1    C3    A    
C23   C25   A    
C59   H42   S    
C61   H54   S    
N7    H41   S    
V2    O20   S    
C57   H36   S    
N9    C61   S    
O16   V4    S    
N4    H29   S    
C31   C33   S    
C4    C51   S    
C40   C50   A    
C59   H43   S    
C57   H34   S    
C53   H19   S    
C18   C28   A    
C37   N1    S    
O17   C7    A    
O6    V2    S    
C60   H46   S    
O10   C6    A    
O18   C8    A    
C32   H10   S    
O2    V4    S    
C40   H12   S    
O15   C5    A    
V3    O19   S    
N5    H33   S    
C12   H2    S    
V4    O20   S    
C7    C14   S    
C55   H27   S    
O9    C5    A    
O13   V1    S    
C10   C12   S    
C26   C28   A    
O14   V2    S    
C62   H57   S    
C21   N6    S    
O2    C4    A    
N6    C58   S    
C41   H13   S    
O4    V2    S    
C49   C52   A    
C33   C38   S    
N1    C53   S    
C41   C43   A    
C58   H39   S    
C12   C15   S    
C36   C38   S    
C23   N9    S    
N10   H55   S    
C39   C49   A    
C47   C51   A    
C20   H50   S    
C42   H14   S    
N7    C59   S    
C38   N2    S    
