data_mof_unit_9365.cif
_audit_creation_date              2013-03-05T15:41:44-0500
_audit_creation_method            fapswitch 2.2
_symmetry_space_group_name_H-M    P1
_symmetry_Int_Tables_number       1
_space_group_crystal_system       triclinic
_cell_length_a                    6.941924
_cell_length_b                    13.730807
_cell_length_c                    20.453016
_cell_angle_alpha                 102.415741
_cell_angle_beta                  89.72745
_cell_angle_gamma                 90.678135
_cell_volume                      1903.81328253

loop_
_atom_site_label
_atom_site_type_symbol
_atom_site_description
_atom_site_fract_x
_atom_site_fract_y
_atom_site_fract_z
_atom_type_partial_charge
O1    O     O_R   0.506860 0.599390 0.449240 -0.571899
O2    O     O_R   0.180220 0.594600 0.586780 -0.573539
O3    O     O_R   0.004500 0.400610 0.550760 -0.556399
C1    C     C_R   0.348836 0.615843 0.613541 0.847638
O4    O     O_R   0.177490 0.611290 0.451970 -0.535156
O5    O     O_R   0.001750 0.417420 0.414990 -0.529382
C2    C     C_R   0.347440 0.636830 0.434618 0.834212
O6    O     O_R   0.509610 0.582580 0.585010 -0.540085
O7    O     O_3   0.337420 0.436370 0.488020 -0.249933
V1    V     V_3+5 0.064680 0.511800 0.502220 1.212666
O8    O     O_R   0.671710 0.405400 0.413220 -0.561371
C3    C     C_R   0.841271 0.380246 0.387696 0.866084
O9    O     O_R   0.674440 0.388710 0.548030 -0.551491
C4    C     C_R   0.842863 0.363800 0.565948 0.875254
V2    V     V_3+5 0.564010 0.488200 0.497780 1.211280
O10   O     O_3   0.841140 0.563630 0.511980 -0.277698
C5    C     C_R   0.962544 0.126366 0.617063 -0.043341
H1    H     H_    0.983474 0.181713 0.527238 0.093512
H2    H     H_    0.985087 0.999438 0.697288 0.072066
H3    H     H_    0.019412 0.054285 0.593055 0.079349
C6    C     C_R   0.855492 0.289457 0.607569 -0.129591
C7    C     C_R   0.842614 0.314331 0.930909 -0.092990
C8    C     C_R   0.841287 0.390844 0.896197 -0.052971
C9    C     C_R   0.850016 0.369296 0.826506 -0.031427
C10   C     C_R   0.853472 0.269636 0.789343 0.069053
C11   C     C_R   0.873166 0.192413 0.825540 0.014647
C12   C     C_R   0.855849 0.244827 0.717569 0.016399
C13   C     C_R   0.919821 0.148226 0.685500 0.070183
C14   C     C_R   0.943020 0.074137 0.722017 -0.086888
C15   C     C_R   0.911878 0.094716 0.790598 -0.092933
C16   C     C_R   0.802018 0.311745 0.676098 -0.070232
C17   C     C_R   0.939911 0.198250 0.579379 -0.086919
C18   C     C_R   0.861655 0.215449 0.896347 -0.082549
H4    H     H_    0.834848 0.332465 0.985102 0.062054
H5    H     H_    0.863819 0.432153 0.803001 0.070965
H6    H     H_    0.836216 0.467625 0.923514 0.070835
H7    H     H_    0.929186 0.034347 0.816443 0.066654
C19   C     C_2   0.011615 0.264807 0.290966 -0.109866
C20   C     C_2   0.848792 0.302917 0.323805 -0.310254
H8    H     H_    0.711397 0.272815 0.303678 0.134259
C21   C     C_2   0.005648 0.187217 0.226911 0.360994
C22   C     C_2   0.865478 0.183821 0.180420 -0.195307
H9    H     H_    0.745590 0.234980 0.190108 0.081448
C23   C     C_2   0.204686 0.790141 0.782741 -0.097962
C24   C     C_2   0.364038 0.815581 0.819964 -0.205874
H10   H     H_    0.066853 0.819999 0.802395 0.096900
H11   H     H_    0.502760 0.786128 0.801631 0.077372
C25   C     C_2   0.202681 0.721722 0.715237 -0.098124
C26   C     C_2   0.360702 0.683715 0.680376 -0.191050
H12   H     H_    0.061331 0.702850 0.693295 0.116005
H13   H     H_    0.503882 0.701985 0.700353 0.090287
C27   C     C_R   0.537506 0.860671 0.380348 0.015928
H14   H     H_    0.517538 0.809647 0.472195 0.093978
C28   C     C_R   0.364596 0.712177 0.393678 -0.125655
C29   C     C_R   0.222115 0.705134 0.076969 -0.092683
C30   C     C_R   0.128728 0.651388 0.117912 -0.040388
C31   C     C_R   0.161766 0.674241 0.186447 -0.015155
C32   C     C_R   0.305899 0.744152 0.215187 0.066816
C33   C     C_R   0.385266 0.806045 0.174157 0.009977
C34   C     C_R   0.362505 0.759416 0.284172 0.017285
C35   C     C_R   0.471448 0.847357 0.313087 -0.023483
C36   C     C_R   0.514702 0.917935 0.273450 -0.008679
C37   C     C_R   0.487461 0.892406 0.204360 -0.049487
C38   C     C_R   0.322561 0.688391 0.324692 -0.051052
C39   C     C_R   0.469070 0.798159 0.420680 -0.115137
C40   C     C_R   0.341453 0.786225 0.104733 -0.096949
H15   H     H_    0.184624 0.690418 0.024331 0.058163
H16   H     H_    0.065334 0.639548 0.216175 0.085982
H17   H     H_    0.022084 0.595311 0.096928 0.074816
H18   H     H_    0.533291 0.945350 0.174986 0.130527
O11   O     O_R   0.203230 0.917310 0.915020 -0.569437
O12   O     O_R   0.535500 0.888690 0.048040 -0.574438
O13   O     O_R   0.711080 0.082610 0.085000 -0.542250
C41   C     C_R   0.364952 0.862676 0.065023 0.845196
O14   O     O_R   0.532630 0.905370 0.913230 -0.571511
O15   O     O_R   0.708190 0.099410 0.949230 -0.564224
C42   C     C_R   0.364560 0.884132 0.886528 0.826228
O16   O     O_R   0.206120 0.900510 0.050790 -0.537936
O17   O     O_3   0.375360 0.063570 0.011990 -0.259421
V3    V     V_3+5 0.648170 0.988200 0.997780 1.169301
O18   O     O_R   0.038240 0.111390 0.951940 -0.570949
C43   C     C_R   0.869953 0.137736 0.935334 0.805145
O19   O     O_R   0.041120 0.094710 0.086750 -0.526325
C44   C     C_R   0.872819 0.114678 0.113879 0.889983
V4    V     V_3+5 0.148810 0.011930 0.002180 1.197310
O20   O     O_3   0.871750 0.936430 0.988010 -0.288793
N1    N     N_R   0.153675 0.112961 0.215758 0.088869
O21   O     O_R   0.330631 0.137380 0.204737 -0.360994
O22   O     O_R   0.107945 0.019522 0.211044 -0.357848
C45   C     C_2   0.569363 0.022914 0.302813 0.966955
O23   O     O_2   0.689596 0.065518 0.275000 -0.594049
O24   O     O_R   0.480264 0.073801 0.361523 -0.716522
H19   H     H_    0.534065 0.143810 0.377441 0.332351
C46   C     C_2   0.701988 0.926586 0.407737 0.875056
O25   O     O_2   0.844278 0.931810 0.373065 -0.590539
O26   O     O_R   0.698268 0.978587 0.474405 -0.744343
H20   H     H_    0.820597 0.018745 0.487384 0.308986
C47   C     C_2   0.269208 0.583623 0.294884 0.826319
O27   O     O_2   0.372544 0.533870 0.252111 -0.583432
O28   O     O_R   0.096198 0.544023 0.313491 -0.742723
H21   H     H_    0.064586 0.476166 0.284649 0.310507
C48   C     C_2   0.669812 0.396288 0.700753 0.830847
O29   O     O_2   0.704317 0.478758 0.689593 -0.627250
O30   O     O_R   0.506187 0.381176 0.737627 -0.751161
H22   H     H_    0.427337 0.443897 0.751903 0.307102
C49   C     C_2   0.205576 0.294684 0.317825 0.962603
O31   O     O_2   0.257007 0.275392 0.370656 -0.568211
O32   O     O_R   0.331234 0.342078 0.280940 -0.719118
H23   H     H_    0.450889 0.368944 0.306902 0.319026

loop_
_geom_bond_atom_site_label_1
_geom_bond_atom_site_label_2
_geom_bond_distance
_ccdc_geom_bond_type
C29   C30   1.383967 A    
C21   C22   1.357137 D    
O11   C42   1.301191 A    
C1    O6    1.298475 A    
O18   C43   1.295224 A    
C31   C32   1.417162 A    
C28   C39   1.388522 A    
V4    O20   2.164902 S    
C30   C31   1.388581 A    
C6    C16   1.417501 A    
C36   C37   1.394073 A    
C49   O32   1.394610 S    
C4    C6    1.466585 S    
C13   C14   1.396580 A    
C27   C35   1.425520 A    
C33   C40   1.420836 A    
O5    C3    1.297371 A    
C19   C20   1.363156 D    
C49   O31   1.222381 D    
C32   C34   1.437105 A    
V2    O10   2.164931 S    
C8    H6    1.082720 S    
C5    H3    1.083955 S    
O32   H23   1.010303 S    
O28   H21   1.012088 S    
V3    O20   1.707703 S    
O11   V4    2.004473 S    
O8    V2    2.001259 S    
C26   H13   1.082449 S    
C8    C9    1.393268 A    
C27   C46   1.483342 S    
O1    V2    2.035628 S    
H14   C39   1.085755 S    
O14   V3    2.018211 S    
O13   C44   1.298526 A    
C46   O26   1.396862 S    
C38   C47   1.480095 S    
O9    C4    1.298353 A    
C48   O29   1.223091 D    
C7    H4    1.083765 S    
O30   H22   1.013944 S    
C23   H10   1.086255 S    
C24   H11   1.082630 S    
C21   N1    1.438796 S    
C6    C17   1.395676 A    
C9    H5    1.077603 S    
C12   C16   1.431647 A    
C16   C48   1.487702 S    
C22   C44   1.483588 S    
C9    C10   1.415702 A    
C19   C21   1.500808 S    
O12   C41   1.299754 A    
O15   C43   1.290745 A    
C20   H8    1.082243 S    
O4    C2    1.296362 A    
C32   C33   1.421687 A    
C15   H7    1.082743 S    
C34   C35   1.433642 A    
C19   C49   1.476514 S    
O2    C1    1.297745 A    
C14   C15   1.386447 A    
C40   C41   1.466114 S    
C11   C18   1.416438 A    
C45   O24   1.398235 S    
O19   C44   1.297713 A    
C37   H18   1.082187 S    
O26   H20   1.011816 S    
C46   O25   1.223628 D    
C48   O30   1.398437 S    
O14   C42   1.293867 A    
O3    C4    1.289095 A    
O16   V4    2.039494 S    
C25   C26   1.352845 D    
O19   V4    2.001277 S    
C47   O27   1.222799 D    
O6    V2    2.004008 S    
C47   O28   1.397190 S    
O9    V2    2.036211 S    
H1    C17   1.083853 S    
C22   H9    1.085256 S    
C31   H16   1.076049 S    
H2    C14   1.084304 S    
O17   V4    1.712254 S    
C29   C40   1.399746 A    
C23   C24   1.345304 D    
O7    V1    2.157229 S    
C7    C18   1.396876 A    
O1    C2    1.288873 A    
C5    C13   1.398137 A    
O15   V3    2.030862 S    
O5    V1    2.013237 S    
C29   H15   1.084232 S    
O8    C3    1.305212 A    
C11   C15   1.406026 A    
C10   C12   1.433942 A    
C33   C37   1.400110 A    
C1    C26   1.481667 S    
C34   C38   1.433100 A    
C3    C20   1.497250 S    
N1    O22   1.301382 A    
C10   C11   1.425844 A    
O4    V1    2.026450 S    
O12   V3    2.026430 S    
O3    V1    2.030710 S    
V1    O10   1.707776 S    
C45   O23   1.220440 D    
C28   C38   1.409317 A    
C36   C45   1.483034 S    
C25   H12   1.086067 S    
O24   H19   1.013721 S    
O13   V3    2.013240 S    
O7    V2    1.713464 S    
C35   C36   1.419570 A    
C18   C43   1.464771 S    
O17   V3    2.157283 S    
N1    O21   1.300900 A    
C30   H17   1.082859 S    
C41   O16   1.285298 A    
C12   C13   1.422630 A    
C5    C17   1.387421 A    
C7    C8    1.388850 A    
C24   C42   1.479334 S    
C2    C28   1.467752 S    
O18   V4    2.036130 S    
C27   C39   1.390703 A    
C23   C25   1.493690 S    
O2    V1    2.018208 S    
