data_mof_unit_11021.cif
_audit_creation_date              2012-10-26T19:57:52-0400
_audit_creation_method            fapswitch 2.2
_symmetry_space_group_name_H-M    P1
_symmetry_Int_Tables_number       1
_space_group_crystal_system       triclinic
_cell_length_a                    7.459555
_cell_length_b                    8.704135
_cell_length_c                    12.966975
_cell_angle_alpha                 88.190121
_cell_angle_beta                  79.341219
_cell_angle_gamma                 102.81985
_cell_volume                      804.460351542

loop_
_atom_site_label
_atom_site_type_symbol
_atom_type_description
_atom_site_fract_x
_atom_site_fract_y
_atom_site_fract_z
_atom_type_partial_charge
C1    C     C_R   0.452831 0.199712 0.503156 0.550224
C2    C     C_R   0.724875 0.591742 0.121815 -0.120486
C3    C     C_R   0.601844 0.550884 0.858490 -0.148129
C4    C     C_R   0.398298 0.456914 0.141332 -0.146329
C5    C     C_R   0.587627 0.543938 0.967476 0.029283
C6    C     C_R   0.411211 0.470201 0.032846 0.040369
C7    C     C_2   0.426276 0.031939 0.504685 -0.158976
C8    C     C_2   0.573762 0.968075 0.495130 -0.159172
C9    C     C_3   0.057070 0.341738 0.051938 -0.282470
C10   C     C_3   0.030730 0.166128 0.079686 -0.442253
C11   C     C_3   0.931796 0.696487 0.943056 -0.282486
C12   C     C_R   0.547184 0.800295 0.496765 0.549369
C13   C     C_3   0.088911 0.769225 0.000225 -0.447770
C14   C     C_R   0.466587 0.495372 0.701256 0.546933
C15   C     C_R   0.533497 0.505589 0.298739 0.544829
C16   C     C_R   0.553111 0.516852 0.185221 -0.023209
C17   C     C_R   0.446969 0.489299 0.814745 -0.015424
C18   C     C_R   0.252069 0.411924 0.987810 0.007106
C19   C     C_R   0.745633 0.608696 0.012301 0.002336
C20   C     C_R   0.273253 0.422035 0.878785 -0.125133
Cu1   Cu    Cu3+1 0.686350 0.517570 0.488220 0.945583
Cu2   Cu    Cu3+1 0.313650 0.482430 0.511780 0.946423
H1    H     H_    0.269097 0.397447 0.193237 0.134400
H2    H     H_    0.137176 0.144487 0.124450 0.153289
H3    H     H_    0.888792 0.117901 0.128241 0.146478
H4    H     H_    0.026744 0.404492 0.123927 0.143977
H5    H     H_    0.948986 0.355992 0.006098 0.152532
H6    H     H_    0.042029 0.850907 0.057318 0.142506
H7    H     H_    0.133480 0.676835 0.042908 0.158307
H8    H     H_    0.212263 0.836339 0.942090 0.150004
H9    H     H_    0.985273 0.614065 0.888226 0.147528
H10   H     H_    0.905134 0.794655 0.895611 0.145264
H11   H     H_    0.733099 0.604245 0.806065 0.124713
H12   H     H_    0.841052 0.638115 0.159468 0.133207
H13   H     H_    0.153356 0.375105 0.843592 0.124972
H14   H     H_    0.933983 0.376869 0.583028 0.237202
H15   H     H_    0.066013 0.623113 0.416956 0.236553
H16   H     H_    0.283987 0.960545 0.513727 0.132898
H17   H     H_    0.716055 0.039470 0.486070 0.133126
H18   H     H_    0.043835 0.104586 0.005943 0.153219
N1    N     N_2   0.033570 0.455950 0.529530 -0.259581
N2    N     N_2   0.966430 0.544050 0.470470 -0.259869
O1    O     O_R   0.621060 0.286250 0.492350 -0.502623
O2    O     O_R   0.378940 0.713750 0.507650 -0.503162
O3    O     O_R   0.306310 0.256580 0.512240 -0.499403
O4    O     O_R   0.693690 0.743420 0.487760 -0.500109
O5    O     O_R   0.631800 0.512400 0.642670 -0.509517
O6    O     O_R   0.368200 0.487600 0.357330 -0.509597
O7    O     O_R   0.317060 0.482730 0.662570 -0.508059
O8    O     O_R   0.682940 0.517270 0.337430 -0.508873

loop_
_geom_bond_atom_site_label_1
_geom_bond_atom_site_label_2
_ccdc_geom_bond_type
C4    C16   A    
Cu2   O6    S    
C13   H6    S    
C14   O5    A    
C5    C19   A    
C8    H17   S    
C9    H4    S    
C2    C16   A    
C9    C10   S    
C13   H8    S    
C8    C12   S    
C11   C19   S    
C2    H12   S    
C11   H9    S    
C7    C8    D    
C12   O2    A    
Cu1   O4    S    
Cu1   O1    S    
Cu1   Cu2   S    
C11   C13   S    
C14   C17   S    
C1    O3    A    
H14   N1    S    
C15   O6    A    
Cu2   O7    S    
C10   H3    S    
C13   H7    S    
Cu1   O8    S    
C7    H16   S    
C11   H10   S    
C3    C17   A    
C18   C20   A    
C5    C6    A    
C6    C18   A    
Cu1   O5    S    
Cu2   N1    S    
C3    H11   S    
C4    C6    A    
C15   C16   S    
C14   O7    A    
C9    C18   S    
C17   C20   A    
C9    H5    S    
C10   H18   S    
Cu2   O3    S    
N1    N2    D    
C15   O8    A    
H15   N2    S    
C4    H1    S    
C10   H2    S    
C2    C19   A    
C1    C7    S    
C20   H13   S    
C1    O1    A    
Cu2   O2    S    
Cu1   N2    S    
C3    C5    A    
C12   O4    A    
