data_mof_unit_27812.cif
_audit_creation_date              2012-12-11T15:44:49-0500
_audit_creation_method            fapswitch 2.2
_symmetry_space_group_name_H-M    P1
_symmetry_Int_Tables_number       1
_space_group_crystal_system       triclinic
_cell_length_a                    19.057886
_cell_length_b                    10.926384
_cell_length_c                    18.760382
_cell_angle_alpha                 89.571329
_cell_angle_beta                  90.412006
_cell_angle_gamma                 89.884101
_cell_volume                      3906.32651327

loop_
_atom_site_label
_atom_site_type_symbol
_atom_type_description
_atom_site_fract_x
_atom_site_fract_y
_atom_site_fract_z
_atom_type_partial_charge
C1    C     C_R   0.760665 0.534841 0.646828 0.532266
C2    C     C_R   0.218633 0.971261 0.527007 -0.141882
C3    C     C_R   0.501429 0.948432 0.961964 0.059478
C4    C     C_R   0.045997 0.244385 0.948554 -0.172385
C5    C     C_R   0.067473 0.246627 0.020712 -0.162625
C6    C     C_R   0.546005 0.744386 0.948550 -0.172502
C7    C     C_R   0.567479 0.746627 0.020709 -0.162768
C8    C     C_3   0.961555 0.529558 0.052347 -0.260124
C9    C     C_3   0.938896 0.526600 0.975092 -0.249742
C10   C     C_3   0.461568 0.029568 0.052341 -0.260339
C11   C     C_3   0.438910 0.026609 0.975087 -0.249616
C12   C     C_R   0.760404 0.531440 0.852506 0.539998
C13   C     C_R   0.324250 0.603822 0.445593 -0.159047
C14   C     C_R   0.238639 0.532213 0.147418 0.539987
C15   C     C_R   0.260407 0.031432 0.852510 0.541623
C16   C     C_R   0.738638 0.032211 0.147416 0.541675
C17   C     C_R   0.773272 0.126255 0.853263 0.554751
C18   C     C_R   0.227981 0.127099 0.146754 0.533811
C19   C     C_R   0.273273 0.626259 0.853265 0.555196
C20   C     C_R   0.727981 0.627098 0.146755 0.541331
C21   C     C_R   0.971954 0.346721 0.852456 0.543566
C22   C     C_R   0.063804 0.351672 0.139632 0.562602
C23   C     C_R   0.471959 0.846721 0.852453 0.541234
C24   C     C_R   0.779371 0.506359 0.520524 -0.124327
C25   C     C_R   0.563806 0.851672 0.139632 0.564114
C26   C     C_R   0.760240 0.107373 0.416338 0.004135
C27   C     C_R   0.254872 0.055895 0.570024 0.026294
C28   C     C_R   0.255412 0.602723 0.417916 0.011746
C29   C     C_R   0.751907 0.578468 0.575333 0.034302
C30   C     C_R   0.712401 0.179003 0.453705 0.011555
C31   C     C_R   0.294407 0.147008 0.538439 0.028566
C32   C     C_R   0.201488 0.646946 0.460494 -0.001755
C33   C     C_R   0.703649 0.670267 0.559159 0.010164
C34   C     C_R   0.723924 0.205331 0.525107 0.021414
C35   C     C_3   0.635566 0.164217 0.464144 -0.255270
C36   C     C_R   0.289369 0.164183 0.465749 0.021521
C37   C     C_R   0.213349 0.671147 0.531549 0.004470
C38   C     C_R   0.690288 0.700992 0.488700 0.012699
C39   C     C_1   0.630381 0.106514 0.910841 0.188118
C40   C     C_1   0.343844 0.252256 0.062833 0.223920
C41   C     C_1   0.130381 0.606522 0.910849 0.188530
C42   C     C_1   0.843838 0.752268 0.062826 0.223765
C43   C     C_3   0.291373 0.280934 0.553059 -0.279243
C44   C     C_3   0.130239 0.596465 0.474970 -0.251307
C45   C     C_3   0.704656 0.801162 0.581380 -0.278221
C46   C     C_3   0.648530 0.189654 0.542627 -0.260469
C47   C     C_3   0.285051 0.300107 0.473417 -0.239118
C48   C     C_3   0.143371 0.623936 0.553166 -0.268865
C49   C     C_R   0.239535 0.534803 0.353412 0.534402
C50   C     C_3   0.690242 0.834437 0.504090 -0.281035
C51   C     C_R   0.783770 0.162919 0.561286 -0.001935
C52   C     C_R   0.249169 0.085582 0.423024 0.016891
C53   C     C_R   0.279337 0.653667 0.562668 0.015908
C54   C     C_R   0.723340 0.638478 0.433796 0.031548
C55   C     C_R   0.989451 0.328413 0.420224 -0.041823
C56   C     C_R   0.993695 0.348209 0.570037 -0.039174
C57   C     C_R   0.492378 0.831056 0.422461 -0.043490
C58   C     C_R   0.499213 0.846716 0.572601 -0.043924
C59   C     C_R   0.010276 0.104911 0.433367 -0.077651
C60   C     C_R   0.261677 0.029121 0.644507 0.536000
C61   C     C_R   0.035490 0.134480 0.578429 -0.091251
C62   C     C_R   0.509276 0.606096 0.433726 -0.086446
C63   C     C_R   0.533356 0.629918 0.579420 -0.084875
C64   C     C_R   0.030367 0.004799 0.475289 -0.135557
C65   C     C_R   0.044545 0.020201 0.547368 -0.126205
C66   C     C_R   0.526802 0.503865 0.474962 -0.130505
C67   C     C_R   0.540048 0.516276 0.547438 -0.118096
C68   C     C_R   0.010896 0.235640 0.537748 -0.010275
C69   C     C_R   0.003683 0.223180 0.463040 0.009938
C70   C     C_R   0.512391 0.733788 0.539305 -0.010888
C71   C     C_R   0.740165 0.035683 0.353360 0.529884
C72   C     C_R   0.504902 0.723888 0.464345 0.002777
C73   C     C_R   0.977077 0.452765 0.525644 0.010489
C74   C     C_R   0.965191 0.435660 0.452341 -0.000401
C75   C     C_R   0.488784 0.953862 0.529391 0.010725
C76   C     C_R   0.473758 0.940598 0.456469 0.005533
C77   C     C_R   0.791908 0.173268 0.638909 0.561593
C78   C     C_R   0.227016 0.125549 0.353674 0.545623
C79   C     C_R   0.290894 0.670851 0.638717 0.561301
C80   C     C_R   0.708537 0.670805 0.361030 0.561602
C81   C     C_R   0.972446 0.575358 0.550844 -0.076055
C82   C     C_R   0.838154 0.114032 0.520184 -0.166026
C83   C     C_R   0.934411 0.530545 0.410840 -0.086993
C84   C     C_R   0.492671 0.075003 0.556244 -0.076080
C85   C     C_R   0.447204 0.041878 0.417228 -0.068546
C86   C     C_R   0.945034 0.669664 0.508503 -0.142195
C87   C     C_R   0.923812 0.646265 0.439161 -0.120660
C88   C     C_R   0.471944 0.175522 0.515105 -0.135408
C89   C     C_R   0.448420 0.158773 0.445800 -0.117930
C90   C     C_R   0.745296 0.074363 0.074520 -0.003890
C91   C     C_R   0.251954 0.064480 0.926694 0.000643
C92   C     C_R   0.245299 0.574367 0.074522 -0.003741
C93   C     C_R   0.217439 0.983798 0.453784 -0.149275
C94   C     C_R   0.751947 0.564495 0.926688 0.001008
C95   C     C_R   0.810310 0.061919 0.043094 0.053197
C96   C     C_R   0.219903 0.978716 0.971282 0.019816
C97   C     C_R   0.310313 0.561922 0.043096 0.053389
C98   C     C_R   0.719896 0.478731 0.971276 0.020140
C99   C     C_R   0.816993 0.069298 0.970602 0.018856
C100  C     C_R   0.220322 0.988139 0.043809 -0.011741
C101  C     C_R   0.316996 0.569303 0.970604 0.018812
C102  C     C_R   0.720316 0.488153 0.043803 -0.011512
C103  C     C_R   0.691615 0.090803 0.955757 -0.059815
C104  C     C_R   0.335926 0.627681 0.517897 -0.158620
C105  C     C_R   0.294793 0.165575 0.033240 -0.044147
C106  C     C_R   0.191617 0.590809 0.955761 -0.059870
C107  C     C_R   0.794785 0.665591 0.033234 -0.045038
C108  C     C_R   0.685095 0.085131 0.030292 -0.178905
C109  C     C_R   0.292971 0.155012 0.958582 -0.179845
C110  C     C_R   0.185098 0.585135 0.030296 -0.178819
C111  C     C_R   0.792962 0.655028 0.958576 -0.179823
C112  C     C_3   0.875313 0.134183 0.056600 -0.267951
C113  C     C_3   0.149764 0.919182 0.969633 -0.251842
C114  C     C_3   0.375316 0.634184 0.056602 -0.268070
C115  C     C_R   0.764250 0.535248 0.449725 -0.125956
C116  C     C_3   0.649761 0.419183 0.969626 -0.252157
C117  C     C_3   0.883116 0.141859 0.976591 -0.243000
C118  C     C_3   0.151503 0.923195 0.050581 -0.269667
C119  C     C_3   0.383119 0.641862 0.976592 -0.242961
C120  C     C_3   0.651499 0.423198 0.050575 -0.269156
C121  C     C_R   0.758924 0.088908 0.925897 0.002237
C122  C     C_R   0.251220 0.088711 0.076401 -0.005048
C123  C     C_R   0.258926 0.588915 0.925899 0.002295
C124  C     C_R   0.751214 0.588722 0.076397 -0.006454
C125  C     C_R   0.969927 0.348104 0.645356 0.524254
C126  C     C_R   0.826776 0.087390 0.448163 -0.161566
C127  C     C_R   0.026341 0.343887 0.351524 0.536567
C128  C     C_R   0.471594 0.847616 0.646476 0.524391
C129  C     C_R   0.526755 0.844264 0.352073 0.529167
C130  C     C_R   0.049827 0.347324 0.063754 0.009178
C131  C     C_R   0.008375 0.344407 0.920425 0.019939
C132  C     C_R   0.549833 0.847324 0.063752 0.008608
C133  C     C_R   0.508384 0.844407 0.920421 0.020157
C134  C     C_R   0.021727 0.450457 0.031232 0.003777
C135  C     C_R   0.001418 0.448430 0.961969 0.059032
C136  C     C_R   0.521737 0.950457 0.031228 0.003738
Cr1   Cr    Cr6+3 0.885860 0.491680 0.749630 1.018493
Cr2   Cr    Cr6+3 0.112430 0.179310 0.249850 1.001368
Cr3   Cr    Cr6+3 0.387570 0.679310 0.750150 1.002890
Cr4   Cr    Cr6+3 0.612430 0.679310 0.249850 0.999381
Cr5   Cr    Cr6+3 0.114140 0.491680 0.250370 1.004057
Cr6   Cr    Cr6+3 0.385860 0.991680 0.749630 1.023972
Cr7   Cr    Cr6+3 0.614140 0.991680 0.250370 0.999916
Cr8   Cr    Cr6+3 0.730490 0.332970 0.748720 1.021559
Cr9   Cr    Cr6+3 0.269510 0.332970 0.251280 1.021870
Cr10  Cr    Cr6+3 0.230490 0.832970 0.748720 1.020861
Cr11  Cr    Cr6+3 0.769510 0.832970 0.251280 1.020576
Cr12  Cr    Cr6+3 0.887570 0.179310 0.750150 1.003069
H1    H     H_    0.887213 0.086705 0.544903 0.156993
H2    H     H_    0.325014 0.214522 0.925732 0.129624
H3    H     H_    0.133516 0.588974 0.053723 0.140372
H4    H     H_    0.825005 0.714539 0.925725 0.129613
H5    H     H_    0.917199 0.078866 0.082971 0.170598
H6    H     H_    0.152644 0.826349 0.947918 0.170246
H7    H     H_    0.417203 0.578865 0.082971 0.170682
H8    H     H_    0.652648 0.326350 0.947912 0.170386
H9    H     H_    0.864609 0.224245 0.081639 0.128823
H10   H     H_    0.108546 0.978334 0.945384 0.132861
H11   H     H_    0.364613 0.724246 0.081641 0.128389
H12   H     H_    0.185976 0.921364 0.422378 0.136712
H13   H     H_    0.608540 0.478327 0.945376 0.132724
H14   H     H_    0.876894 0.236554 0.955447 0.138054
H15   H     H_    0.108106 0.977438 0.073304 0.157894
H16   H     H_    0.376898 0.736559 0.955449 0.138105
H17   H     H_    0.608100 0.477435 0.073298 0.157756
H18   H     H_    0.929029 0.090012 0.956534 0.155385
H19   H     H_    0.158028 0.831289 0.075489 0.142950
H20   H     H_    0.429032 0.590015 0.956534 0.155440
H21   H     H_    0.658029 0.331292 0.075483 0.143775
H22   H     H_    0.055125 0.164204 0.916510 0.117776
H23   H     H_    0.388026 0.617306 0.539882 0.151811
H24   H     H_    0.094815 0.169510 0.043430 0.134758
H25   H     H_    0.555134 0.664205 0.916505 0.117436
H26   H     H_    0.594820 0.669508 0.043428 0.134303
H27   H     H_    0.979392 0.621358 0.069903 0.162816
H28   H     H_    0.889357 0.475253 0.966397 0.137162
H29   H     H_    0.479408 0.121367 0.069896 0.162827
H30   H     H_    0.389370 0.975264 0.966392 0.137000
H31   H     H_    0.924172 0.482474 0.088603 0.151518
H32   H     H_    0.942858 0.616969 0.947854 0.167083
H33   H     H_    0.424182 0.982490 0.088598 0.151035
H34   H     H_    0.785898 0.479705 0.407613 0.130767
H35   H     H_    0.442874 0.116975 0.947847 0.166992
H36   H     H_    0.867329 0.037943 0.420317 0.140215
H37   H     H_    0.188688 0.897713 0.550180 0.145929
H38   H     H_    0.367688 0.573318 0.413497 0.129658
H39   H     H_    0.812558 0.428162 0.532624 0.120632
H40   H     H_    0.126253 0.496871 0.463833 0.151299
H41   H     H_    0.757161 0.831364 0.600579 0.155348
H42   H     H_    0.616724 0.070177 0.453478 0.160770
H43   H     H_    0.341467 0.315874 0.575701 0.151459
H44   H     H_    0.605337 0.237672 0.436508 0.143480
H45   H     H_    0.941009 0.761472 0.529443 0.110339
H46   H     H_    0.243464 0.308419 0.582521 0.135282
H47   H     H_    0.088284 0.654093 0.450536 0.155195
H48   H     H_    0.660316 0.823770 0.617181 0.137271
H49   H     H_    0.624587 0.276054 0.560967 0.140676
H50   H     H_    0.233104 0.337539 0.456838 0.144387
H51   H     H_    0.109343 0.698134 0.573870 0.126377
H52   H     H_    0.637777 0.875916 0.495272 0.134874
H53   H     H_    0.639674 0.108644 0.577612 0.142253
H54   H     H_    0.331278 0.347104 0.450449 0.152668
H55   H     H_    0.146892 0.540387 0.587254 0.147461
H56   H     H_    0.901465 0.718780 0.406514 0.131477
H57   H     H_    0.734652 0.882592 0.478482 0.148697
H58   H     H_    0.035353 0.915124 0.451656 0.103902
H59   H     H_    0.061711 0.943013 0.579564 0.110451
H60   H     H_    0.529887 0.414840 0.450442 0.102280
H61   H     H_    0.554273 0.437705 0.579619 0.105428
H62   H     H_    0.996914 0.087274 0.378316 0.133152
H63   H     H_    0.048514 0.143047 0.634378 0.132927
H64   H     H_    0.495820 0.590267 0.378532 0.133894
H65   H     H_    0.546061 0.636133 0.635569 0.131167
H66   H     H_    0.919554 0.515469 0.355747 0.129929
H67   H     H_    0.474524 0.266549 0.537109 0.100792
H68   H     H_    0.993815 0.603446 0.601469 0.147143
H69   H     H_    0.428505 0.031449 0.362941 0.130082
H70   H     H_    0.515253 0.095070 0.607798 0.140312
H71   H     H_    0.432206 0.236504 0.413625 0.106175
H72   H     H_    0.633513 0.088974 0.053720 0.140411
N1    N     N_1   0.582327 0.121475 0.873717 -0.296830
N2    N     N_1   0.384285 0.320059 0.086277 -0.310466
N3    N     N_1   0.082324 0.621486 0.873730 -0.295533
N4    N     N_1   0.884281 0.820068 0.086269 -0.310259
O1    O     O_R   0.957020 0.451640 0.669920 -0.525310
O2    O     O_R   0.168040 0.093290 0.169870 -0.534706
O3    O     O_R   0.331960 0.593290 0.830130 -0.514204
O4    O     O_R   0.668040 0.593290 0.169870 -0.530557
O5    O     O_R   0.945600 0.250580 0.824860 -0.514641
O6    O     O_R   0.054400 0.250580 0.175140 -0.506498
O7    O     O_R   0.445600 0.750580 0.824860 -0.515719
O8    O     O_R   0.554400 0.750580 0.175140 -0.505644
O9    O     O_3   0.834640 0.334650 0.749500 -0.272295
O10   O     O_3   0.165360 0.334650 0.250500 -0.268204
O11   O     O_3   0.334640 0.834650 0.749500 -0.270658
O12   O     O_R   0.042980 0.451640 0.330080 -0.514639
O13   O     O_3   0.665360 0.834650 0.250500 -0.286876
O14   O     O_R   0.821450 0.543440 0.674610 -0.502212
O15   O     O_R   0.178550 0.543440 0.325390 -0.496269
O16   O     O_R   0.321450 0.043440 0.674610 -0.491825
O17   O     O_R   0.678550 0.043440 0.325390 -0.497328
O18   O     O_R   0.715320 0.458650 0.668100 -0.527392
O19   O     O_R   0.284680 0.458650 0.331900 -0.535346
O20   O     O_R   0.215320 0.958650 0.668100 -0.542008
O21   O     O_R   0.784680 0.958650 0.331900 -0.535885
O22   O     O_R   0.737170 0.209590 0.674530 -0.497147
O23   O     O_R   0.457020 0.951640 0.669920 -0.520269
O24   O     O_R   0.262830 0.209590 0.325470 -0.505410
O25   O     O_R   0.237170 0.709590 0.674530 -0.499548
O26   O     O_R   0.762830 0.709590 0.325470 -0.510083
O27   O     O_R   0.832710 0.092740 0.669580 -0.519814
O28   O     O_R   0.167290 0.092740 0.330420 -0.517634
O29   O     O_R   0.332710 0.592740 0.669580 -0.518691
O30   O     O_R   0.667290 0.592740 0.330420 -0.510679
O31   O     O_R   0.946290 0.250060 0.676040 -0.519665
O32   O     O_R   0.053710 0.250060 0.323960 -0.502304
O33   O     O_R   0.446290 0.750060 0.676040 -0.520431
O34   O     O_R   0.542980 0.951640 0.330080 -0.517580
O35   O     O_R   0.553710 0.750060 0.323960 -0.516010
O36   O     O_R   0.956270 0.452200 0.830470 -0.491409
O37   O     O_R   0.043730 0.452200 0.169530 -0.522747
O38   O     O_R   0.456270 0.952200 0.830470 -0.493029
O39   O     O_R   0.543730 0.952200 0.169530 -0.521140
O40   O     O_R   0.820760 0.543950 0.823440 -0.506563
O41   O     O_R   0.179240 0.543950 0.176560 -0.529211
O42   O     O_R   0.320760 0.043950 0.823440 -0.506317
O43   O     O_R   0.679240 0.043950 0.176560 -0.526653
O44   O     O_R   0.714570 0.459210 0.828640 -0.515160
O45   O     O_R   0.736470 0.210100 0.823360 -0.486741
O46   O     O_R   0.285430 0.459210 0.171360 -0.484086
O47   O     O_R   0.214570 0.959210 0.828640 -0.513716
O48   O     O_R   0.785430 0.959210 0.171360 -0.483902
O49   O     O_R   0.263530 0.210100 0.176640 -0.491576
O50   O     O_R   0.236470 0.710100 0.823360 -0.486458
O51   O     O_R   0.763530 0.710100 0.176640 -0.487271
O52   O     O_R   0.831960 0.093290 0.830130 -0.514266

loop_
_geom_bond_atom_site_label_1
_geom_bond_atom_site_label_2
_ccdc_geom_bond_type
C114  H7    S    
C8    C9    S    
C83   C87   A    
Cr11  O26   S    
C58   C128  S    
C35   H44   S    
C88   H67   S    
Cr8   O22   S    
C33   C45   S    
C73   C74   A    
Cr7   O13   S    
C126  H36   S    
C8    H31   S    
C74   C83   A    
C49   O15   A    
C15   O42   A    
C92   C110  A    
C111  H4    S    
C17   O52   A    
C59   H62   S    
C12   O44   A    
C8    H27   S    
C90   C95   A    
C25   O8    A    
Cr8   O44   S    
Cr11  O21   S    
Cr6   O16   S    
C48   H55   S    
C19   C123  S    
C59   C64   A    
C101  C123  A    
Cr7   O39   S    
C80   O30   A    
Cr8   O9    S    
C36   C47   S    
C43   H46   S    
C16   C90   S    
C57   C76   A    
C57   C129  S    
Cr10  O47   S    
Cr4   O35   S    
C10   C136  S    
Cr12  O9    S    
C6    C133  A    
Cr2   O28   S    
C27   C60   S    
C86   H45   S    
C61   H63   S    
C112  C117  S    
C25   O39   A    
C42   N4    T    
C120  H21   S    
Cr1   O36   S    
C81   H68   S    
C99   C117  S    
C94   C98   A    
C22   O37   A    
C7    H26   S    
C29   C33   A    
C118  H19   S    
C78   O28   A    
Cr9   O19   S    
C9    H28   S    
Cr3   O3    S    
C77   O22   A    
C12   O40   A    
Cr1   O14   S    
Cr2   O2    S    
C85   H69   S    
C24   C29   A    
C21   C131  S    
C26   C126  A    
Cr1   O1    S    
C18   O2    A    
C16   O48   A    
C91   C96   A    
C55   C74   A    
C46   H53   S    
C82   C126  A    
Cr5   O10   S    
Cr12  O27   S    
Cr8   O18   S    
C106  C123  A    
C120  H17   S    
C78   O24   A    
Cr7   O17   S    
C13   C28   A    
C67   H61   S    
C2    C27   A    
C34   C46   S    
C113  H10   S    
C42   C107  S    
C113  H6    S    
Cr7   O43   S    
C81   C86   A    
C36   C52   A    
C14   O41   A    
C99   C121  A    
C18   O49   A    
C37   C53   A    
C88   C89   A    
C45   H48   S    
C125  O31   A    
C66   C67   A    
C10   C11   S    
C43   H43   S    
C38   C54   A    
Cr5   O15   S    
C80   O26   A    
Cr9   O10   S    
C22   C130  S    
C20   C124  S    
C26   C71   S    
C79   O25   A    
C13   H38   S    
C12   C94   S    
C130  C134  A    
Cr7   O34   S    
C107  C111  A    
C107  C124  A    
C102  C124  A    
C73   C81   A    
C49   O19   A    
C92   C97   A    
C4    C131  A    
C54   C80   S    
Cr11  O13   S    
C79   O29   A    
C63   C67   A    
C118  H15   S    
C60   O20   A    
Cr4   O4    S    
C112  H9    S    
C30   C34   A    
C48   H51   S    
C8    C134  S    
C127  O32   A    
C101  C119  S    
C84   C88   A    
C116  H13   S    
C28   C32   A    
C62   C66   A    
C11   H35   S    
C71   O17   A    
C17   O45   A    
C110  H3    S    
C41   C106  S    
C85   C89   A    
C86   C87   A    
C68   C69   A    
C46   H49   S    
Cr10  O25   S    
C23   O38   A    
C129  O35   A    
C23   C133  S    
C56   C68   A    
C64   H58   S    
C34   C51   A    
C116  C120  S    
C47   H54   S    
C40   N2    T    
Cr9   O46   S    
C3    C133  A    
Cr5   O41   S    
C93   H12   S    
Cr9   O49   S    
C75   C76   A    
C51   C77   S    
Cr11  O48   S    
C89   H71   S    
C66   H60   S    
C28   C49   S    
C98   C116  S    
C22   O6    A    
C63   C70   A    
Cr2   O6    S    
C94   C111  A    
C132  C136  A    
C21   O5    A    
C54   C115  A    
Cr2   O32   S    
Cr12  O52   S    
C31   C43   S    
C127  O12   A    
C62   C72   A    
C52   C93   A    
C47   H50   S    
C11   H30   S    
C41   N3    T    
C32   C37   A    
C63   H65   S    
C37   C48   S    
C39   C103  S    
C15   O47   A    
C51   C82   A    
C14   C92   S    
C7    C132  A    
C55   C69   A    
C9    H32   S    
C4    H22   S    
C18   C122  S    
C104  H23   S    
C60   O16   A    
C9    C135  S    
C84   H70   S    
C45   H41   S    
C5    C130  A    
C10   H29   S    
C55   C127  S    
Cr6   O38   S    
Cr4   O8    S    
C35   H42   S    
C112  H5    S    
C24   H39   S    
C27   C31   A    
Cr3   O11   S    
Cr12  O31   S    
C117  H14   S    
C96   C113  S    
Cr2   O10   S    
C100  C118  S    
C71   O21   A    
Cr1   O9    S    
C103  C121  A    
C87   H56   S    
C3    C136  A    
C115  H34   S    
C102  C120  S    
C125  O1    A    
C106  C110  A    
C59   C69   A    
C17   C121  S    
C105  C109  A    
Cr10  O11   S    
Cr6   O11   S    
C44   H47   S    
C50   H52   S    
C56   C73   A    
Cr9   O24   S    
Cr3   O29   S    
C128  O23   A    
Cr5   O37   S    
C16   O43   A    
C2    C93   A    
C58   C70   A    
Cr6   O42   S    
C4    C5    A    
Cr10  O50   S    
C119  H16   S    
C70   C72   A    
C14   O46   A    
C21   O36   A    
C26   C30   A    
C6    C7    A    
C65   H59   S    
C6    H25   S    
C1    O14   A    
C30   C35   S    
C96   C100  A    
C134  C135  A    
C131  C135  A    
C33   C38   A    
C20   O4    A    
C38   C50   S    
C95   C112  S    
C53   C79   S    
C128  O33   A    
C91   C109  A    
C117  H18   S    
C109  H2    S    
C2    H37   S    
C90   C108  A    
C98   C102  A    
C64   C65   A    
C108  H72   S    
C19   O3    A    
C83   H66   S    
C25   C132  S    
C61   C68   A    
C20   O51   A    
C1    C29   S    
C114  C119  S    
C45   C50   S    
C44   H40   S    
Cr5   O12   S    
Cr11  O51   S    
Cr3   O33   S    
C50   H57   S    
Cr4   O13   S    
C5    H24   S    
C105  C122  A    
Cr8   O45   S    
C95   C99   A    
C100  C122  A    
C119  H20   S    
C57   C72   A    
C75   C84   A    
C23   O7    A    
C114  H11   S    
C116  H8    S    
C82   H1    S    
C3    C11   S    
C1    O18   A    
C15   C91   S    
C113  C118  S    
C19   O50   A    
Cr1   O40   S    
C61   C65   A    
C52   C78   S    
Cr4   O30   S    
C77   O27   A    
C32   C44   S    
C24   C115  A    
C56   C125  S    
Cr6   O23   S    
Cr10  O20   S    
C13   C104  A    
C10   H33   S    
C62   H64   S    
C31   C36   A    
C39   N1    T    
C103  C108  A    
Cr3   O7    S    
Cr12  O5    S    
C53   C104  A    
C97   C114  S    
C35   C46   S    
C43   C47   S    
C76   C85   A    
C97   C101  A    
C44   C48   S    
C58   C75   A    
C129  O34   A    
C40   C105  S    
