data_mof_unit_10046.cif
_audit_creation_date              2012-12-10T17:31:17-0500
_audit_creation_method            fapswitch 2.2
_symmetry_space_group_name_H-M    P1
_symmetry_Int_Tables_number       1
_space_group_crystal_system       triclinic
_cell_length_a                    19.058795
_cell_length_b                    18.438903
_cell_length_c                    12.379637
_cell_angle_alpha                 89.999643
_cell_angle_beta                  129.188141
_cell_angle_gamma                 90.000013
_cell_volume                      3371.95926452

loop_
_atom_site_label
_atom_site_type_symbol
_atom_type_description
_atom_site_fract_x
_atom_site_fract_y
_atom_site_fract_z
_atom_type_partial_charge
C1    C     C_R   0.612201 0.898184 0.652877 0.769485
C2    C     C_R   0.612222 0.101799 0.652904 0.769478
C3    C     C_R   0.112201 0.398184 0.652877 0.769485
C4    C     C_R   0.112222 0.601800 0.652904 0.769478
C5    C     C_R   0.241886 0.779452 0.033294 0.072192
C6    C     C_R   0.241821 0.220499 0.033205 0.072154
C7    C     C_R   0.741886 0.279452 0.033294 0.072192
C8    C     C_R   0.741821 0.720499 0.033205 0.072154
C9    C     C_R   0.660289 0.278642 0.014618 0.165736
C10   C     C_R   0.660287 0.721414 0.014701 0.165735
C11   C     C_R   0.160289 0.778642 0.014618 0.165736
C12   C     C_R   0.160287 0.221414 0.014701 0.165735
C13   C     C_R   0.583450 0.245429 0.897810 -0.239244
C14   C     C_R   0.583451 0.754667 0.897955 -0.239274
C15   C     C_R   0.083450 0.745429 0.897810 -0.239244
C16   C     C_R   0.083451 0.254667 0.897955 -0.239274
C17   C     C_R   0.587529 0.209754 0.803397 -0.198813
C18   C     C_R   0.587486 0.790287 0.803451 -0.198799
C19   C     C_R   0.087529 0.709754 0.803397 -0.198813
C20   C     C_R   0.087486 0.290287 0.803451 -0.198799
C21   C     C_R   0.317196 0.814454 0.151197 -0.218402
C22   C     C_R   0.317137 0.185477 0.151065 -0.218375
C23   C     C_R   0.817196 0.314454 0.151197 -0.218402
C24   C     C_R   0.817137 0.685477 0.151065 -0.218375
C25   C     C_R   0.230668 0.849782 0.224522 -0.195511
C26   C     C_R   0.230726 0.150321 0.224680 -0.195569
C27   C     C_R   0.730668 0.349782 0.224522 -0.195511
C28   C     C_R   0.730726 0.650321 0.224680 -0.195569
C29   C     C_R   0.677808 0.159597 0.740439 -0.102619
C30   C     C_R   0.677720 0.840330 0.740316 -0.102640
C31   C     C_R   0.177808 0.659597 0.740439 -0.102619
C32   C     C_R   0.177720 0.340330 0.740316 -0.102640
C33   C     C_R   0.683125 0.999999 0.284498 -0.300748
C34   C     C_R   0.183125 0.499999 0.284498 -0.300748
C35   C     C_R   0.343595 0.000005 0.625315 0.079441
C36   C     C_R   0.843595 0.500005 0.625315 0.079441
C37   C     C_R   0.308019 0.000013 0.694466 -0.294188
C38   C     C_R   0.808019 0.500013 0.694466 -0.294188
C39   C     C_R   0.384261 0.098715 0.342502 0.803055
C40   C     C_R   0.384262 0.901286 0.342505 0.803041
C41   C     C_R   0.884261 0.598715 0.342502 0.803055
C42   C     C_R   0.884262 0.401286 0.342505 0.803041
C43   C     C_R   0.365509 0.000014 0.839561 -0.142482
C44   C     C_R   0.865509 0.500014 0.839561 -0.142482
C45   C     C_R   0.460657 0.000005 0.919293 0.009875
C46   C     C_R   0.960657 0.500005 0.919293 0.009875
C47   C     C_R   0.493738 0.000000 0.842369 0.275556
C48   C     C_R   0.993738 0.500000 0.842369 0.275556
C49   C     C_R   0.524354 0.000002 0.070666 -0.143569
C50   C     C_R   0.024354 0.500002 0.070666 -0.143569
C51   C     C_R   0.618488 1.000000 0.138627 0.105807
C52   C     C_R   0.118488 0.500000 0.138627 0.105807
C53   C     C_R   0.648462 0.999998 0.061350 -0.237368
C54   C     C_R   0.148461 0.499998 0.061350 -0.237368
C55   C     C_R   0.587744 0.999998 0.917190 -0.167264
C56   C     C_R   0.087744 0.499998 0.917190 -0.167264
C57   C     C_R   0.500861 0.000001 0.159953 0.724346
C58   C     C_R   0.000861 0.500001 0.159953 0.724346
C59   C     C_R   0.655504 0.999999 0.364694 -0.047011
C60   C     C_R   0.155504 0.499999 0.364694 -0.047011
C61   C     C_R   0.655818 0.312704 0.111488 -0.192101
C62   C     C_R   0.655877 0.687425 0.111693 -0.192112
C63   C     C_R   0.155818 0.812704 0.111488 -0.192101
C64   C     C_R   0.155877 0.187425 0.111693 -0.192112
C65   C     C_R   0.310802 0.852066 0.242333 -0.048428
C66   C     C_R   0.310801 0.147939 0.242329 -0.048495
C67   C     C_R   0.810802 0.352066 0.242333 -0.048428
C68   C     C_R   0.810801 0.647939 0.242329 -0.048495
C69   C     C_R   0.754800 0.165275 0.749526 -0.186270
C70   C     C_R   0.754644 0.834545 0.749238 -0.186316
C71   C     C_R   0.254800 0.665275 0.749526 -0.186270
C72   C     C_R   0.254644 0.334545 0.749238 -0.186316
C73   C     C_R   0.325013 0.711417 0.845824 -0.152784
C74   C     C_R   0.324797 0.288326 0.845409 -0.152783
C75   C     C_R   0.825013 0.211417 0.845824 -0.152784
C76   C     C_R   0.824797 0.788326 0.845409 -0.152783
C77   C     C_R   0.321723 0.749900 0.939017 -0.176992
C78   C     C_R   0.321532 0.249879 0.938660 -0.176996
C79   C     C_R   0.821723 0.249900 0.939017 -0.176992
C80   C     C_R   0.821532 0.749879 0.938660 -0.176996
C81   C     C_R   0.745582 0.244866 0.934347 0.081135
C82   C     C_R   0.745467 0.755026 0.934164 0.081108
C83   C     C_R   0.245582 0.744866 0.934347 0.081135
C84   C     C_R   0.245467 0.255026 0.934164 0.081108
C85   C     C_R   0.669655 0.204149 0.825405 0.079492
C86   C     C_R   0.669571 0.795805 0.825317 0.079488
C87   C     C_R   0.169655 0.704149 0.825405 0.079492
C88   C     C_R   0.169572 0.295805 0.825317 0.079488
Cu1   Cu    Cu3+1 0.526340 1.000000 0.421010 0.984840
Cu2   Cu    Cu3+1 0.026340 0.500000 0.421010 0.984840
Cu3   Cu    Cu3+1 0.473640 0.000000 0.578990 0.917256
Cu4   Cu    Cu3+1 0.973640 0.500000 0.578990 0.917256
H1    H     H_    0.224717 0.879044 0.294272 0.146672
H2    H     H_    0.224822 0.121126 0.294539 0.146711
H3    H     H_    0.724717 0.379044 0.294272 0.146672
H4    H     H_    0.724822 0.621126 0.294539 0.146711
H5    H     H_    0.720314 0.999996 0.113202 0.149294
H6    H     H_    0.220314 0.499997 0.113202 0.149294
H7    H     H_    0.754946 0.999997 0.336398 0.152647
H8    H     H_    0.254946 0.499997 0.336398 0.152647
H9    H     H_    0.298315 0.000006 0.512607 0.123824
H10   H     H_    0.798315 0.500006 0.512607 0.123824
H11   H     H_    0.332129 0.000025 0.883889 0.227882
H12   H     H_    0.832129 0.500025 0.883889 0.227882
H13   H     H_    0.235353 0.000020 0.635244 0.151080
H14   H     H_    0.735353 0.500020 0.635244 0.151080
H15   H     H_    0.617844 0.999997 0.868257 0.206192
H16   H     H_    0.117844 0.499997 0.868257 0.206192
H17   H     H_    0.519761 0.246977 0.879175 0.136436
H18   H     H_    0.519800 0.753200 0.879447 0.136482
H19   H     H_    0.019761 0.746977 0.879175 0.136436
H20   H     H_    0.019800 0.253200 0.879447 0.136482
H21   H     H_    0.593628 0.312423 0.097480 0.130765
H22   H     H_    0.593739 0.687793 0.097829 0.130737
H23   H     H_    0.093628 0.812423 0.097480 0.130765
H24   H     H_    0.093739 0.187793 0.097829 0.130737
H25   H     H_    0.381975 0.814255 0.174365 0.145915
H26   H     H_    0.381881 0.185623 0.174120 0.146009
H27   H     H_    0.881975 0.314255 0.174365 0.145915
H28   H     H_    0.881881 0.685623 0.174120 0.146009
H29   H     H_    0.761930 0.132554 0.684277 0.150689
H30   H     H_    0.761768 0.867236 0.683951 0.150724
H31   H     H_    0.261930 0.632554 0.684277 0.150689
H32   H     H_    0.261768 0.367236 0.683951 0.150724
H33   H     H_    0.379084 0.784249 0.011134 0.134636
H34   H     H_    0.378851 0.215474 0.010691 0.134703
H35   H     H_    0.879084 0.284249 0.011134 0.134636
H36   H     H_    0.878851 0.715474 0.010691 0.134703
H37   H     H_    0.383790 0.715693 0.851220 0.130453
H38   H     H_    0.383514 0.283962 0.850666 0.130467
H39   H     H_    0.883790 0.215693 0.851220 0.130453
H40   H     H_    0.883514 0.783962 0.850666 0.130467
H41   H     H_    0.524607 0.188341 0.711294 0.175050
H42   H     H_    0.524560 0.811727 0.711396 0.175119
H43   H     H_    0.024607 0.688341 0.711294 0.175050
H44   H     H_    0.024560 0.311727 0.711396 0.175119
H45   H     H_    0.705244 0.999999 0.477231 0.143275
H46   H     H_    0.205244 0.499999 0.477231 0.143275
N1    N     N_R   0.566260 1.000000 0.302220 -0.214164
N2    N     N_R   0.066260 0.500000 0.302220 -0.214164
N3    N     N_R   0.434410 1.000000 0.697680 -0.208179
N4    N     N_R   0.934410 0.500000 0.697680 -0.208179
O1    O     O_R   0.608610 0.924520 0.551740 -0.584732
O2    O     O_R   0.608610 0.075480 0.551740 -0.584704
O3    O     O_R   0.108610 0.424520 0.551740 -0.584732
O4    O     O_R   0.108610 0.575480 0.551740 -0.584704
O5    O     O_R   0.564110 0.924510 0.685150 -0.602286
O6    O     O_R   0.564110 0.075490 0.685150 -0.602253
O7    O     O_R   0.064110 0.424510 0.685150 -0.602286
O8    O     O_R   0.064110 0.575490 0.685150 -0.602253
O9    O     O_R   0.435880 0.075470 0.314850 -0.524115
O10   O     O_R   0.435880 0.924530 0.314850 -0.524080
O11   O     O_R   0.935880 0.575470 0.314850 -0.524115
O12   O     O_R   0.935880 0.424530 0.314850 -0.524080
O13   O     O_R   0.391380 0.075460 0.448260 -0.603994
O14   O     O_R   0.391380 0.924540 0.448260 -0.604001
O15   O     O_R   0.891380 0.575460 0.448260 -0.603994
O16   O     O_R   0.891380 0.424540 0.448260 -0.604001
F1    F     F_    0.413943 0.999997 0.108930 -0.687321
F2    F     F_    0.913943 0.499997 0.108930 -0.687321

loop_
_geom_bond_atom_site_label_1
_geom_bond_atom_site_label_2
_ccdc_geom_bond_type
C26   H2    S    
C14   H18   S    
C83   C87   A    
C25   H1    S    
C64   H24   S    
C2    O2    A    
C14   C18   A    
C27   H3    S    
C48   C56   A    
Cu3   O5    S    
C44   H12   S    
C32   C72   A    
C10   C62   A    
C15   C19   A    
C40   O10   A    
C18   C86   A    
C2    C29   S    
C9    C61   A    
C71   H31   S    
C28   C68   A    
C5    C11   A    
Cu2   O3    S    
C19   C87   A    
C6    C12   A    
C5    C83   A    
C9    C13   A    
C59   H45   S    
C19   H43   S    
C6    C22   A    
C39   O9    A    
C49   C57   A    
C57   N1    A    
C36   H10   S    
C25   C63   A    
C23   C67   A    
C29   C69   A    
C26   C64   A    
C56   H16   S    
Cu4   O16   S    
C13   H17   S    
C27   C61   A    
C11   C15   A    
Cu1   O10   S    
C22   C66   A    
C12   C16   A    
C44   C46   A    
C49   C51   A    
C50   C52   A    
C76   C80   A    
C69   C75   A    
C59   N1    A    
C30   C86   A    
Cu4   N4    S    
C47   N3    A    
C29   C85   A    
C63   H23   S    
C52   C54   A    
C45   C47   A    
C57   F1    S    
C33   C59   A    
C55   H15   S    
C72   H32   S    
C34   C60   A    
C42   O16   A    
C17   C85   A    
C21   C65   A    
Cu3   O6    S    
C30   C70   A    
C75   H39   S    
C38   C44   A    
C41   C68   S    
C41   O11   A    
C53   C55   A    
Cu2   Cu4   S    
C54   C56   A    
C3    O7    A    
C31   C87   A    
C24   H28   S    
C26   C66   A    
C15   H19   S    
C6    C84   A    
C72   C74   A    
C10   C14   A    
C79   C81   A    
C80   H36   S    
Cu1   N1    S    
C82   C86   A    
C39   O13   A    
Cu4   O15   S    
C33   H7    S    
C50   C58   A    
C38   H14   S    
C37   H13   S    
C1    O1    A    
C70   H30   S    
C34   H8    S    
C16   H20   S    
C69   H29   S    
C16   C20   A    
C4    O4    A    
C45   C49   A    
C48   N4    A    
C21   H25   S    
C20   H44   S    
Cu2   O11   S    
C43   C45   A    
C35   N3    A    
C41   O15   A    
C80   C82   A    
C7    C81   A    
C60   N2    A    
C3    O3    A    
C40   C65   S    
C74   H38   S    
Cu4   O8    S    
C42   C67   S    
C39   C66   S    
C8    C82   A    
C37   C43   A    
C1    O5    A    
Cu1   Cu3   S    
Cu3   O13   S    
C70   C76   A    
C78   H34   S    
C77   H33   S    
C35   C37   A    
C47   C55   A    
C58   N2    A    
C7    C9    A    
C12   C64   A    
C22   H26   S    
C73   C77   A    
C42   O12   A    
C40   O14   A    
C84   C88   A    
C35   H9    S    
Cu2   N2    S    
C28   C62   A    
C62   H22   S    
C33   C51   A    
Cu1   O2    S    
C4    O8    A    
C46   C50   A    
C34   C52   A    
C13   C17   A    
C28   H4    S    
C53   H5    S    
C36   N4    A    
C36   C38   A    
C79   H35   S    
Cu3   O14   S    
Cu2   O4    S    
Cu1   O1    S    
C17   H41   S    
C76   H40   S    
Cu2   O12   S    
C75   C79   A    
C73   H37   S    
C7    C23   A    
C20   C88   A    
C31   C71   A    
C1    C30   S    
C8    C24   A    
C18   H42   S    
C3    C32   S    
C43   H11   S    
C4    C31   S    
C27   C67   A    
C24   C68   A    
C61   H21   S    
C46   C48   A    
C78   C84   A    
Cu1   O9    S    
C5    C21   A    
C8    C10   A    
C74   C78   A    
C71   C73   A    
Cu4   O7    S    
C25   C65   A    
C77   C83   A    
C54   H6    S    
C23   H27   S    
C58   F2    S    
C51   C53   A    
C11   C63   A    
C2    O6    A    
C81   C85   A    
C60   H46   S    
Cu3   N3    S    
C32   C88   A    
