data_mof_unit_43367.cif
_audit_creation_date              2012-12-11T14:17:42-0500
_audit_creation_method            fapswitch 2.2
_symmetry_space_group_name_H-M    P1
_symmetry_Int_Tables_number       1
_space_group_crystal_system       triclinic
_cell_length_a                    10.965763
_cell_length_b                    11.128238
_cell_length_c                    18.86022
_cell_angle_alpha                 89.617898
_cell_angle_beta                  89.94595
_cell_angle_gamma                 120.491592
_cell_volume                      1983.14652915

loop_
_atom_site_label
_atom_site_type_symbol
_atom_type_description
_atom_site_fract_x
_atom_site_fract_y
_atom_site_fract_z
_atom_type_partial_charge
C1    C     C_R   0.519402 0.459942 0.147645 0.558752
C2    C     C_R   0.539838 0.060477 0.147418 0.547211
C3    C     C_R   0.939925 0.480494 0.147625 0.548016
C4    C     C_R   0.454636 0.521089 0.854411 0.539733
C5    C     C_R   0.066842 0.545821 0.854301 0.534377
C6    C     C_R   0.479268 0.933041 0.854385 0.544594
C7    C     C_R   0.429821 0.027431 0.467451 -0.151768
C8    C     C_R   0.920972 0.373679 0.471984 -0.150357
C9    C     C_R   0.642005 0.503348 0.481181 -0.157651
C10   C     C_R   0.929924 0.386830 0.545755 -0.183446
C11   C     C_R   0.410956 0.985379 0.537294 -0.129243
C12   C     C_R   0.618863 0.530563 0.550592 -0.155549
C13   C     C_R   0.651481 0.838735 0.538930 -0.113374
C14   C     C_R   0.032050 0.757283 0.554877 -0.095541
C15   C     C_R   0.223656 0.368200 0.543639 -0.074345
C16   C     C_R   0.112903 0.747688 0.416690 -0.073928
C17   C     C_R   0.610392 0.848428 0.394347 -0.078625
C18   C     C_R   0.267612 0.231048 0.436996 -0.090676
C19   C     C_R   0.733842 0.817130 0.490274 -0.142050
C20   C     C_R   0.077057 0.871773 0.510290 -0.158293
C21   C     C_R   0.109801 0.248898 0.515641 -0.122272
C22   C     C_R   0.116708 0.866289 0.440966 -0.117192
C23   C     C_R   0.707857 0.813552 0.418334 -0.103227
C24   C     C_R   0.131416 0.182647 0.460640 -0.148234
C25   C     C_R   0.547668 0.414747 0.360743 0.565057
C26   C     C_R   0.540000 0.057080 0.352075 0.521249
C27   C     C_R   0.935690 0.479197 0.354571 0.523473
C28   C     C_R   0.453414 0.520522 0.644282 0.529329
C29   C     C_R   0.057801 0.544004 0.647062 0.524154
C30   C     C_R   0.454055 0.873618 0.638570 0.557486
C31   C     C_R   0.492781 0.972191 0.929098 0.002802
C32   C     C_R   0.027487 0.520190 0.929253 0.004473
C33   C     C_R   0.480005 0.508120 0.929421 0.004221
C34   C     C_R   0.005883 0.498586 0.077391 -0.003619
C35   C     C_R   0.492075 0.996435 0.077143 -0.003060
C36   C     C_R   0.501706 0.507947 0.077544 -0.005099
C37   C     C_R   0.410170 0.022280 0.960077 0.016629
C38   C     C_R   0.979420 0.389062 0.961633 0.016152
C39   C     C_R   0.613125 0.593525 0.961093 0.017510
C40   C     C_R   0.983642 0.381360 0.036464 0.029110
C41   C     C_R   0.398128 0.020469 0.034961 0.028643
C42   C     C_R   0.620873 0.604588 0.035932 0.028245
C43   C     C_R   0.568184 0.942039 0.045382 -0.145902
C44   C     C_R   0.057968 0.627633 0.044283 -0.147185
C45   C     C_R   0.370576 0.429923 0.045231 -0.147148
C46   C     C_R   0.071987 0.638817 0.971612 -0.133919
C47   C     C_R   0.565531 0.926733 0.972787 -0.136598
C48   C     C_R   0.359385 0.432686 0.972529 -0.135156
C49   C     C_R   0.337289 0.071802 0.918486 -0.098526
C50   C     C_R   0.929739 0.266000 0.921562 -0.097165
C51   C     C_R   0.738194 0.670029 0.920338 -0.096883
C52   C     C_R   0.963924 0.256288 0.067169 -0.085559
C53   C     C_R   0.293284 0.043704 0.064423 -0.088112
C54   C     C_R   0.747806 0.710951 0.066066 -0.087776
C55   C     C_R   0.241600 0.102671 0.949521 -0.128496
C56   C     C_R   0.901643 0.141921 0.953917 -0.128442
C57   C     C_R   0.864096 0.767616 0.952070 -0.128863
C58   C     C_R   0.920191 0.137762 0.026439 -0.136169
C59   C     C_R   0.218705 0.086935 0.022180 -0.136370
C60   C     C_R   0.868054 0.789015 0.024619 -0.137054
C61   C     C_R   0.471820 0.910403 0.563041 0.002550
C62   C     C_R   0.994869 0.518380 0.575613 -0.008253
C63   C     C_R   0.481863 0.492302 0.572333 0.007826
C64   C     C_R   0.985207 0.493141 0.427730 0.000298
C65   C     C_R   0.492353 0.981197 0.419002 -0.003355
C66   C     C_R   0.526734 0.420969 0.437317 -0.000687
C67   C     C_R   0.553756 0.878125 0.516068 0.014051
C68   C     C_R   0.027386 0.634703 0.530932 0.037018
C69   C     C_R   0.364755 0.406034 0.527879 0.027281
C70   C     C_R   0.049246 0.625561 0.458482 0.017766
C71   C     C_R   0.546904 0.897724 0.442355 0.027741
C72   C     C_R   0.387335 0.350129 0.467120 0.038833
Cr1   Cr    Cr6+3 0.768550 0.541320 0.250660 0.988965
Cr2   Cr    Cr6+3 0.458680 0.227230 0.250660 0.982671
Cr3   Cr    Cr6+3 0.772770 0.231450 0.250660 0.997896
Cr4   Cr    Cr6+3 0.541320 0.768550 0.749340 0.987813
Cr5   Cr    Cr6+3 0.227230 0.458680 0.749340 0.997059
Cr6   Cr    Cr6+3 0.231450 0.772770 0.749340 0.998016
H1    H     H_    0.634382 0.915789 0.076642 0.129801
H2    H     H_    0.083049 0.719757 0.074521 0.131459
H3    H     H_    0.276898 0.361908 0.076183 0.129710
H4    H     H_    0.118586 0.742374 0.948628 0.152771
H5    H     H_    0.621729 0.878757 0.950822 0.150596
H6    H     H_    0.254405 0.374466 0.950062 0.151785
H7    H     H_    0.183677 0.137038 0.916956 0.121691
H8    H     H_    0.867142 0.049261 0.922467 0.121439
H9    H     H_    0.958359 0.827904 0.920136 0.119954
H10   H     H_    0.900351 0.042265 0.051708 0.101241
H11   H     H_    0.143153 0.108674 0.046449 0.102699
H12   H     H_    0.964797 0.865648 0.049454 0.101917
H13   H     H_    0.401573 0.102340 0.452132 0.123579
H14   H     H_    0.861737 0.270116 0.449712 0.156007
H15   H     H_    0.749093 0.548660 0.461297 0.141189
H16   H     H_    0.886348 0.295532 0.579792 0.124997
H17   H     H_    0.357753 0.021328 0.572203 0.150834
H18   H     H_    0.707938 0.589309 0.585457 0.112402
H19   H     H_    0.673866 0.830769 0.593413 0.166879
H20   H     H_    0.991117 0.763393 0.606026 0.135877
H21   H     H_    0.201412 0.429556 0.578098 0.171481
H22   H     H_    0.146367 0.747701 0.362616 0.124887
H23   H     H_    0.593003 0.846603 0.337761 0.126023
H24   H     H_    0.274981 0.168742 0.396174 0.142711
H25   H     H_    0.812487 0.794540 0.508996 0.118294
H26   H     H_    0.078323 0.962836 0.530211 0.120259
H27   H     H_    0.004457 0.205026 0.536435 0.117120
H28   H     H_    0.146981 0.950922 0.404508 0.095945
H29   H     H_    0.765867 0.787322 0.381189 0.137467
H30   H     H_    0.042559 0.092453 0.436817 0.113084
O1    O     O_R   0.910960 0.572410 0.171010 -0.518595
O2    O     O_R   0.427590 0.338550 0.171010 -0.514488
O3    O     O_R   0.661450 0.089040 0.171010 -0.519048
O4    O     O_R   0.572410 0.910960 0.828990 -0.522618
O5    O     O_R   0.338550 0.427590 0.828990 -0.521704
O6    O     O_R   0.089040 0.661450 0.828990 -0.527380
O7    O     O_R   0.639750 0.528530 0.175600 -0.507167
O8    O     O_R   0.471470 0.111220 0.175600 -0.513783
O9    O     O_R   0.888780 0.360250 0.175600 -0.508489
O10   O     O_R   0.528530 0.639750 0.824400 -0.511220
O11   O     O_R   0.111220 0.471470 0.824400 -0.508815
O12   O     O_R   0.360250 0.888780 0.824400 -0.506561
O13   O     O_R   0.909330 0.572400 0.331540 -0.540567
O14   O     O_R   0.427600 0.336930 0.331540 -0.535804
O15   O     O_R   0.663070 0.090670 0.331540 -0.525584
O16   O     O_R   0.572400 0.909330 0.668460 -0.536441
O17   O     O_R   0.336930 0.427600 0.668460 -0.524456
O18   O     O_R   0.090670 0.663070 0.668460 -0.535297
O19   O     O_R   0.638240 0.528520 0.324410 -0.503571
O20   O     O_R   0.471480 0.109720 0.324410 -0.538372
O21   O     O_R   0.890280 0.361760 0.324410 -0.502072
O22   O     O_R   0.528520 0.638240 0.675590 -0.534649
O23   O     O_R   0.109720 0.471480 0.675590 -0.519966
O24   O     O_R   0.361760 0.890280 0.675590 -0.497429
O25   O     O_3   0.666667 0.333333 0.250630 -0.258196
O26   O     O_3   0.333333 0.666667 0.749370 -0.261326
H31   H     H_    0.354074 0.088350 0.861937 0.134871
H32   H     H_    0.910720 0.263734 0.865240 0.134035
H33   H     H_    0.740632 0.654615 0.863955 0.131473
H34   H     H_    0.987174 0.248883 0.122065 0.133432
H35   H     H_    0.262232 0.023310 0.119474 0.133050
H36   H     H_    0.755295 0.739681 0.121106 0.130805

loop_
_geom_bond_atom_site_label_1
_geom_bond_atom_site_label_2
_ccdc_geom_bond_type
C2    C35   S    
C39   C51   A    
C55   C59   A    
C5    O6    A    
C48   H6    S    
C19   C23   A    
Cr3   O9    S    
C53   C59   A    
C54   C60   A    
C7    C11   A    
C17   C23   A    
C5    O11   A    
C34   C40   A    
C40   C52   A    
Cr5   O23   S    
C10   H16   S    
C43   H1    S    
Cr2   O25   S    
C18   H24   S    
C17   H23   S    
C9    C66   A    
Cr6   O24   S    
C3    O9    A    
C46   H4    S    
C19   H25   S    
C66   C72   A    
C63   C69   A    
C65   C71   A    
C52   H34   S    
C51   C57   A    
C64   C70   A    
C35   C43   A    
C25   O14   A    
C28   O22   A    
C5    C32   S    
C6    C31   S    
C49   H31   S    
C23   H29   S    
C31   C47   A    
C29   O18   A    
C37   C41   A    
C4    O10   A    
C10   C62   A    
C32   C46   A    
Cr5   O5    S    
C6    O12   A    
C44   C46   A    
C14   H20   S    
C39   C42   A    
C18   C72   A    
C24   H30   S    
C15   C69   A    
C54   H36   S    
C2    O3    A    
C38   C50   A    
C13   C19   A    
Cr4   O16   S    
C14   C20   A    
C4    O5    A    
C44   H2    S    
C34   C44   A    
C18   C24   A    
C15   H21   S    
C12   C63   A    
Cr4   O26   S    
C16   H22   S    
C57   C60   A    
C26   O20   A    
C3    C34   S    
C11   C61   A    
C22   H28   S    
Cr4   O10   S    
C57   H9    S    
C59   H11   S    
C55   H7    S    
C69   C72   A    
Cr6   O12   S    
C1    O2    A    
C7    C65   A    
C37   C49   A    
C61   C67   A    
C56   H8    S    
Cr4   O4    S    
Cr2   O8    S    
C16   C70   A    
C36   C45   A    
C33   C39   A    
Cr6   O26   S    
C41   C53   A    
C52   C58   A    
C8    C64   A    
C8    H14   S    
C51   H33   S    
C68   C70   A    
Cr2   O14   S    
Cr1   O25   S    
C17   C71   A    
C32   C38   A    
C27   O21   A    
Cr3   O15   S    
C21   C24   A    
C26   O15   A    
C20   C22   A    
Cr6   O18   S    
C9    H15   S    
C7    H13   S    
Cr2   O20   S    
Cr5   O17   S    
C28   O17   A    
C13   C67   A    
C45   C48   A    
C11   H17   S    
C4    C33   S    
C29   C62   S    
Cr6   O6    S    
C16   C22   A    
C53   H35   S    
C26   C65   S    
C6    O4    A    
C45   H3    S    
C25   C66   S    
C30   O16   A    
Cr5   O11   S    
C49   C55   A    
C58   H10   S    
C36   C42   A    
Cr2   O2    S    
C2    O8    A    
Cr3   O25   S    
Cr1   O1    S    
C20   H26   S    
C60   H12   S    
Cr3   O3    S    
Cr1   O7    S    
C62   C68   A    
C25   O19   A    
Cr1   O19   S    
C42   C54   A    
C38   C40   A    
C29   O23   A    
C3    O1    A    
C30   O24   A    
C56   C58   A    
C67   C71   A    
C13   H19   S    
C35   C41   A    
C9    C12   A    
C50   C56   A    
C27   C64   S    
C47   H5    S    
C28   C63   S    
C31   C37   A    
C15   C21   A    
C8    C10   A    
Cr5   O26   S    
C30   C61   S    
C27   O13   A    
C33   C48   A    
C14   C68   A    
C12   H18   S    
C50   H32   S    
C1    O7    A    
C43   C47   A    
C21   H27   S    
Cr4   O22   S    
Cr3   O21   S    
C1    C36   S    
Cr1   O13   S    
