data_mof_unit_25639.cif
_audit_creation_date              2012-12-10T16:54:30-0500
_audit_creation_method            fapswitch 2.2
_symmetry_space_group_name_H-M    P1
_symmetry_Int_Tables_number       1
_space_group_crystal_system       triclinic
_cell_length_a                    15.025541
_cell_length_b                    10.947644
_cell_length_c                    9.754256
_cell_angle_alpha                 90.041605
_cell_angle_beta                  91.232661
_cell_angle_gamma                 90.841481
_cell_volume                      1603.97407084

loop_
_atom_site_label
_atom_site_type_symbol
_atom_type_description
_atom_site_fract_x
_atom_site_fract_y
_atom_site_fract_z
_atom_type_partial_charge
C1    C     C_R   0.499384 0.265590 0.500262 0.889958
C2    C     C_R   0.908222 0.609954 0.491308 0.042335
C3    C     C_R   0.950488 0.279421 0.550457 -0.147218
C4    C     C_R   0.042579 0.277319 0.544440 -0.094768
C5    C     C_R   0.091821 0.383631 0.513967 0.003054
C6    C     C_R   0.047083 0.496793 0.505259 -0.019932
C7    C     C_R   0.095899 0.607707 0.491682 0.002055
C8    C     C_R   0.050343 0.719498 0.478111 0.405698
C9    C     C_R   0.957364 0.718872 0.476813 -0.218169
C10   C     C_R   0.184522 0.380527 0.493741 0.355050
C11   C     C_R   0.232568 0.492015 0.494699 -0.185358
C12   C     C_R   0.329165 0.495782 0.498503 0.894488
C13   C     C_R   0.188916 0.603396 0.494029 -0.220998
C14   C     C_2   0.483897 0.934439 0.386113 0.174764
C15   C     C_2   0.503748 0.867202 0.498563 -0.264284
C16   C     C_2   0.494204 0.068047 0.387539 -0.227355
C17   C     C_2   0.493399 0.133682 0.503073 -0.255844
C18   C     C_2   0.429890 0.481552 0.923068 0.000770
C19   C     C_2   0.428466 0.506213 0.075298 0.025413
C20   C     C_R   0.499557 0.734612 0.499531 0.842701
C21   C     C_R   0.670684 0.500658 0.501369 0.772532
C22   C     C_R   0.814736 0.610530 0.487795 0.106983
C23   C     C_R   0.767136 0.500242 0.505193 -0.106120
C24   C     C_R   0.811366 0.389560 0.527691 0.075433
C25   C     C_R   0.904669 0.388482 0.528739 0.126313
C26   C     C_R   0.953267 0.498527 0.508813 -0.009960
Cu1   Cu    Cu3+1 0.500020 0.500020 0.638630 1.076896
Cu2   Cu    Cu3+1 0.499980 0.499980 0.361370 1.031759
H1    H     H_    0.527704 0.909098 0.593211 0.133940
H2    H     H_    0.498651 0.113512 0.288865 0.173718
H3    H     H_    0.483791 0.091902 0.602392 0.164943
H4    H     H_    0.368184 0.449731 0.874786 0.123622
H5    H     H_    0.365707 0.529998 0.120268 0.158661
H6    H     H_    0.548483 0.445802 0.114596 0.253603
H7    H     H_    0.915479 0.194590 0.571773 0.199815
H8    H     H_    0.074536 0.191968 0.568048 0.241273
H9    H     H_    0.229118 0.686102 0.492721 0.203780
H10   H     H_    0.923153 0.804569 0.464682 0.221857
N1    N     N_2   0.499020 0.498660 0.846910 -0.006367
N2    N     N_2   0.499000 0.498630 0.153040 -0.228730
O1    O     O_R   0.500020 0.321960 0.617040 -0.591101
O2    O     O_R   0.499980 0.321920 0.382900 -0.575741
O3    O     O_R   0.370270 0.499990 0.617090 -0.605383
O4    O     O_R   0.370240 0.499950 0.382940 -0.550893
O5    O     O_R   0.500020 0.678080 0.617100 -0.525550
O6    O     O_R   0.499980 0.678040 0.382960 -0.533972
O7    O     O_R   0.629760 0.500050 0.617060 -0.516163
O8    O     O_R   0.629730 0.500010 0.382910 -0.578714
N3    N     N_3   0.768527 0.723244 0.466371 -0.587970
H11   H     H_    0.728547 0.715004 0.377706 0.249228
H12   H     H_    0.727442 0.738186 0.549661 0.233249
S1    S     S_3+6 0.585672 0.596713 0.907177 0.115700
O9    O     O_2   0.552673 0.688195 0.008727 -0.287496
O10   O     O_2   0.658439 0.522161 0.972251 -0.308969
O11   O     O_3   0.632574 0.678798 0.781867 -0.491953
H13   H     H_    0.683662 0.722473 0.826439 0.355575
N4    N     N_3   0.761909 0.277622 0.546714 -0.593995
H14   H     H_    0.720370 0.262836 0.460735 0.220241
H15   H     H_    0.722235 0.286892 0.632732 0.238979
S2    S     S_3+6 0.238709 0.241416 0.452120 -0.004138
O12   O     O_2   0.279282 0.187646 0.580171 -0.289006
O13   O     O_2   0.173892 0.151157 0.388346 -0.247653
O14   O     O_3   0.318614 0.267401 0.337538 -0.542698
H16   H     H_    0.329087 0.187117 0.294375 0.365048
S3    S     S_3+6 0.106644 0.861749 0.458250 0.034102
O15   O     O_2   0.041420 0.962538 0.433177 -0.254560
O16   O     O_2   0.160326 0.889477 0.586701 -0.275446
O17   O     O_3   0.174978 0.853295 0.324169 -0.514575
H17   H     H_    0.225274 0.909852 0.346561 0.386686
N5    N     N_3   0.453006 0.877715 0.260720 -0.513032
H18   H     H_    0.391240 0.914702 0.234177 0.224723
H19   H     H_    0.497515 0.901093 0.183765 0.249165

loop_
_geom_bond_atom_site_label_1
_geom_bond_atom_site_label_2
_ccdc_geom_bond_type
C2    C26   A    
C2    C22   A    
C7    C13   A    
C10   S2    S    
C11   C12   S    
C4    H8    S    
N5    H18   S    
C11   C13   A    
Cu1   O1    S    
C13   H9    S    
C20   O5    A    
S1    O11   S    
C3    H7    S    
O11   H13   S    
C21   O8    A    
Cu1   O5    S    
N3    H12   S    
N1    S1    S    
Cu2   O8    S    
C8    S3    S    
C12   O4    A    
C24   C25   A    
C18   C19   S    
C5    C6    A    
C14   N5    S    
Cu2   O6    S    
N4    H14   S    
C6    C26   A    
C22   N3    S    
H6    N2    S    
C4    C5    A    
C1    O1    A    
Cu2   O2    S    
C9    H10   S    
C18   N1    D    
S1    O10   D    
C15   H1    S    
C12   O3    A    
C10   C11   A    
C21   C23   S    
C19   H5    S    
C15   C20   S    
C17   H3    S    
C14   C16   S    
N4    H15   S    
S2    O14   S    
C19   N2    D    
Cu2   N2    S    
C23   C24   A    
C16   H2    S    
C3    C4    A    
Cu1   O3    S    
C1    O2    A    
C5    C10   A    
C3    C25   A    
C18   H4    S    
S1    O9    D    
S2    O13   D    
S3    O15   D    
C24   N4    S    
Cu1   O7    S    
Cu1   Cu2   S    
N3    H11   S    
C7    C8    A    
C14   C15   D    
S2    O12   D    
N5    H19   S    
S3    O17   S    
C21   O7    A    
C25   C26   A    
O17   H17   S    
C2    C9    A    
C1    C17   S    
Cu2   O4    S    
C22   C23   A    
C20   O6    A    
C6    C7    A    
O14   H16   S    
C16   C17   D    
Cu1   N1    S    
C8    C9    A    
S3    O16   D    
