data_mof_unit_42153.cif
_audit_creation_date              2012-12-10T18:52:16-0500
_audit_creation_method            fapswitch 2.2
_symmetry_space_group_name_H-M    P1
_symmetry_Int_Tables_number       1
_space_group_crystal_system       triclinic
_cell_length_a                    15.734145
_cell_length_b                    10.639312
_cell_length_c                    9.853868
_cell_angle_alpha                 90.15457
_cell_angle_beta                  90.078879
_cell_angle_gamma                 90.146779
_cell_volume                      1649.52921625

loop_
_atom_site_label
_atom_site_type_symbol
_atom_type_description
_atom_site_fract_x
_atom_site_fract_y
_atom_site_fract_z
_atom_type_partial_charge
C1    C     C_R   0.497507 0.260322 0.499766 0.850171
C2    C     C_R   0.449621 0.418374 0.071578 -0.047423
C3    C     C_R   0.337907 0.499911 0.499901 0.894424
C4    C     C_R   0.662093 0.500090 0.500099 0.894427
C5    C     C_3   0.973014 0.381646 0.498464 0.050661
C6    C     C_3   0.026986 0.618357 0.501538 0.050710
C7    C     C_3   0.028531 0.441637 0.387219 -0.244528
C8    C     C_3   0.971468 0.558366 0.612783 -0.244510
C9    C     C_1   0.249069 0.500109 0.499776 -0.146151
C10   C     C_1   0.750931 0.499892 0.500225 -0.146110
C11   C     C_3   0.028839 0.439646 0.611129 -0.241892
C12   C     C_R   0.502497 0.739677 0.500234 0.850153
C13   C     C_3   0.971161 0.560357 0.388873 -0.241860
C14   C     C_3   0.083011 0.501213 0.499904 0.172541
C15   C     C_3   0.916989 0.498789 0.500098 0.172534
C16   C     C_1   0.173835 0.500540 0.499793 0.016196
C17   C     C_1   0.826165 0.499463 0.500208 0.016217
C18   C     C_R   0.559585 0.068036 0.424859 -0.115695
C19   C     C_R   0.440431 0.931966 0.575154 -0.115758
C20   C     C_2   0.944628 0.247170 0.496691 0.402465
C21   C     C_2   0.055372 0.752833 0.503311 0.402417
C22   C     C_2   0.636159 0.875318 0.352972 0.404741
C23   C     C_R   0.565081 0.938588 0.425492 -0.020672
C24   C     C_2   0.363899 0.124684 0.647127 0.404971
C25   C     C_R   0.434943 0.061412 0.574535 -0.020695
C26   C     C_R   0.504008 0.872155 0.500846 -0.153058
C27   C     C_R   0.496002 0.127845 0.499153 -0.153094
C28   C     C_R   0.550400 0.581663 0.072226 -0.048900
C29   C     C_R   0.449600 0.418336 0.927774 -0.048879
C30   C     C_R   0.550379 0.581626 0.928422 -0.047426
H1    H     H_    0.053373 0.393386 0.295486 0.155111
H2    H     H_    0.409306 0.353088 0.125725 0.137308
H3    H     H_    0.991695 0.172873 0.495845 0.066664
H4    H     H_    0.008305 0.827129 0.504157 0.066703
H5    H     H_    0.647939 0.775782 0.366361 0.056742
H6    H     H_    0.351989 0.224159 0.633483 0.056585
H7    H     H_    0.946627 0.606617 0.704516 0.155110
H8    H     H_    0.946063 0.610221 0.298510 0.157627
H9    H     H_    0.053937 0.389782 0.701492 0.157616
H10   H     H_    0.606217 0.123285 0.369873 0.197154
H11   H     H_    0.393796 0.876720 0.630142 0.197121
H12   H     H_    0.590727 0.646983 0.126876 0.135848
H13   H     H_    0.409274 0.353016 0.873124 0.135954
H14   H     H_    0.590694 0.646912 0.874275 0.137294
N1    N     N_R   0.499980 0.499970 0.857200 -0.087439
N2    N     N_R   0.500020 0.500030 0.142800 -0.087428
O1    O     O_R   0.499990 0.316750 0.614620 -0.621387
O2    O     O_2   0.130811 0.779642 0.503827 -0.545316
O3    O     O_2   0.683267 0.934227 0.277848 -0.555067
O4    O     O_2   0.316983 0.065853 0.722628 -0.555144
O5    O     O_R   0.500010 0.683250 0.385380 -0.621444
O6    O     O_R   0.500000 0.316780 0.385290 -0.613664
O7    O     O_R   0.500000 0.683220 0.614710 -0.613635
O8    O     O_R   0.376780 0.499970 0.614640 -0.618054
O9    O     O_R   0.623220 0.500030 0.385360 -0.618067
O10   O     O_R   0.376780 0.500000 0.385310 -0.608690
O11   O     O_R   0.623220 0.500000 0.614690 -0.608693
O12   O     O_2   0.869189 0.220361 0.496174 -0.545218
Zn1   Zn    Zn3+2 0.500000 0.499980 0.653120 0.970234
Zn2   Zn    Zn3+2 0.500000 0.500020 0.346880 0.970195

loop_
_geom_bond_atom_site_label_1
_geom_bond_atom_site_label_2
_ccdc_geom_bond_type
C4    O11   A    
C7    C14   S    
C15   C17   S    
C29   N1    A    
C3    C9    S    
C6    C14   S    
C2    N2    A    
C3    O10   A    
C30   N1    A    
C12   O7    A    
C21   O2    D    
C28   N2    A    
O5    Zn2   S    
C28   C30   A    
O7    Zn1   S    
C5    C20   S    
O9    Zn2   S    
C29   H13   S    
C6    C13   S    
C11   H9    S    
C22   H5    S    
C30   H14   S    
C13   H8    S    
C24   H6    S    
C8    C11   S    
C20   H3    S    
C2    H2    S    
C28   H12   S    
C1    O6    A    
C9    C16   T    
C5    C11   S    
C8    C15   S    
O8    Zn1   S    
C13   C15   S    
C4    O9    A    
C24   O4    D    
C25   C27   A    
C19   C25   A    
C3    O8    A    
C14   C16   S    
C5    C15   S    
O11   Zn1   S    
C8    H7    S    
C10   C17   T    
O1    Zn1   S    
C18   C23   A    
C19   H11   S    
C7    C13   S    
C12   O5    A    
C2    C29   A    
C24   C25   S    
C5    C7    S    
C23   C26   A    
C22   O3    D    
C11   C14   S    
C1    C27   S    
C19   C26   A    
C18   H10   S    
C22   C23   S    
C1    O1    A    
C6    C8    S    
C21   H4    S    
O6    Zn2   S    
N2    Zn2   S    
C6    C21   S    
C20   O12   D    
C7    H1    S    
N1    Zn1   S    
C18   C27   A    
O10   Zn2   S    
C4    C10   S    
C12   C26   S    
