data_mof_unit_37933.cif
_audit_creation_date              2012-12-11T15:29:16-0500
_audit_creation_method            fapswitch 2.2
_symmetry_space_group_name_H-M    P1
_symmetry_Int_Tables_number       1
_space_group_crystal_system       triclinic
_cell_length_a                    13.490739
_cell_length_b                    13.498829
_cell_length_c                    27.572403
_cell_angle_alpha                 90.58675
_cell_angle_beta                  90.056006
_cell_angle_gamma                 60.039251
_cell_volume                      4349.91726627

loop_
_atom_site_label
_atom_site_type_symbol
_atom_type_description
_atom_site_fract_x
_atom_site_fract_y
_atom_site_fract_z
_atom_type_partial_charge
C1    C     C_R   0.620329 0.101177 0.569910 0.548673
C2    C     C_1   0.649531 0.704607 0.657824 -0.044796
C3    C     C_3   0.125950 0.096328 0.739638 0.273851
C4    C     C_R   0.599739 0.779289 0.568454 0.545698
C5    C     C_3   0.221732 0.053724 0.777861 -0.105662
C6    C     C_1   0.098650 0.199410 0.900502 -0.011370
C7    C     C_1   0.230279 0.137497 0.617137 0.017384
C8    C     C_3   0.052942 0.207883 0.768668 -0.089719
C9    C     C_3   0.149924 0.166259 0.806274 0.013948
C10   C     C_3   0.109449 0.265471 0.740176 -0.137335
C11   C     C_3   0.181022 0.153381 0.711476 0.046741
C12   C     C_1   0.631208 0.731848 0.615923 -0.002880
C13   C     C_3   0.205725 0.224260 0.778551 -0.116060
C14   C     C_3   0.277708 0.111811 0.749244 -0.139673
C15   C     C_1   0.127083 0.179757 0.858521 -0.049410
C16   C     C_R   0.277804 0.121651 0.569369 0.546313
C17   C     C_1   0.202976 0.146123 0.659200 0.004163
C18   C     C_3   0.669549 0.257413 0.738097 -0.094803
C19   C     C_3   0.572789 0.280324 0.774582 -0.110679
C20   C     C_1   0.690898 0.206535 0.901520 -0.011792
C21   C     C_1   0.635485 0.133209 0.617891 0.005460
C22   C     C_3   0.757816 0.162932 0.771494 -0.052781
C23   C     C_3   0.717034 0.557321 0.766669 -0.103358
C24   C     C_3   0.660995 0.185492 0.807162 0.033904
C25   C     C_3   0.738142 0.072490 0.745127 -0.051779
C26   C     C_3   0.649990 0.167166 0.712471 0.051718
C27   C     C_3   0.641475 0.095252 0.781516 -0.121835
C28   C     C_R   0.621921 0.100228 0.431534 0.543818
C29   C     C_3   0.553002 0.189782 0.748097 -0.115775
C30   C     C_1   0.673186 0.195790 0.859490 -0.053684
C31   C     C_1   0.643542 0.152186 0.660079 -0.026589
C32   C     C_R   0.640056 0.721996 0.383070 0.024715
C33   C     C_R   0.723597 0.734854 0.358149 -0.125471
C34   C     C_3   0.679450 0.654499 0.804385 0.047294
C35   C     C_R   0.736445 0.716735 0.308572 -0.123786
C36   C     C_R   0.668745 0.681773 0.283446 0.037603
C37   C     C_R   0.593738 0.657332 0.309102 -0.121254
C38   C     C_R   0.578733 0.678256 0.358733 -0.129517
C39   C     C_R   0.576123 0.704427 0.203142 -0.121812
C40   C     C_R   0.601962 0.776770 0.430483 0.540060
C41   C     C_R   0.584920 0.681883 0.153605 -0.130649
C42   C     C_R   0.789552 0.609454 0.157637 -0.126831
C43   C     C_R   0.781179 0.629311 0.207146 -0.124048
C44   C     C_R   0.675159 0.672768 0.230517 0.036575
C45   C     C_3   0.604046 0.630769 0.738887 -0.094412
C46   C     C_R   0.692604 0.629262 0.131107 0.023507
C47   C     C_R   0.225333 0.137396 0.383505 0.025428
C48   C     C_R   0.248266 0.041339 0.355076 -0.125509
C49   C     C_R   0.224401 0.052963 0.305890 -0.122443
C50   C     C_R   0.174828 0.161104 0.284604 0.036486
C51   C     C_R   0.143736 0.258282 0.313765 -0.118717
C52   C     C_R   0.278994 0.120051 0.431008 0.542808
C53   C     C_R   0.169669 0.246401 0.362929 -0.126157
C54   C     C_R   0.175215 0.250812 0.206093 -0.120666
C55   C     C_R   0.147851 0.268653 0.157121 -0.129663
C56   C     C_3   0.663389 0.683212 0.709966 0.052979
C57   C     C_R   0.094265 0.121772 0.158545 -0.125932
C58   C     C_R   0.119675 0.105421 0.207515 -0.122262
C59   C     C_R   0.157130 0.172106 0.231991 0.036679
C60   C     C_R   0.103413 0.206939 0.133479 0.022957
C61   C     C_R   0.641014 0.139455 0.385019 0.023824
C62   C     C_R   0.548498 0.231541 0.361888 -0.124478
C63   C     C_R   0.555797 0.251667 0.313153 -0.121386
C64   C     C_3   0.776229 0.610209 0.736949 -0.096703
C65   C     C_R   0.656357 0.181374 0.287029 0.036682
C66   C     C_R   0.752273 0.095816 0.311181 -0.120095
C67   C     C_3   0.566711 0.727469 0.777334 -0.094698
C68   C     C_R   0.744514 0.074570 0.359875 -0.127340
C69   C     C_R   0.716486 0.097366 0.204195 -0.119339
C70   C     C_R   0.728523 0.109621 0.154927 -0.127458
C71   C     C_R   0.618024 0.315937 0.164672 -0.127175
C72   C     C_R   0.607655 0.303721 0.214033 -0.122407
C73   C     C_R   0.659777 0.194418 0.234380 0.035481
C74   C     C_R   0.682476 0.219044 0.135216 0.024211
C75   C     C_R   0.050076 0.234709 0.948043 0.545304
C76   C     C_3   0.738885 0.706957 0.775531 -0.100715
C77   C     C_R   0.711989 0.561808 0.946408 0.545578
C78   C     C_3   0.625830 0.780388 0.747679 -0.100011
C79   C     C_R   0.722495 0.224057 0.949135 0.545391
C80   C     C_R   0.047825 0.243695 0.086344 0.541902
C81   C     C_R   0.709250 0.572325 0.084244 0.540513
C82   C     C_R   0.719809 0.233411 0.087472 0.540953
C83   C     C_1   0.697322 0.607381 0.898620 -0.014303
C84   C     C_1   0.688290 0.633617 0.856585 -0.056669
Cr1   Cr    Cr6+3 0.417550 0.169090 0.500530 1.025805
Cr2   Cr    Cr6+3 0.669180 0.913420 0.499920 1.033298
Cr3   Cr    Cr6+3 0.413260 0.917540 0.499520 1.044523
Cr4   Cr    Cr6+3 0.909770 0.175810 0.018240 1.022917
Cr5   Cr    Cr6+3 0.913300 0.427650 0.016090 1.021827
Cr6   Cr    Cr6+3 0.657770 0.431010 0.016900 1.022231
H1    H     H_    0.793835 0.738693 0.791192 0.114774
H2    H     H_    0.772358 0.768442 0.376016 0.133488
H3    H     H_    0.862105 0.561759 0.719769 0.109895
H4    H     H_    0.492717 0.742249 0.220303 0.101786
H5    H     H_    0.508954 0.698969 0.133588 0.124509
H6    H     H_    0.794754 0.736401 0.289694 0.098862
H7    H     H_    0.858921 0.603940 0.227375 0.100248
H8    H     H_    0.873879 0.568766 0.141171 0.134104
H9    H     H_    0.543828 0.625991 0.290568 0.099691
H10   H     H_    0.514733 0.666625 0.377415 0.125459
H11   H     H_    0.292430 0.955985 0.369934 0.134660
H12   H     H_    0.239275 0.276816 0.795196 0.120428
H13   H     H_    0.207516 0.300706 0.223984 0.102931
H14   H     H_    0.156322 0.334265 0.138445 0.125169
H15   H     H_    0.588192 0.872511 0.739233 0.101404
H16   H     H_    0.249936 0.976578 0.284196 0.100214
H17   H     H_    0.104468 0.044558 0.226640 0.101125
H18   H     H_    0.059865 0.072990 0.141303 0.133485
H19   H     H_    0.102113 0.343029 0.298337 0.103109
H20   H     H_    0.150895 0.321585 0.384325 0.125220
H21   H     H_    0.467513 0.283262 0.380391 0.132378
H22   H     H_    0.754162 0.012072 0.218899 0.104793
H23   H     H_    0.063339 0.352268 0.724343 0.113866
H24   H     H_    0.778189 0.033881 0.132698 0.123400
H25   H     H_    0.480632 0.318146 0.295388 0.100321
H26   H     H_    0.563805 0.379885 0.236556 0.101850
H27   H     H_    0.480753 0.775959 0.794446 0.108328
H28   H     H_    0.582957 0.401414 0.150387 0.134439
H29   H     H_    0.832040 0.042923 0.292018 0.102204
H30   H     H_    0.817367 0.003774 0.377028 0.127268
H31   H     H_    0.549037 0.599031 0.723282 0.118104
H32   H     H_    0.754665 0.465193 0.775107 0.102641
H33   H     H_    0.267376 0.966812 0.793593 0.102176
H34   H     H_    0.960309 0.247134 0.777005 0.105360
H35   H     H_    0.370318 0.072381 0.740748 0.104722
H36   H     H_    0.468365 0.201167 0.737818 0.107380
H37   H     H_    0.107356 0.903341 0.775880 0.335314
H38   H     H_    0.504533 0.365717 0.787327 0.114736
H39   H     H_    0.681477 0.323686 0.719844 0.116375
H40   H     H_    0.629746 0.028832 0.799748 0.107092
H41   H     H_    0.806470 0.987083 0.732421 0.172342
H42   H     H_    0.842027 0.152067 0.782021 0.162665
O1    O     O_R   0.301780 0.195490 0.553940 -0.512059
O2    O     O_R   0.636050 0.541380 0.962520 -0.507041
O3    O     O_R   0.666480 0.323610 0.968170 -0.494473
O4    O     O_R   0.522450 0.158840 0.550250 -0.498092
O5    O     O_R   0.817280 0.156800 0.072180 -0.520010
O6    O     O_R   0.005110 0.187160 0.067410 -0.505103
O7    O     O_R   0.026450 0.340060 0.069950 -0.521991
O8    O     O_R   0.808300 0.527240 0.065170 -0.505942
O9    O     O_R   0.634070 0.548770 0.069460 -0.521728
O10   O     O_R   0.664650 0.330470 0.067300 -0.503932
O11   O     O_3   0.826940 0.344820 0.017080 -0.245311
O12   O     O_R   0.658840 0.818280 0.449970 -0.506742
O13   O     O_R   0.694460 0.003360 0.553820 -0.493913
O14   O     O_R   0.657750 0.819520 0.549120 -0.495334
O15   O     O_R   0.501990 0.803120 0.552700 -0.495944
O16   O     O_R   0.318230 0.023430 0.549370 -0.479818
O17   O     O_R   0.302950 0.194150 0.446980 -0.519251
O18   O     O_R   0.523540 0.157600 0.451100 -0.504384
O19   O     O_R   0.695630 0.002030 0.446860 -0.519554
O20   O     O_2   0.969375 0.085249 0.683321 -0.268218
O21   O     O_2   0.163295 0.919377 0.681679 -0.267057
O22   O     O_3   0.035995 0.950162 0.757503 -0.544017
O23   O     O_R   0.503160 0.801780 0.445740 -0.521817
O24   O     O_R   0.319320 0.022190 0.450230 -0.503742
O25   O     O_3   0.499990 0.000010 0.499990 -0.252081
O26   O     O_R   0.819250 0.149410 0.965240 -0.504934
O27   O     O_R   0.006940 0.180310 0.968270 -0.493754
O28   O     O_R   0.028420 0.332670 0.963010 -0.506079
O29   O     O_R   0.810130 0.520390 0.966030 -0.493732
S1    S     S_3+6 0.072752 0.010966 0.713420 -0.009581

loop_
_geom_bond_atom_site_label_1
_geom_bond_atom_site_label_2
_ccdc_geom_bond_type
C53   H20   S    
C75   O28   A    
C81   O8    A    
C66   C68   A    
C63   C65   A    
C28   O18   A    
C23   C45   S    
C27   C29   S    
C1    O13   A    
C35   C36   A    
C18   C26   S    
C24   C27   S    
C82   O10   A    
C2    C12   T    
C79   O26   A    
Cr2   O12   S    
C6    C75   S    
C39   C41   A    
C20   C30   T    
C35   H6    S    
C70   H24   S    
C1    C21   S    
C21   C31   T    
C5    C9    S    
C62   C63   A    
C14   H35   S    
Cr1   O25   S    
C78   H15   S    
C50   C59   S    
C36   C37   A    
C76   C78   S    
C64   H3    S    
C18   C19   S    
C82   O5    A    
C42   H8    S    
Cr6   O2    S    
C69   H22   S    
C80   O6    A    
C77   C83   S    
C19   H38   S    
C65   C73   S    
C58   H17   S    
C42   C46   A    
Cr4   O27   S    
C9    C13   S    
Cr1   O18   S    
C3    S1    S    
C33   C35   A    
C6    C15   T    
C60   C80   S    
C62   H21   S    
C83   C84   T    
C45   C56   S    
C52   O17   A    
C7    C17   T    
C22   C25   S    
C45   C67   S    
C41   C46   A    
C56   C64   S    
C40   O23   A    
C69   C73   A    
Cr4   O26   S    
C4    C12   S    
C1    O4    A    
Cr4   O11   S    
Cr6   O11   S    
C56   C78   S    
C47   C53   A    
C63   H25   S    
C28   C61   S    
C23   C34   S    
C81   O9    A    
C26   C31   S    
C51   H19   S    
C55   C60   A    
C61   C62   A    
C67   C78   S    
C34   C84   S    
C74   C82   S    
C16   O1    A    
Cr2   O14   S    
H37   O22   S    
Cr5   O29   S    
C23   H32   S    
Cr1   O17   S    
C54   C59   A    
C77   O29   A    
Cr3   O16   S    
C54   H13   S    
C38   H10   S    
C3    C8    S    
C33   H2    S    
C8    C9    S    
C57   C60   A    
Cr1   O4    S    
C45   H31   S    
C25   C26   S    
Cr5   O11   S    
C4    O15   A    
C55   H14   S    
Cr3   O25   S    
C51   C53   A    
C47   C52   S    
C43   C44   A    
C39   H4    S    
C70   C74   A    
C37   C38   A    
C46   C81   S    
C47   C48   A    
Cr5   O8    S    
C4    O14   A    
C50   C51   A    
C64   C76   S    
C67   H27   S    
Cr4   O6    S    
C5    C14   S    
Cr6   O10   S    
C10   H23   S    
Cr3   O15   S    
C26   C29   S    
C23   C64   S    
C49   C50   A    
C32   C38   A    
C66   H29   S    
C40   O12   A    
C7    C16   S    
Cr3   O23   S    
C36   C44   S    
C52   O24   A    
C42   C43   A    
C39   C44   A    
C19   C29   S    
Cr2   O13   S    
C37   H9    S    
Cr5   O28   S    
Cr5   O7    S    
C75   O27   A    
C5    H33   S    
C54   C55   A    
C11   C17   S    
C71   H28   S    
C22   H42   S    
C18   C22   S    
O22   S1    S    
C8    H34   S    
C43   H7    S    
C72   C73   A    
C3    C5    S    
C10   C13   S    
C34   C67   S    
C71   C74   A    
C49   H16   S    
C25   C27   S    
C80   O7    A    
C79   O3    A    
C72   H26   S    
O21   S1    D    
C16   O16   A    
C32   C33   A    
C19   C24   S    
C58   C59   A    
C71   C72   A    
C2    C56   S    
Cr2   O19   S    
C68   H30   S    
Cr6   O3    S    
C61   C68   A    
C57   C58   A    
C41   H5    S    
C48   C49   A    
C48   H11   S    
C11   C14   S    
C22   C24   S    
C32   C40   S    
C9    C15   S    
C69   C70   A    
Cr2   O25   S    
C24   C30   S    
Cr4   O5    S    
Cr6   O9    S    
C3    C11   S    
C10   C11   S    
C76   H1    S    
C57   H18   S    
C28   O19   A    
C8    C10   S    
C65   C66   A    
C77   O2    A    
Cr1   O1    S    
C27   H40   S    
Cr3   O24   S    
C18   H39   S    
C29   H36   S    
C13   H12   S    
C13   C14   S    
O20   S1    D    
C34   C76   S    
C20   C79   S    
C25   H41   S    
