data_mof_unit_35270.cif
_audit_creation_date              2012-10-26T21:24:42-0400
_audit_creation_method            fapswitch 2.2
_symmetry_space_group_name_H-M    P1
_symmetry_Int_Tables_number       1
_space_group_crystal_system       triclinic
_cell_length_a                    9.553235
_cell_length_b                    10.837392
_cell_length_c                    15.476617
_cell_angle_alpha                 90.009792
_cell_angle_beta                  74.432252
_cell_angle_gamma                 90.867681
_cell_volume                      1543.35455029

loop_
_atom_site_label
_atom_site_type_symbol
_atom_type_description
_atom_site_fract_x
_atom_site_fract_y
_atom_site_fract_z
_atom_type_partial_charge
C1    C     C_R   0.996786 0.262609 0.504088 0.545575
C2    C     C_R   0.224076 0.517037 0.042097 0.049985
C3    C     C_R   0.324695 0.487150 0.091302 0.032638
C4    C     C_R   0.918327 0.498832 0.672057 0.535772
C5    C     C_R   0.077082 0.534611 0.086302 -0.143289
C6    C     C_R   0.028611 0.525107 0.179252 -0.139678
C7    C     C_R   0.273583 0.481929 0.185298 -0.138346
C8    C     C_R   0.109582 0.067398 0.450020 0.007426
C9    C     C_R   0.991651 0.129100 0.504678 0.019129
C10   C     C_R   0.867166 0.059502 0.552346 -0.029982
C11   C     C_R   0.872073 0.930281 0.547485 -0.147968
C12   C     C_R   0.671485 0.478026 0.906047 0.026698
C13   C     C_R   0.998538 0.870604 0.499868 -0.003181
C14   C     C_R   0.113312 0.940609 0.447383 0.007949
C15   C     C_3   0.272083 0.939669 0.440595 -0.279999
C16   C     C_R   0.000773 0.737470 0.499693 0.551526
C17   C     C_3   0.267741 0.079413 0.443940 -0.261129
C18   C     C_R   0.607404 0.529805 0.424067 0.157159
C19   C     C_R   0.542016 0.458267 0.572016 -0.022999
C20   C     C_R   0.393383 0.458463 0.572089 -0.019787
C21   C     C_R   0.460081 0.529167 0.423937 0.158172
C22   C     C_3   0.477981 0.648207 0.374090 -0.280627
C23   C     C_R   0.769107 0.433984 0.953237 0.044893
C24   C     C_3   0.636567 0.649275 0.374404 -0.276455
C25   C     C_R   0.081803 0.499968 0.327827 0.548921
C26   C     C_R   0.872875 0.486280 0.769928 -0.003741
C27   C     C_R   0.127279 0.501161 0.229333 -0.002354
C28   C     C_R   0.915743 0.415592 0.908465 -0.148293
C29   C     C_R   0.967216 0.440767 0.817133 -0.147368
C30   C     C_R   0.728077 0.508773 0.815013 -0.140570
C31   C     C_3   0.735540 0.116181 0.616976 -0.249070
C32   C     C_3   0.772121 0.159027 0.702982 -0.288506
C33   C     C_3   0.637184 0.203078 0.772814 -0.442612
C34   C     C_R   0.521076 0.488799 0.951033 0.032025
C35   C     C_R   0.473239 0.467309 0.045246 0.032556
C36   C     C_R   0.574824 0.424403 0.089833 -0.143783
C37   C     C_R   0.719339 0.407096 0.044290 -0.143223
C38   C     C_R   0.416385 0.516632 0.904504 -0.143883
C39   C     C_R   0.270934 0.529820 0.949356 -0.141674
Cu1   Cu    Cu3+1 0.140670 0.499980 0.500000 0.926980
Cu2   Cu    Cu3+1 0.859330 0.500020 0.500000 0.925656
H1    H     H_    0.792866 0.372480 0.080861 0.110284
H2    H     H_    0.461574 0.637898 0.306009 0.125462
H3    H     H_    0.346421 0.466572 0.226297 0.116569
H4    H     H_    0.415164 0.722022 0.415585 0.146003
H5    H     H_    0.711512 0.639267 0.306353 0.118413
H6    H     H_    0.665354 0.725349 0.415033 0.153948
H7    H     H_    0.914977 0.539587 0.211863 0.119969
H8    H     H_    0.194750 0.551635 0.911013 0.110123
H9    H     H_    0.989940 0.379086 0.943768 0.110591
H10   H     H_    0.079474 0.421750 0.783159 0.114903
H11   H     H_    0.661704 0.550056 0.776972 0.115582
H12   H     H_    0.999822 0.557518 0.049039 0.114267
H13   H     H_    0.545658 0.398902 0.159683 0.100683
H14   H     H_    0.442122 0.525483 0.832638 0.093343
H15   H     H_    0.591224 0.284519 0.747419 0.145472
H16   H     H_    0.553429 0.128284 0.789555 0.147187
H17   H     H_    0.666850 0.229379 0.834994 0.163399
H18   H     H_    0.819049 0.081145 0.732120 0.160999
H19   H     H_    0.853985 0.235243 0.687555 0.170764
H20   H     H_    0.691355 0.192595 0.585296 0.172364
H21   H     H_    0.645532 0.046647 0.635759 0.126250
H22   H     H_    0.780411 0.875669 0.585956 0.125229
H23   H     H_    0.296789 0.897636 0.500285 0.141029
H24   H     H_    0.336168 0.905319 0.374354 0.131255
H25   H     H_    0.289085 0.118128 0.505836 0.144122
H26   H     H_    0.329782 0.124247 0.380290 0.141607
H27   H     H_    0.570440 0.425859 0.630921 0.108440
H28   H     H_    0.311877 0.426418 0.630974 0.107693
N1    N     N_R   0.648210 0.500930 0.499430 -0.229546
N2    N     N_R   0.352300 0.500890 0.499430 -0.229638
O1    O     O_R   0.118810 0.319640 0.500000 -0.504060
O2    O     O_R   0.881230 0.319680 0.499990 -0.504452
O3    O     O_R   0.055580 0.499970 0.629840 -0.510051
O4    O     O_R   0.818000 0.500010 0.629830 -0.516976
O5    O     O_R   0.118770 0.680320 0.500010 -0.496950
O6    O     O_R   0.881190 0.680360 0.500000 -0.506046
O7    O     O_R   0.182000 0.499990 0.370170 -0.505277
O8    O     O_R   0.944420 0.500030 0.370160 -0.497497

loop_
_geom_bond_atom_site_label_1
_geom_bond_atom_site_label_2
_ccdc_geom_bond_type
C18   N1    A    
C33   H17   S    
Cu1   N2    S    
C18   C21   A    
C31   H20   S    
C19   C20   A    
C12   C23   A    
C17   H25   S    
C6    H7    S    
C21   N2    A    
C18   C24   S    
C5    H12   S    
C28   C29   A    
C34   C35   A    
C11   H22   S    
Cu2   O6    S    
C38   C39   A    
C15   H24   S    
C7    C27   A    
C16   O6    A    
C37   H1    S    
C4    O4    A    
C28   H9    S    
C10   C31   S    
C38   H14   S    
C31   C32   S    
C8    C9    A    
C8    C14   A    
C15   H23   S    
C20   N2    A    
C9    C10   A    
C4    O3    A    
C33   H15   S    
C16   O5    A    
C21   C22   S    
C31   H21   S    
C2    C39   A    
C17   H26   S    
C1    O1    A    
C25   O7    A    
C1    C9    S    
C23   C37   A    
Cu1   O5    S    
C35   C36   A    
C34   C38   A    
Cu2   O4    S    
C6    C27   A    
C3    C35   A    
C19   H27   S    
C23   C28   A    
Cu1   Cu2   S    
C39   H8    S    
C26   C30   A    
Cu1   O7    S    
C20   H28   S    
C2    C5    A    
C32   H19   S    
C12   C34   A    
C29   H10   S    
C15   C17   S    
C30   H11   S    
C36   C37   A    
C33   H16   S    
Cu1   O1    S    
C12   C30   A    
C25   O8    A    
C24   H6    S    
Cu2   O8    S    
C4    C26   S    
C25   C27   S    
C3    C7    A    
C8    C17   S    
C1    O2    A    
C32   C33   S    
C2    C3    A    
C24   H5    S    
C11   C13   A    
C5    C6    A    
Cu1   O3    S    
C22   C24   S    
C36   H13   S    
C10   C11   A    
Cu2   O2    S    
C22   H4    S    
C26   C29   A    
C13   C16   S    
C14   C15   S    
C19   N1    A    
C32   H18   S    
C7    H3    S    
C13   C14   A    
C22   H2    S    
Cu2   N1    S    
