data_mof_unit_31899.cif
_audit_creation_date              2012-12-10T16:32:36-0500
_audit_creation_method            fapswitch 2.2
_symmetry_space_group_name_H-M    P1
_symmetry_Int_Tables_number       1
_space_group_crystal_system       triclinic
_cell_length_a                    16.891725
_cell_length_b                    16.951145
_cell_length_c                    16.903631
_cell_angle_alpha                 65.42867
_cell_angle_beta                  65.44714
_cell_angle_gamma                 66.098445
_cell_volume                      3842.54794904

loop_
_atom_site_label
_atom_site_type_symbol
_atom_type_description
_atom_site_fract_x
_atom_site_fract_y
_atom_site_fract_z
_atom_type_partial_charge
C1    C     C_R   0.585778 0.034660 0.593921 -0.118887
C2    C     C_R   0.822073 0.565160 0.029872 0.958546
C3    C     C_R   0.438151 0.961081 0.179195 0.923587
C4    C     C_R   0.561420 0.039790 0.820864 0.909036
C5    C     C_R   0.565455 0.822155 0.029261 0.962582
C6    C     C_R   0.433078 0.177831 0.973553 0.927690
C7    C     C_R   0.039746 0.562311 0.821151 0.917860
C8    C     C_R   0.972375 0.433478 0.177553 0.986867
C9    C     C_R   0.821649 0.028793 0.566313 0.947679
C10   C     C_R   0.178608 0.969508 0.434553 0.972115
C11   C     C_R   0.538306 0.017503 0.548674 0.213176
C12   C     C_R   0.415236 0.960687 0.408901 -0.129719
C13   C     C_R   0.463009 0.977519 0.454231 0.204316
C14   C     C_R   0.050488 0.535589 0.534302 0.148790
C15   C     C_R   0.028323 0.441716 0.441192 0.154294
C16   C     C_R   0.534015 0.532546 0.052555 0.203204
C17   C     C_R   0.445117 0.449433 0.013611 0.209237
C18   C     C_R   0.523764 0.078671 0.465819 -0.084840
C19   C     C_R   0.477950 0.916162 0.536927 -0.097954
C20   C     C_R   0.033051 0.450481 0.579740 -0.119755
C21   C     C_R   0.024692 0.533897 0.402693 -0.125514
C22   C     C_R   0.456245 0.507557 0.117518 -0.068736
C23   C     C_R   0.070632 0.582397 0.580838 -0.051671
C24   C     C_R   0.523471 0.473056 0.949617 -0.106341
C25   C     C_R   0.486003 0.058961 0.419047 -0.057812
C26   C     C_R   0.515395 0.936042 0.583874 -0.079788
C27   C     C_R   0.411848 0.466530 0.097973 -0.063993
C28   C     C_R   0.567285 0.514372 0.968805 -0.119647
C29   C     C_R   0.023005 0.404363 0.534191 -0.124214
C30   C     C_R   0.034412 0.579896 0.448570 -0.115846
C31   C     C_R   0.539910 0.056191 0.676056 0.307403
C32   C     C_R   0.459897 0.944169 0.324261 0.317932
C33   C     C_R   0.077294 0.672413 0.539037 0.277882
C34   C     C_R   0.020864 0.390791 0.390641 -0.053467
C35   C     C_R   0.019346 0.300634 0.428815 0.278382
C36   C     C_R   0.671573 0.542291 0.066001 0.289978
C37   C     C_R   0.319664 0.452853 0.967963 0.322482
C38   C     C_R   0.321844 0.970883 0.446144 0.308497
C39   C     C_R   0.679747 0.020777 0.559029 0.281220
C40   C     C_R   0.435956 0.312787 0.998154 0.295339
C41   C     C_R   0.541577 0.672588 0.063942 0.276046
C42   C     C_R   0.020664 0.427838 0.299813 0.266852
C43   C     C_R   0.077989 0.540633 0.670797 0.275673
C44   C     C_R   0.589987 0.063051 0.721867 -0.198210
C45   C     C_R   0.580623 0.581260 0.067270 -0.087240
C46   C     C_R   0.409493 0.938044 0.278195 -0.196961
C47   C     C_R   0.066956 0.723234 0.592633 -0.175038
C48   C     C_R   0.973086 0.269848 0.398195 -0.210114
C49   C     C_R   0.726921 0.599491 0.038617 -0.221302
C50   C     C_R   0.276529 0.407176 0.950697 -0.184583
C51   C     C_R   0.276287 0.953219 0.403025 -0.195871
C52   C     C_R   0.724396 0.042906 0.599324 -0.204352
C53   C     C_R   0.398397 0.273195 0.966766 -0.204756
C54   C     C_R   0.599409 0.727165 0.038306 -0.185486
C55   C     C_R   0.974008 0.396851 0.269860 -0.169782
C56   C     C_R   0.399917 0.404739 0.992135 -0.117228
C57   C     C_R   0.067740 0.593788 0.722109 -0.183155
C58   C     C_R   0.675609 0.074854 0.674489 0.054393
C59   C     C_R   0.324396 0.924774 0.325791 0.023122
C60   C     C_R   0.076123 0.680764 0.678978 0.046871
C61   C     C_R   0.937060 0.326054 0.327267 0.018051
C62   C     C_R   0.692462 0.692299 0.010378 0.051136
C63   C     C_R   0.323882 0.324977 0.934040 0.024760
C64   C     C_3   0.663785 0.205205 0.710580 -0.717966
C65   C     C_3   0.336088 0.795211 0.288859 -0.557100
C66   C     C_3   0.192037 0.683025 0.728126 -0.611011
C67   C     C_R   0.972405 0.177406 0.433729 0.956069
C68   C     C_3   0.882004 0.260378 0.260083 -0.552929
C69   C     C_3   0.792108 0.793078 0.950968 -0.582266
C70   C     C_3   0.351452 0.293287 0.795534 -0.591480
C71   C     C_R   0.039780 0.821532 0.561819 0.950551
C72   C     C_R   0.179066 0.437331 0.964761 0.952114
Cl1   Cl    Cl    0.420409 0.076399 0.718334 -0.545800
Cl2   Cl    Cl    0.422129 0.716358 0.087041 -0.580333
Cl3   Cl    Cl    0.104797 0.484052 0.221065 -0.552071
Cl4   Cl    Cl    0.135181 0.424149 0.707199 -0.589233
Cl5   Cl    Cl    0.578982 0.927674 0.280109 -0.541261
Cl6   Cl    Cl    0.134384 0.710171 0.421319 -0.602229
Cl7   Cl    Cl    0.101910 0.223849 0.485659 -0.505780
Cl8   Cl    Cl    0.712580 0.422718 0.097756 -0.584882
Cl9   Cl    Cl    0.277392 0.570255 0.956845 -0.541243
Cl10  Cl    Cl    0.265687 0.008388 0.545037 -0.484395
Cl11  Cl    Cl    0.738079 0.971703 0.467958 -0.557139
Cl12  Cl    Cl    0.525044 0.250155 0.049410 -0.541830
H1    H     H_    0.527564 0.887600 0.647045 0.153483
H2    H     H_    0.429710 0.520421 0.182692 0.177521
H3    H     H_    0.009797 0.573035 0.338827 0.196691
H4    H     H_    0.021286 0.420117 0.652007 0.199198
H5    H     H_    0.743223 0.072427 0.755204 0.263034
H6    H     H_    0.705517 0.233215 0.722523 0.240865
H7    H     H_    0.600273 0.204235 0.768219 0.226041
H8    H     H_    0.647085 0.250003 0.646199 0.239272
H9    H     H_    0.257447 0.928371 0.243717 0.270740
H10   H     H_    0.402046 0.795181 0.234656 0.216347
H11   H     H_    0.296469 0.769212 0.271759 0.290784
H12   H     H_    0.473726 0.107512 0.355951 0.173420
H13   H     H_    0.348196 0.749379 0.355006 0.235757
H14   H     H_    0.052169 0.750939 0.768157 0.257544
H15   H     H_    0.207672 0.727252 0.749691 0.250655
H16   H     H_    0.243031 0.675283 0.662151 0.231930
H17   H     H_    0.196870 0.615838 0.780414 0.237015
H18   H     H_    0.811828 0.301532 0.377148 0.221526
H19   H     H_    0.853044 0.202098 0.300964 0.227341
H20   H     H_    0.956054 0.233885 0.229219 0.241324
H21   H     H_    0.849512 0.302043 0.205032 0.271834
H22   H     H_    0.786108 0.719717 0.881169 0.211922
H23   H     H_    0.023367 0.651550 0.417479 0.207553
H24   H     H_    0.866776 0.769326 0.921349 0.210412
H25   H     H_    0.776209 0.781724 0.024975 0.254910
H26   H     H_    0.770747 0.866617 0.916251 0.226122
H27   H     H_    0.264394 0.243099 0.924450 0.275474
H28   H     H_    0.416938 0.240314 0.797641 0.204951
H29   H     H_    0.364482 0.360092 0.754297 0.230382
H30   H     H_    0.317326 0.278049 0.762066 0.290435
H31   H     H_    0.006666 0.341161 0.574309 0.189887
H32   H     H_    0.626953 0.533321 0.917641 0.144919
H33   H     H_    0.351774 0.447951 0.148462 0.186463
H34   H     H_    0.459602 0.853514 0.565396 0.151196
H35   H     H_    0.542281 0.141234 0.437278 0.158568
H36   H     H_    0.550334 0.459912 0.884520 0.143827
N1    N     N_2   0.714531 0.114924 0.703543 -0.271346
N2    N     N_2   0.285581 0.885571 0.295693 -0.273605
N3    N     N_2   0.101939 0.723847 0.717694 -0.273274
N4    N     N_2   0.862722 0.314654 0.316898 -0.307510
N5    N     N_2   0.746993 0.746910 0.934490 -0.298370
N6    N     N_2   0.293528 0.295512 0.886541 -0.272487
O1    O     O_R   0.982940 0.138950 0.510160 -0.577174
O2    O     O_R   0.982940 0.510160 0.138950 -0.582043
O3    O     O_R   0.861050 0.017060 0.489840 -0.571800
O4    O     O_R   0.138950 0.982940 0.510160 -0.553555
O5    O     O_R   0.867700 0.025880 0.612340 -0.640432
O6    O     O_R   0.132300 0.974120 0.387660 -0.626676
O7    O     O_R   0.025880 0.612340 0.867700 -0.662601
O8    O     O_R   0.974120 0.387660 0.132300 -0.635412
O9    O     O_R   0.612340 0.867700 0.025880 -0.629863
O10   O     O_R   0.387660 0.132300 0.974120 -0.642407
O11   O     O_R   0.387660 0.974120 0.132300 -0.643468
O12   O     O_R   0.017060 0.861050 0.489840 -0.568457
O13   O     O_R   0.612340 0.025880 0.867700 -0.652713
O14   O     O_R   0.132300 0.387660 0.974120 -0.618519
O15   O     O_R   0.867700 0.612340 0.025880 -0.639090
O16   O     O_R   0.974120 0.132300 0.387660 -0.644638
O17   O     O_R   0.025880 0.867700 0.612340 -0.639971
O18   O     O_R   0.138950 0.510160 0.982940 -0.556092
O19   O     O_R   0.861050 0.489840 0.017060 -0.578457
O20   O     O_R   0.510160 0.982940 0.138950 -0.549265
O21   O     O_R   0.489840 0.017060 0.861050 -0.562044
O22   O     O_R   0.489840 0.861050 0.017060 -0.571388
O23   O     O_R   0.510160 0.138950 0.982940 -0.567480
O24   O     O_R   0.017060 0.489840 0.861050 -0.576426
Zn1   Zn    Zn3+2 0.004880 0.004880 0.583590 1.065422
Zn2   Zn    Zn3+2 0.995120 0.995120 0.416410 1.063331
Zn3   Zn    Zn3+2 0.004880 0.583590 0.004880 1.043080
Zn4   Zn    Zn3+2 0.995120 0.416410 0.995120 1.051722
Zn5   Zn    Zn3+2 0.583590 0.004880 0.004880 1.057066
Zn6   Zn    Zn3+2 0.416410 0.995120 0.995120 1.074078

loop_
_geom_bond_atom_site_label_1
_geom_bond_atom_site_label_2
_ccdc_geom_bond_type
C16   C28   A    
C21   H3    S    
C11   C18   A    
C46   C59   A    
C40   Cl12  S    
O5    Zn1   S    
C34   C42   A    
C68   H19   S    
C64   H6    S    
C13   C25   A    
C68   N4    S    
C23   C43   A    
C70   H30   S    
C2    O19   A    
C18   C25   A    
H22   N5    S    
C42   Cl3   S    
C61   N4    S    
O7    Zn3   S    
C7    O7    A    
O10   Zn6   S    
C33   Cl6   S    
C31   Cl1   S    
C35   C48   A    
O16   Zn2   S    
C64   N1    S    
C55   C61   A    
C1    C31   A    
O9    Zn5   S    
C5    O9    A    
C34   C35   A    
C66   H16   S    
O18   Zn3   S    
C19   C26   A    
C50   C72   S    
C6    O10   A    
C28   H32   S    
O1    Zn1   S    
C32   Cl5   S    
C37   C56   A    
C69   H25   S    
C8    O2    A    
O20   Zn5   S    
C19   H34   S    
C44   C58   A    
C40   C56   A    
C30   H23   S    
C1    C11   S    
C3    O11   A    
C24   C28   A    
C15   C34   S    
C70   N6    S    
C59   N2    S    
O17   Zn1   S    
C39   C52   A    
C29   H31   S    
C69   N5    S    
C5    O22   A    
C12   C32   A    
C50   C63   A    
C6    O23   A    
C66   H17   S    
C37   Cl9   S    
C9    C52   S    
C14   C30   A    
H18   N4    S    
C10   C51   S    
C8    C55   S    
C69   H24   S    
C15   C29   A    
C71   O12   A    
C20   C29   A    
C9    O5    A    
C70   H29   S    
H14   N3    S    
C24   H36   S    
C17   C24   A    
C31   C44   A    
C13   C19   A    
C8    O8    A    
C17   C27   A    
C14   C20   A    
C5    C54   S    
H9    N2    S    
O3    Zn2   S    
C36   Cl8   S    
C1    C39   A    
C57   C60   A    
C38   C51   A    
C4    C44   S    
C11   C26   A    
C23   C33   A    
C4    O21   A    
O11   Zn6   S    
C66   H15   S    
C60   N3    S    
C10   O4    A    
C2    C49   S    
C67   O1    A    
C42   C55   A    
C7    O24   A    
C69   H26   S    
O13   Zn5   S    
H27   N6    S    
C36   C45   A    
C65   N2    S    
O21   Zn6   S    
C17   C56   S    
C47   C71   S    
C52   C58   A    
O2    Zn3   S    
C3    O20   A    
O19   Zn4   S    
C65   H10   S    
C22   C27   A    
O6    Zn2   S    
C51   C59   A    
C68   H21   S    
C64   H8    S    
C6    C53   S    
C47   C60   A    
C71   O17   A    
C27   H33   S    
C43   Cl4   S    
C72   O18   A    
C58   N1    S    
C16   C22   A    
C49   C62   A    
C32   C46   A    
C68   H20   S    
C16   C45   S    
C62   N5    S    
C9    O3    A    
C14   C23   S    
C54   C62   A    
C21   C30   A    
C3    C46   S    
O12   Zn2   S    
O23   Zn5   S    
C39   Cl11  S    
C72   O14   A    
C41   Cl2   S    
C37   C50   A    
C53   C63   A    
O15   Zn3   S    
C48   C61   A    
O8    Zn4   S    
C15   C21   A    
H5    N1    S    
C26   H1    S    
C33   C47   A    
C20   H4    S    
C35   Cl7   S    
C22   H2    S    
C48   C67   S    
C12   C38   A    
C70   H28   S    
C10   O6    A    
C41   C54   A    
C63   N6    S    
C43   C57   A    
C65   H13   S    
C65   H11   S    
C12   C13   S    
C25   H12   S    
C40   C53   A    
O24   Zn4   S    
O4    Zn1   S    
C2    O15   A    
C41   C45   A    
C66   N3    S    
O22   Zn6   S    
C64   H7    S    
C67   O16   A    
C18   H35   S    
C7    C57   S    
C38   Cl10  S    
C36   C49   A    
O14   Zn4   S    
C4    O13   A    
