data_mof_unit_22221.cif
_audit_creation_date              2012-12-10T17:29:21-0500
_audit_creation_method            fapswitch 2.2
_symmetry_space_group_name_H-M    P1
_symmetry_Int_Tables_number       1
_space_group_crystal_system       triclinic
_cell_length_a                    12.074581
_cell_length_b                    12.828084
_cell_length_c                    12.983695
_cell_angle_alpha                 86.404585
_cell_angle_beta                  113.638415
_cell_angle_gamma                 94.250578
_cell_volume                      1836.08456887

loop_
_atom_site_label
_atom_site_type_symbol
_atom_type_description
_atom_site_fract_x
_atom_site_fract_y
_atom_site_fract_z
_atom_type_partial_charge
C1    C     C_R   0.477234 0.299577 0.499986 0.976261
C2    C     C_R   0.612855 0.487058 0.833029 -0.107685
C3    C     C_R   0.538524 0.811806 0.505824 -0.057676
C4    C     C_R   0.567167 0.493406 0.709635 0.894868
C5    C     C_R   0.461114 0.188022 0.497977 -0.285500
C6    C     C_R   0.340753 0.034200 0.413300 0.633856
C7    C     C_R   0.350077 0.140859 0.428644 -0.338505
C8    C     C_R   0.561513 0.129207 0.557119 0.578376
C9    C     C_R   0.554440 0.023471 0.539781 -0.038431
C10   C     C_R   0.443314 0.975587 0.466864 -0.049711
C11   C     C_R   0.436806 0.869771 0.449983 -0.159915
C12   C     C_R   0.557196 0.477379 0.992721 -0.057943
C13   C     C_R   0.649018 0.859169 0.575528 -0.262553
C14   C     C_R   0.657098 0.965142 0.592760 -0.072021
C15   C     C_R   0.013813 0.604535 0.399762 -0.210824
C16   C     C_R   0.522887 0.700408 0.500959 0.839065
C17   C     C_R   0.132462 0.594230 0.409844 -0.132421
C18   C     C_R   0.154759 0.451216 0.539669 0.772400
C19   C     C_R   0.035913 0.460318 0.534313 -0.185848
C20   C     C_R   0.965047 0.539450 0.464970 0.004079
C21   C     C_R   0.846847 0.550835 0.461537 0.278484
C22   C     C_R   0.868023 0.404246 0.588153 0.732810
C23   C     C_R   0.534530 0.447371 0.883758 -0.148063
C24   C     C_R   0.986513 0.392997 0.596533 -0.317563
C25   C     C_R   0.432387 0.501547 0.291138 0.883423
C26   C     C_R   0.274973 0.370357 0.019048 -0.203156
C27   C     C_R   0.385414 0.486846 0.170838 -0.119155
C28   C     C_R   0.729680 0.528975 0.901383 0.152368
C29   C     C_R   0.762528 0.534459 0.017296 -0.306165
C30   C     C_R   0.676596 0.511266 0.062801 0.610009
C31   C     C_3   0.108897 0.439529 0.149613 -0.708470
C32   C     C_3   0.827132 0.741071 0.439311 -0.771852
C33   C     C_3   0.454242 0.710650 0.157919 -0.805153
C34   C     C_R   0.460913 0.466390 0.028652 -0.037565
C35   C     C_3   0.804743 0.675008 0.818565 -0.745393
C36   C     C_R   0.361891 0.394587 0.974149 -0.072539
C37   C     C_R   0.352256 0.347909 0.876219 0.662212
C38   C     C_R   0.435521 0.377152 0.829281 -0.162077
C39   C     C_R   0.457111 0.526748 0.114056 0.227597
C40   C     C_R   0.289170 0.412390 0.120464 0.124966
F1    F     F_    0.233267 0.989188 0.343969 -0.664104
F2    F     F_    0.666386 0.175322 0.630194 -0.602609
F3    F     F_    0.824239 0.340033 0.651370 -0.579821
F4    F     F_    0.260306 0.277029 0.823822 -0.642825
F5    F     F_    0.222312 0.372706 0.602467 -0.651074
F6    F     F_    0.712126 0.516779 0.175748 -0.673312
H1    H     H_    0.727667 0.813915 0.619270 0.159814
H2    H     H_    0.351987 0.831500 0.395562 0.191258
H3    H     H_    0.184410 0.297228 0.163099 0.237093
H4    H     H_    0.046827 0.434775 0.059438 0.224450
H5    H     H_    0.139926 0.522456 0.169109 0.241688
H6    H     H_    0.058499 0.411067 0.201959 0.246172
H7    H     H_    0.688685 0.628692 0.359636 0.309234
H8    H     H_    0.756672 0.781818 0.452508 0.249625
H9    H     H_    0.849958 0.787824 0.374999 0.251764
H10   H     H_    0.908800 0.738445 0.519651 0.238235
H11   H     H_    0.557392 0.655760 0.083305 0.246594
H12   H     H_    0.742955 0.000793 0.648126 0.205362
H13   H     H_    0.507099 0.786460 0.164660 0.252421
H14   H     H_    0.442601 0.696529 0.238065 0.225533
H15   H     H_    0.364497 0.717613 0.086899 0.245508
H16   H     H_    0.902165 0.548740 0.904644 0.228769
H17   H     H_    0.832065 0.725165 0.892465 0.234421
H18   H     H_    0.710419 0.690449 0.760189 0.234999
H19   H     H_    0.865424 0.695386 0.773993 0.234306
H20   H     H_    0.272464 0.187134 0.383032 0.214851
H21   H     H_    0.961192 0.662914 0.340177 0.200611
H22   H     H_    0.039148 0.331823 0.651819 0.266369
H23   H     H_    0.169038 0.645541 0.360456 0.165722
H24   H     H_    0.199901 0.314622 0.979174 0.211710
H25   H     H_    0.853216 0.561925 0.071406 0.169413
H26   H     H_    0.425460 0.341081 0.752696 0.220399
N1    N     N_R   0.798200 0.480260 0.519790 -0.187249
N2    N     N_R   0.201820 0.519740 0.480210 -0.142767
N3    N     N_2   0.210831 0.375511 0.174166 -0.286553
N4    N     N_2   0.780812 0.637390 0.398471 -0.259753
N5    N     N_2   0.519065 0.628308 0.138408 -0.267709
N6    N     N_2   0.814112 0.565949 0.854623 -0.261375
O1    O     O_R   0.579910 0.341070 0.505280 -0.527679
O2    O     O_R   0.388440 0.353740 0.492580 -0.585495
O3    O     O_R   0.643280 0.490550 0.663120 -0.543470
O4    O     O_R   0.451810 0.503220 0.650420 -0.596481
O5    O     O_R   0.611560 0.646260 0.507420 -0.635691
O6    O     O_R   0.420090 0.658930 0.494720 -0.621822
O7    O     O_R   0.548190 0.496780 0.349580 -0.609573
O8    O     O_R   0.356720 0.509450 0.336880 -0.609266
Zn1   Zn    Zn3+2 0.627850 0.491540 0.508480 1.035305
Zn2   Zn    Zn3+2 0.372150 0.508460 0.491520 0.992414

loop_
_geom_bond_atom_site_label_1
_geom_bond_atom_site_label_2
_ccdc_geom_bond_type
O5    Zn1   S    
C17   H23   S    
C19   C20   A    
C31   H6    S    
C26   C40   A    
O1    Zn1   S    
C12   C23   A    
C37   C38   A    
C1    C5    S    
C39   N5    S    
C36   C37   A    
C8    F2    S    
O8    Zn2   S    
C35   H19   S    
C21   N1    A    
C16   O6    A    
C18   C19   A    
N1    Zn1   S    
C4    O3    A    
C27   C39   A    
C8    C9    A    
C6    F1    S    
H3    N3    S    
C35   H18   S    
C28   N6    S    
C9    C10   A    
C32   H9    S    
C3    C13   A    
C33   H13   S    
C13   C14   A    
C11   H2    S    
C32   H8    S    
H16   N6    S    
O7    Zn1   S    
C15   C20   A    
C14   H12   S    
C38   H26   S    
C34   C39   A    
H11   N5    S    
C13   H1    S    
C16   O5    A    
C2    C4    S    
C9    C14   A    
C32   N4    S    
C29   C30   A    
C18   N2    A    
C31   N3    S    
C22   F3    S    
C21   N4    S    
C27   C40   A    
C15   H21   S    
C25   O7    A    
O3    Zn1   S    
C26   C36   A    
C33   H14   S    
C17   N2    A    
C26   H24   S    
C22   C24   A    
H7    N4    S    
C31   H4    S    
C12   C34   A    
C18   F5    S    
C1    O1    A    
C5    C7    A    
C15   C17   A    
C28   C29   A    
C12   C30   A    
C30   F6    S    
O6    Zn2   S    
C31   H5    S    
C6    C10   A    
C5    C8    A    
C2    C28   A    
C6    C7    A    
C25   C27   S    
C23   C38   A    
C35   N6    S    
C40   N3    S    
C37   F4    S    
C19   C24   A    
O2    Zn2   S    
C7    H20   S    
C33   N5    S    
O4    Zn2   S    
C25   O8    A    
C34   C36   A    
C3    C11   A    
C10   C11   A    
C24   H22   S    
C4    O4    A    
C20   C21   A    
C33   H15   S    
C2    C23   A    
C1    O2    A    
C35   H17   S    
C22   N1    A    
N2    Zn2   S    
C32   H10   S    
C3    C16   S    
C29   H25   S    
