data_mof_unit_68321.cif
_audit_creation_date              2013-03-05T15:41:47-0500
_audit_creation_method            fapswitch 2.2
_symmetry_space_group_name_H-M    P1
_symmetry_Int_Tables_number       1
_space_group_crystal_system       triclinic
_cell_length_a                    8.336367
_cell_length_b                    15.183682
_cell_length_c                    15.383297
_cell_angle_alpha                 97.614516
_cell_angle_beta                  99.413406
_cell_angle_gamma                 97.281945
_cell_volume                      1881.94615288

loop_
_atom_site_label
_atom_site_type_symbol
_atom_site_description
_atom_site_fract_x
_atom_site_fract_y
_atom_site_fract_z
_atom_type_partial_charge
P1    P     P_3+3 0.004200 0.709230 0.580350 0.519625
O1    O     O_2   0.174080 0.723060 0.553930 -0.390215
O2    O     O_3   0.901570 0.609580 0.550840 -0.323626
O3    O     O_3   0.370350 0.665080 0.388270 -0.327272
O4    O     O_2   0.320456 0.820929 0.467673 -0.352635
O5    O     O_3   0.024015 0.736060 0.697364 -0.566111
O6    O     O_3   0.310319 0.816921 0.299381 -0.455035
C1    C     C_3   0.324225 0.838253 0.147505 -0.647207
H1    H     H_    0.190777 0.841198 0.140493 0.244728
P2    P     P_3+3 0.305000 0.425570 0.290900 0.515200
P3    P     P_3+3 0.880246 0.618093 0.227309 0.628252
O7    O     O_2   0.134790 0.452800 0.278150 -0.247859
O8    O     O_3   0.937650 0.618620 0.340860 -0.318796
O9    O     O_2   0.997740 0.562217 0.184399 -0.229271
O10   O     O_3   0.264887 0.308373 0.266033 -0.557212
O11   O     O_3   0.939549 0.727166 0.207069 -0.414346
C2    C     C_3   0.809614 0.775126 0.219315 0.221752
H2    H     H_    0.780918 0.772602 0.287204 0.064257
H3    H     H_    0.698923 0.745649 0.168002 0.047606
C3    C     C_3   0.852820 0.874243 0.210338 0.061821
C4    C     C_3   0.653173 0.301241 0.257701 0.119077
H4    H     H_    0.573525 0.330501 0.300914 0.077798
C5    C     C_3   0.538311 0.237222 0.180175 -0.684098
H5    H     H_    0.451819 0.192856 0.208144 0.214524
H6    H     H_    0.464975 0.277977 0.139893 0.212574
Ba1   Ba    Ba6+2 0.154730 0.543770 0.458180 1.536293
C6    C     C_3   0.180731 0.735076 0.747723 0.419466
H7    H     H_    0.248298 0.687822 0.713021 0.055189
C7    C     C_3   0.280901 0.829354 0.767545 -0.910583
H8    H     H_    0.345876 0.839870 0.712060 0.233753
H9    H     H_    0.378163 0.837947 0.828022 0.277651
H10   H     H_    0.200145 0.881370 0.777010 0.293988
C8    C     C_3   0.210850 0.271754 0.336887 0.234426
H11   H     H_    0.085184 0.286075 0.339839 0.118420
H12   H     H_    0.293925 0.298777 0.401647 0.070059
C9    C     C_3   0.208876 0.170285 0.320533 0.147286
H13   H     H_    0.139167 0.137110 0.365564 0.090468
H14   H     H_    0.336498 0.155255 0.333560 0.100378
P4    P     P_3+3 0.806080 0.290760 0.419570 0.485537
O12   O     O_2   0.636200 0.276890 0.446040 -0.375209
O13   O     O_3   0.908720 0.390410 0.449080 -0.349708
O14   O     O_3   0.439930 0.334910 0.611650 -0.406763
O15   O     O_3   0.765173 0.254922 0.303552 -0.563805
P5    P     P_3+3 0.921356 0.387541 0.776197 0.509620
O16   O     O_3   0.402060 0.547860 0.609750 -0.408330
O17   O     O_3   0.872630 0.381370 0.659060 -0.319638
O18   O     O_2   0.789703 0.434944 0.815392 -0.377805
O19   O     O_3   0.894685 0.278663 0.804353 -0.536323
Ba2   Ba    Ba6+2 0.655430 0.456220 0.541750 1.625433
P6    P     P_3+3 0.412858 0.782746 0.395879 0.535886
C10   C     C_3   0.380422 0.788846 0.225214 0.908289
H15   H     H_    0.515563 0.801518 0.242593 -0.383290
H16   H     H_    0.344704 0.800447 0.084232 0.185843
O20   O     O_3   0.408220 0.452130 0.390170 -0.416261
C11   C     C_3   0.606525 0.733208 0.676833 0.417657
H17   H     H_    0.690689 0.692409 0.646668 0.127432
H18   H     H_    0.498792 0.736255 0.624850 0.081324
C12   C     C_3   0.699260 0.827958 0.710471 -0.897893
H19   H     H_    0.814959 0.825561 0.756777 0.296836
H20   H     H_    0.728499 0.860752 0.653663 0.207894
H21   H     H_    0.624905 0.869599 0.747279 0.256117
P7    P     P_3+3 0.503726 0.580855 0.721984 0.469122
O21   O     O_2   0.675490 0.547140 0.721820 -0.282496
O22   O     O_3   0.552916 0.697952 0.748827 -0.541800
H22   H     H_    0.749905 0.909006 0.227005 0.047764
C13   C     C_3   0.984699 0.221733 0.757615 0.305667
H23   H     H_    0.067406 0.258557 0.719904 -0.019469
C14   C     C_3   0.097625 0.177498 0.823185 -0.766653
H24   H     H_    0.178583 0.141561 0.785081 0.193702
H25   H     H_    0.176597 0.230953 0.873343 0.188745
P8    P     P_3+3 0.388510 0.217975 0.598046 0.472426
C15   C     C_3   0.491731 0.247753 0.769612 0.340184
H26   H     H_    0.370978 0.269395 0.774841 -0.008895
O23   O     O_2   0.487120 0.181123 0.528922 -0.306187
O24   O     O_3   0.480079 0.182521 0.694882 -0.493116
H27   H     H_    0.579083 0.306830 0.764507 0.173061
H28   H     H_    0.454663 0.160207 0.868098 0.222626
C16   C     C_3   0.555818 0.206127 0.851487 -0.798345
H29   H     H_    0.650709 0.164709 0.835424 0.266853
C17   C     C_R   0.170720 0.166713 0.552459 0.102707
C18   C     C_R   0.105409 0.072864 0.543373 -0.053411
C19   C     C_R   0.958042 0.887254 0.528927 -0.002420
C20   C     C_R   0.114858 0.919205 0.575276 -0.116017
C21   C     C_R   0.192565 0.006378 0.579131 -0.092745
C22   C     C_R   0.891297 0.794155 0.521679 0.240776
H30   H     H_    0.184431 0.874138 0.605991 0.154981
C23   C     C_R   0.730832 0.766491 0.474345 -0.483012
C24   C     C_R   0.911481 0.200214 0.471522 0.303279
C25   C     C_R   0.844380 0.106153 0.459784 0.004901
C26   C     C_R   0.939532 0.043154 0.497312 0.071686
C27   C     C_R   0.683806 0.072863 0.413578 -0.025663
C28   C     C_R   0.614410 0.982624 0.407846 -0.111407
C29   C     C_R   0.703995 0.919562 0.444142 -0.029038
C30   C     C_R   0.867853 0.949678 0.488914 0.077765
C31   C     C_R   0.634659 0.827451 0.438099 0.133042
C32   C     C_R   0.072298 0.226367 0.517061 -0.542514
H31   H     H_    0.487426 0.963158 0.376368 0.212969
H32   H     H_    0.607942 0.116729 0.382800 0.149162
H33   H     H_    0.676436 0.697126 0.470136 0.159478
H34   H     H_    0.127128 0.294142 0.517550 0.173500
C33   C     C_R   0.220992 0.490194 0.768858 -0.597349
C34   C     C_R   0.130825 0.449006 0.824250 0.245623
C35   C     C_R   0.199954 0.451672 0.913485 -0.270285
C36   C     C_R   0.364700 0.492936 0.950847 0.049018
C37   C     C_R   0.451513 0.533495 0.889426 -0.106903
C38   C     C_R   0.384828 0.528113 0.799008 0.166608
C39   C     C_R   0.605425 0.543067 0.088011 -0.189246
C40   C     C_R   0.660601 0.566287 0.180939 0.111646
C41   C     C_R   0.411666 0.480787 0.208293 0.197230
C42   C     C_R   0.353137 0.458052 0.114648 -0.196200
C43   C     C_R   0.440809 0.497618 0.051446 0.089252
C44   C     C_R   0.557669 0.540809 0.239538 -0.339578
H35   H     H_    0.115120 0.423059 0.949827 0.166132
H36   H     H_    0.565579 0.576907 0.908029 0.154922
H37   H     H_    0.599407 0.560687 0.310631 0.138337
Cl1   Cl    Cl    0.310975 0.673165 0.186004 -0.610035
C45   C     C_2   0.620087 0.179508 0.118817 1.249791
O25   O     O_2   0.534239 0.127754 0.055980 -0.598492
O26   O     O_R   0.791014 0.185425 0.131640 -0.674255
H38   H     H_    0.828015 0.144326 0.083853 0.390693
C46   C     C_2   0.157859 0.705157 0.835507 0.966495
O27   O     O_2   0.019661 0.684370 0.850805 -0.548655
O28   O     O_R   0.295422 0.701826 0.899781 -0.815376
H39   H     H_    0.264428 0.679823 0.955096 0.344044
Cl2   Cl    Cl    0.115980 0.123697 0.208705 -0.458501
C47   C     C_2   0.416174 0.931282 0.158854 1.098838
O29   O     O_2   0.508558 0.950174 0.107794 -0.600808
O30   O     O_R   0.394257 0.996322 0.226749 -0.740775
H40   H     H_    0.473274 0.053758 0.231868 0.299988
C48   C     C_2   0.865644 0.153445 0.690256 0.957480
O31   O     O_2   0.772096 0.179864 0.633541 -0.542643
O32   O     O_R   0.861010 0.061233 0.691336 -0.828803
H41   H     H_    0.771483 0.023560 0.643750 0.338315
C49   C     C_2   0.010939 0.111356 0.871392 1.277696
O33   O     O_2   0.921277 0.135879 0.921987 -0.627160
O34   O     O_R   0.036880 0.021706 0.859236 -0.760897
H42   H     H_    0.972742 0.983462 0.895011 0.328922
C50   C     C_2   0.628035 0.275968 0.931480 1.245491
O35   O     O_2   0.773546 0.283822 0.964214 -0.472548
O36   O     O_R   0.530006 0.330701 0.970765 -0.766906
H43   H     H_    0.413756 0.319967 0.936268 0.284821
C51   C     C_2   0.367571 0.016379 0.618137 1.116541
O37   O     O_2   0.469711 0.016986 0.569743 -0.619721
O38   O     O_R   0.413650 0.011950 0.708857 -0.798087
H44   H     H_    0.536692 0.014825 0.727719 0.335473
C52   C     C_2   0.735716 0.553584 0.034356 1.062110
O39   O     O_2   0.797872 0.628703 0.026076 -0.568576
O40   O     O_R   0.796293 0.478225 0.998928 -0.677867
H45   H     H_    0.898459 0.495758 0.973836 0.345544
C53   C     C_2   0.209166 0.386392 0.087395 1.044000
O41   O     O_2   0.074698 0.401362 0.101843 -0.491746
O42   O     O_R   0.225133 0.302117 0.044204 -0.816580
H46   H     H_    0.119183 0.258281 0.033466 0.386145
C54   C     C_2   0.129842 0.505512 0.684561 1.113817
O43   O     O_2   0.024297 0.553405 0.686922 -0.548544
O44   O     O_R   0.133915 0.451114 0.605523 -0.689347
H47   H     H_    0.212288 0.407162 0.616682 0.275758
Cl3   Cl    Cl    0.030605 0.925992 0.290144 -0.538788
C55   C     C_2   0.874104 0.887938 0.117264 1.103215
O45   O     O_2   0.883608 0.963650 0.097913 -0.546454
O46   O     O_R   0.879525 0.815053 0.052530 -0.736086
H48   H     H_    0.893665 0.833773 0.993030 0.341248
C56   C     C_2   0.750607 0.376022 0.227030 1.007193
O47   O     O_2   0.768021 0.373083 0.149569 -0.501892
O48   O     O_R   0.829205 0.448737 0.289709 -0.710537
H49   H     H_    0.771253 0.458838 0.342127 0.282882

loop_
_geom_bond_atom_site_label_1
_geom_bond_atom_site_label_2
_geom_bond_distance
_ccdc_geom_bond_type
C13   C14   1.544012 S    
C11   H17   1.109900 S    
C24   C32   1.389188 A    
O48   H49   1.010241 S    
C4    C56   1.484968 S    
C6    C7    1.528866 S    
C56   O47   1.219470 D    
C15   H27   1.101298 S    
O30   H40   1.009883 S    
C2    C3    1.532210 S    
O46   H48   1.014014 S    
C6    C46   1.513656 S    
O28   H39   1.013811 S    
P4    O13   1.609426 S    
H28   C16   1.109587 S    
O17   Ba2   2.796980 S    
C47   O29   1.222276 D    
C20   C21   1.387217 A    
Ba2   O21   2.895435 S    
C28   C29   1.404593 A    
C9    H13   1.105104 S    
C56   O48   1.380522 S    
C7    H10   1.111106 S    
P2    O10   1.746883 S    
C45   O26   1.395801 S    
C55   O45   1.221374 D    
C17   C18   1.439501 A    
P3    O9    1.545516 D    
P6    C31   1.863761 S    
C12   H20   1.106927 S    
O12   Ba2   2.890899 S    
C16   C50   1.500414 S    
O16   P7    1.770497 S    
C8    C9    1.525365 S    
P2    C41   1.889820 S    
P1    O1    1.533088 D    
C42   C43   1.454746 A    
P8    C17   1.864016 S    
C15   C16   1.532228 S    
Ba1   O16   2.836929 S    
C8    H12   1.111022 S    
C4    O15   1.395131 S    
C9    Cl2   1.778296 S    
O32   H41   1.011023 S    
C3    C55   1.509102 S    
C23   C31   1.410349 A    
P7    O22   1.750718 S    
C39   C40   1.410566 A    
C55   O46   1.397756 S    
O16   Ba2   2.928091 S    
C17   C32   1.401103 A    
Ba2   O20   2.836447 S    
C54   O44   1.384246 S    
P5    O18   1.545253 D    
P2    Ba1   3.436964 S    
C12   H21   1.106283 S    
C13   H23   1.115179 S    
C29   C31   1.428916 A    
C3    Cl3   1.781877 S    
C4    H4    1.105007 S    
C13   C48   1.500608 S    
P4    C24   1.915354 S    
C15   O24   1.396188 S    
P2    O20   1.598148 S    
Ba1   O20   2.928995 S    
O13   Ba2   2.937898 S    
C36   C37   1.435502 A    
P5    O17   1.768336 S    
C28   H31   1.075880 S    
C26   C30   1.448911 A    
C52   O40   1.390150 S    
C22   C23   1.397835 A    
P1    C22   1.923909 S    
C10   H15   1.100269 S    
O2    Ba2   2.874148 S    
C33   C34   1.383391 A    
C37   H36   1.059569 S    
O36   H43   1.008044 S    
Ba1   Ba2   4.641724 S    
C27   C28   1.403622 A    
C39   C52   1.473338 S    
P5    C34   1.857003 S    
C16   H29   1.109582 S    
C1    H1    1.107193 S    
P4    O15   1.759024 S    
C12   H19   1.109079 S    
C40   C44   1.399957 A    
O7    Ba1   2.895312 S    
P1    O2    1.609398 S    
C48   O32   1.398122 S    
C7    H8    1.101300 S    
C36   C43   1.562279 S    
P3    O11   1.750309 S    
C3    H22   1.109640 S    
O3    Ba1   2.845744 S    
O5    C6    1.408586 S    
C21   C51   1.464543 S    
C5    H5    1.101797 S    
C11   O22   1.403995 S    
P7    O21   1.580831 D    
C2    H2    1.113268 S    
C54   O43   1.212409 D    
O1    Ba1   2.890454 S    
C29   C30   1.414141 A    
O40   H45   1.011217 S    
C1    C10   1.534544 S    
C46   O27   1.224116 D    
P2    O7    1.517220 D    
P7    C38   1.860685 S    
C18   C26   1.433310 A    
C1    C47   1.493196 S    
P4    Ba2   3.426669 S    
C19   C20   1.376715 A    
C4    C5    1.538617 S    
P1    Ba1   3.426040 S    
C51   O38   1.398496 S    
O8    Ba1   2.796475 S    
C41   C44   1.397982 A    
C25   C27   1.405212 A    
C19   C30   1.423531 A    
P4    O12   1.533456 D    
C18   C21   1.432463 A    
C52   O39   1.223078 D    
C33   C38   1.390930 A    
O44   H47   1.002944 S    
C47   O30   1.390799 S    
P1    O5    1.767708 S    
C35   H35   1.056993 S    
C51   O37   1.219215 D    
C39   C43   1.442352 A    
C14   H24   1.111217 S    
O2    Ba1   2.936901 S    
O6    P6    1.762122 S    
C15   H26   1.109555 S    
C42   C53   1.477699 S    
C1    H16   1.112280 S    
C5    C45   1.505413 S    
P8    O23   1.537677 D    
C49   O34   1.398231 S    
O26   H38   1.013095 S    
C49   O33   1.219495 D    
C50   O36   1.387203 S    
C19   C22   1.434845 A    
C37   C38   1.398502 A    
C10   Cl1   1.769567 S    
O38   H44   1.012981 S    
C11   H18   1.110678 S    
C48   O31   1.216447 D    
O6    C10   1.406183 S    
C7    H9    1.110953 S    
C45   O25   1.222258 D    
C9    H14   1.108173 S    
P8    O24   1.742496 S    
P3    O8    1.732692 S    
O11   C2    1.403352 S    
C33   C54   1.454480 S    
C32   H34   1.070296 S    
C14   C49   1.506457 S    
O14   P8    1.749051 S    
C2    H3    1.112793 S    
C8    H11   1.103405 S    
C53   O42   1.394044 S    
C5    H6    1.101928 S    
C27   H32   1.077101 S    
C34   C35   1.392380 A    
O4    P6    1.539824 D    
C46   O28   1.397256 S    
C50   O35   1.219355 D    
O14   Ba2   2.845045 S    
C23   H33   1.081824 S    
C20   H30   1.060435 S    
C24   C25   1.442684 A    
C14   H25   1.104515 S    
P3    C40   1.881274 S    
C11   C12   1.524799 S    
O3    P6    1.761172 S    
C35   C36   1.427346 A    
C53   O41   1.220805 D    
O34   H42   1.013993 S    
O42   H46   1.012182 S    
O19   C13   1.415431 S    
C25   C26   1.437492 A    
C41   C42   1.424096 A    
O10   C8    1.399234 S    
C44   H37   1.081491 S    
P5    O19   1.760143 S    
Ba1   O13   2.873471 S    
C6    H7    1.102881 S    
