data_mof_unit_65042.cif
_audit_creation_date              2013-03-05T15:41:01-0500
_audit_creation_method            fapswitch 2.2
_symmetry_space_group_name_H-M    P1
_symmetry_Int_Tables_number       1
_space_group_crystal_system       triclinic
_cell_length_a                    18.437729
_cell_length_b                    18.430986
_cell_length_c                    18.451427
_cell_angle_alpha                 119.648008
_cell_angle_beta                  90.390946
_cell_angle_gamma                 119.759807
_cell_volume                      4458.18004441

loop_
_atom_site_label
_atom_site_type_symbol
_atom_site_description
_atom_site_fract_x
_atom_site_fract_y
_atom_site_fract_z
_atom_type_partial_charge
Zn1   Zn    Zn3+2 0.542440 0.085830 0.956610 1.078326
Zn2   Zn    Zn3+2 0.543390 0.085850 0.129220 1.050321
Zn3   Zn    Zn3+2 0.543390 0.914160 0.957530 0.967612
Zn4   Zn    Zn3+2 0.370780 0.914160 0.956640 1.074989
O1    O     O_3   0.500000 0.000000 0.000000 -0.522616
O2    O     O_R   0.325020 0.939940 0.054210 -0.555590
O3    O     O_R   0.614240 0.060060 0.885070 -0.630265
O4    O     O_R   0.614900 0.229170 0.174980 -0.595149
O5    O     O_R   0.445840 0.770840 0.885740 -0.646910
O6    O     O_R   0.615830 0.060100 0.175880 -0.631431
O7    O     O_R   0.324090 0.939910 0.884220 -0.628834
O8    O     O_R   0.615830 0.939930 0.055710 -0.650695
O9    O     O_R   0.444240 0.060060 0.884190 -0.598194
O10   O     O_R   0.614240 0.229150 0.054160 -0.606731
O11   O     O_R   0.325020 0.770840 0.885120 -0.633906
O12   O     O_R   0.445840 0.060100 0.175010 -0.660231
O13   O     O_R   0.614900 0.939900 0.885710 -0.651588
C1    C     C_R   0.361224 0.997962 0.138443 0.831101
C2    C     C_R   0.639798 0.001294 0.862727 0.839681
C3    C     C_R   0.638693 0.277252 0.138366 0.859963
C4    C     C_R   0.361418 0.722936 0.861197 0.851971
C5    C     C_R   0.640354 0.000684 0.139533 0.859949
C6    C     C_R   0.360023 0.002109 0.861934 0.862108
C7    C     C_R   0.230734 0.053752 0.927527 0.325539
C8    C     C_R   0.158736 0.057656 0.946336 -0.150256
C9    C     C_R   0.100395 0.045890 0.887061 -0.202789
H1    H     H_    0.046936 0.052626 0.904055 0.164212
C10   C     C_R   0.113196 0.031095 0.808188 -0.166694
C11   C     C_R   0.181793 0.020789 0.783904 0.072057
C12   C     C_R   0.239959 0.028198 0.842705 -0.018682
C13   C     C_R   0.305283 0.011481 0.814211 -0.058744
C14   C     C_R   0.318833 0.001284 0.736193 -0.180662
C15   C     C_R   0.265667 0.000640 0.682376 -0.167533
C16   C     C_R   0.195749 0.007037 0.703728 -0.049735
C17   C     C_2   0.783026 0.948500 0.727312 -0.289683
C18   C     C_2   0.790702 0.985026 0.677885 0.195825
H2    H     H_    0.825861 0.926139 0.734008 0.165679
C19   C     C_2   0.720871 0.940157 0.776993 -0.117189
C20   C     C_2   0.701868 0.009139 0.814444 -0.206686
H3    H     H_    0.694020 0.879072 0.786247 0.181307
C21   C     C_2   0.280956 0.443784 0.721171 -0.148505
C22   C     C_2   0.192173 0.387721 0.696511 -0.277660
H4    H     H_    0.314743 0.406453 0.698707 0.184400
H5    H     H_    0.156015 0.421612 0.719145 0.162117
C23   C     C_2   0.337155 0.556084 0.779605 -0.149402
C24   C     C_2   0.304543 0.612295 0.803561 -0.270514
H6    H     H_    0.408228 0.593280 0.802658 0.182921
C25   C     C_2   0.280556 0.055183 0.336515 -0.115490
C26   C     C_2   0.192844 0.007400 0.305583 -0.205261
H7    H     H_    0.314537 0.096275 0.406376 0.181888
H8    H     H_    0.159360 0.972305 0.237190 0.188255
C27   C     C_2   0.334522 0.059462 0.278609 -0.261971
C28   C     C_2   0.305297 0.983177 0.192423 0.187554
H9    H     H_    0.400325 0.129821 0.308123 0.176499
C29   C     C_2   0.779677 0.941820 0.218303 -0.151475
C30   C     C_2   0.799501 0.995086 0.306247 -0.268364
H10   H     H_    0.806873 0.898392 0.185642 0.189424
H11   H     H_    0.770122 0.034872 0.340547 0.163628
C31   C     C_2   0.719618 0.937604 0.162276 -0.155702
C32   C     C_2   0.700413 0.006373 0.195225 -0.267199
H12   H     H_    0.691931 0.877139 0.091994 0.186256
C33   C     C_2   0.773495 0.556983 0.220414 -0.144811
C34   C     C_2   0.797369 0.613239 0.308613 -0.264005
H13   H     H_    0.767710 0.578132 0.343009 0.184316
C35   C     C_2   0.705395 0.446299 0.167768 0.192446
C36   C     C_2   0.705175 0.387567 0.192366 0.033449
Zn5   Zn    Zn3+2 0.957510 0.914170 0.543430 0.995554
Zn6   Zn    Zn3+2 0.956570 0.085840 0.542520 1.026331
Zn7   Zn    Zn3+2 0.956570 0.914150 0.370820 1.007810
Zn8   Zn    Zn3+2 0.129180 0.085840 0.543400 0.983343
O14   O     O_3   0.999960 0.000000 0.500040 -0.507353
O15   O     O_R   0.174930 0.229160 0.614920 -0.642772
O16   O     O_R   0.885720 0.770850 0.445880 -0.625801
O17   O     O_R   0.885050 0.060100 0.614330 -0.585305
O18   O     O_R   0.054120 0.939900 0.325040 -0.625111
O19   O     O_R   0.884120 0.060070 0.444330 -0.627286
O20   O     O_R   0.175860 0.060090 0.615830 -0.631723
O21   O     O_R   0.884120 0.939900 0.324160 -0.645092
O22   O     O_R   0.055710 0.939940 0.615850 -0.639761
O23   O     O_R   0.885720 0.939940 0.614980 -0.662650
O24   O     O_R   0.174930 0.060060 0.445830 -0.646340
O25   O     O_R   0.054120 0.229160 0.614300 -0.634090
O26   O     O_R   0.885050 0.770830 0.325070 -0.635428
C37   C     C_R   0.138396 0.277071 0.638863 0.850536
C38   C     C_R   0.860404 0.723111 0.361851 0.886211
C39   C     C_R   0.859652 0.998437 0.637039 0.751194
C40   C     C_R   0.138482 0.001288 0.361581 0.847796
C41   C     C_R   0.859568 0.999311 0.360510 0.859865
C42   C     C_R   0.139932 0.001488 0.641754 0.787471
H14   H     H_    0.369963 0.991267 0.715588 0.164969
H15   H     H_    0.733409 0.074443 0.810777 0.185904
H16   H     H_    0.234535 0.578519 0.780340 0.160986
N1    N     N_R   0.225086 0.882955 0.154077 0.199077
O27   O     O_R   0.171610 0.831995 0.074875 -0.338222
O28   O     O_R   0.210756 0.837877 0.194035 -0.361757
N2    N     N_R   0.297823 0.087711 0.999140 0.183839
O29   O     O_R   0.378901 0.163612 0.022939 -0.364202
O30   O     O_R   0.274593 0.063060 0.054223 -0.404511
H17   H     H_    0.730232 0.070522 0.264009 0.162384
H18   H     H_    0.798660 0.593122 0.185933 0.210974
N3    N     N_R   0.636412 0.404439 0.092722 0.222475
O31   O     O_R   0.655802 0.438539 0.043519 -0.351567
O32   O     O_R   0.553610 0.348660 0.084326 -0.324008
N4    N     N_R   0.777632 0.428263 0.263604 0.186279
O33   O     O_R   0.762046 0.401927 0.318429 -0.347836
O34   O     O_R   0.858953 0.479309 0.265892 -0.364337
H19   H     H_    0.150590 0.075775 0.009861 0.184158
H20   H     H_    0.069074 0.029326 0.767613 0.157915
H21   H     H_    0.277246 0.991408 0.621797 0.164486
N5    N     N_R   0.726394 0.999748 0.655120 0.205926
O35   O     O_R   0.751681 0.078397 0.653454 -0.348032
O36   O     O_R   0.642057 0.928334 0.625621 -0.364940

loop_
_geom_bond_atom_site_label_1
_geom_bond_atom_site_label_2
_geom_bond_distance
_ccdc_geom_bond_type
C29   C30   1.337969 D    
N1    O27   1.301160 A    
C29   C31   1.456177 S    
C21   C22   1.341604 D    
C26   C40   1.449859 S    
C17   C18   1.348909 D    
C35   N3    1.440575 S    
C32   H17   1.082389 S    
N4    O34   1.301725 A    
C23   C24   1.341356 D    
O6    C5    1.273798 A    
O20   C42   1.280389 A    
C9    H1    1.082813 S    
O4    C3    1.282424 A    
Zn3   O5    1.938172 S    
C3    C36   1.460886 S    
C10   C11   1.413689 A    
C17   H2    1.086752 S    
C7    N2    1.434834 S    
C5    C32   1.433793 S    
C12   C13   1.427857 A    
C30   C41   1.434297 S    
C24   H16   1.080805 S    
Zn6   O17   1.935011 S    
O8    C5    1.274702 A    
O9    C6    1.277281 A    
Zn7   O14   1.952795 S    
Zn8   O24   1.936677 S    
N5    O35   1.301129 A    
O23   C39   1.281425 A    
Zn3   O8    1.943504 S    
C1    C28   1.460532 S    
C14   H14   1.084242 S    
C26   H8    1.085095 S    
N2    O30   1.300935 A    
Zn3   O13   1.935053 S    
Zn8   O14   1.949172 S    
Zn5   O16   1.939597 S    
Zn2   O12   1.934965 S    
O19   C41   1.274617 A    
C25   H7    1.086197 S    
C31   C32   1.337011 D    
N3    O32   1.301054 A    
C34   C38   1.447923 S    
Zn8   O20   1.941491 S    
C21   H4    1.086362 S    
Zn7   O21   1.941335 S    
C22   H5    1.080802 S    
C20   H15   1.085214 S    
N4    O33   1.301091 A    
C27   H9    1.086566 S    
N5    O36   1.301733 A    
C23   H6    1.086366 S    
O2    C1    1.279701 A    
C31   H12   1.086588 S    
C28   N1    1.442436 S    
N3    O31   1.301117 A    
C36   N4    1.442568 S    
C17   C19   1.468375 S    
C22   C37   1.451115 S    
C7    C8    1.401512 A    
Zn4   O2    1.936782 S    
C18   C39   1.459684 S    
C8    C9    1.384916 A    
C11   C16   1.420558 A    
C6    C13   1.461267 S    
C11   C12   1.427599 A    
Zn7   O26   1.936466 S    
O10   C3    1.278346 A    
C13   C14   1.397819 A    
O11   C4    1.277282 A    
N2    O29   1.300684 A    
C33   C34   1.336046 D    
C15   C16   1.393839 A    
Zn5   O22   1.942872 S    
O12   C1    1.283837 A    
O15   C37   1.279565 A    
O17   C39   1.277497 A    
Zn4   O7    1.941444 S    
O16   C38   1.276203 A    
O24   C40   1.280102 A    
C2    C20   1.449614 S    
C33   H18   1.086381 S    
O18   C40   1.279853 A    
C25   C26   1.338992 D    
O26   C38   1.280082 A    
O3    C2    1.277779 A    
C29   H10   1.086566 S    
C18   N5    1.442694 S    
Zn1   O1    1.946400 S    
Zn2   O1    1.952795 S    
Zn1   O9    1.942870 S    
Zn2   O6    1.941188 S    
C27   C28   1.349167 D    
C8    H19   1.083011 S    
C4    C24   1.451007 S    
O21   C41   1.274134 A    
C33   C35   1.470295 S    
Zn1   O3    1.936062 S    
C9    C10   1.387082 A    
Zn2   O4    1.936420 S    
Zn5   O23   1.936014 S    
Zn4   O1    1.949174 S    
Zn3   O1    1.948250 S    
Zn6   O19   1.943756 S    
O25   C37   1.277474 A    
Zn6   O25   1.938168 S    
C14   C15   1.382253 A    
Zn4   O11   1.937675 S    
C16   C42   1.463196 S    
C19   H3    1.086186 S    
O5    C4    1.279823 A    
C19   C20   1.339069 D    
C10   H20   1.079150 S    
Zn6   O14   1.948249 S    
O7    C6    1.279978 A    
O13   C2    1.277780 A    
C30   H11   1.082380 S    
Zn7   O18   1.934859 S    
Zn5   O14   1.946402 S    
C7    C12   1.433236 A    
O22   C42   1.277253 A    
C34   H13   1.086392 S    
C25   C27   1.468956 S    
C15   H21   1.084016 S    
N1    O28   1.301707 A    
C35   C36   1.363643 D    
C21   C23   1.472435 S    
Zn8   O15   1.937720 S    
Zn1   O10   1.939599 S    
