data_mof_unit_55691.cif
_audit_creation_date              2013-03-05T15:53:36-0500
_audit_creation_method            fapswitch 2.2
_symmetry_space_group_name_H-M    P1
_symmetry_Int_Tables_number       1
_space_group_crystal_system       triclinic
_cell_length_a                    9.944647
_cell_length_b                    10.591866
_cell_length_c                    13.594943
_cell_angle_alpha                 92.53284
_cell_angle_beta                  82.298205
_cell_angle_gamma                 90.53242
_cell_volume                      1417.67502378

loop_
_atom_site_label
_atom_site_type_symbol
_atom_site_description
_atom_site_fract_x
_atom_site_fract_y
_atom_site_fract_z
_atom_type_partial_charge
O1    O     O_R   0.385310 0.683220 0.500000 -0.649551
O2    O     O_R   0.614640 0.683250 0.500010 -0.572708
C1    C     C_R   0.502675 0.737430 0.484659 0.928259
O3    O     O_R   0.368830 0.499960 0.640340 -0.633560
O4    O     O_R   0.598160 0.499980 0.640350 -0.600480
C2    C     C_R   0.474878 0.498576 0.685654 0.957410
Zn1   Zn    Zn3+2 0.346870 0.499980 0.499990 0.938152
Zn2   Zn    Zn3+2 0.653130 0.500020 0.500010 1.006330
O5    O     O_R   0.385360 0.316750 0.499990 -0.620318
O6    O     O_R   0.614690 0.316780 0.500000 -0.577204
O7    O     O_R   0.401840 0.500020 0.359650 -0.633465
O8    O     O_R   0.631170 0.500040 0.359660 -0.599022
C3    C     C_R   0.502631 0.259772 0.487288 0.883186
C4    C     C_R   0.525022 0.499533 0.314235 0.849865
C5    C     C_1   0.544744 0.500550 0.210036 -0.140928
C6    C     C_2   0.558740 0.502335 0.017893 -0.144874
C7    C     C_2   0.441083 0.496758 0.982014 -0.135029
C8    C     C_1   0.443435 0.497016 0.877964 0.028528
C9    C     C_1   0.556338 0.501530 0.121945 0.031760
C10   C     C_1   0.454999 0.497562 0.789868 -0.135636
H1    H     H_    0.344585 0.491741 0.029928 0.173238
H2    H     H_    0.655249 0.507348 0.969973 0.162652
H3    H     H_    0.723909 0.880581 0.460776 0.219769
C11   C     C_R   0.297625 0.862165 0.374945 -0.221621
H4    H     H_    0.293768 0.760388 0.368651 0.189677
C12   C     C_R   0.202453 0.926117 0.329785 -0.210365
H5    H     H_    0.126897 0.871851 0.295624 0.185041
C13   C     C_R   0.211392 0.056983 0.321191 0.365354
C14   C     C_R   0.312191 0.124337 0.364698 -0.246341
H6    H     H_    0.321921 0.224267 0.352788 0.184786
C15   C     C_R   0.406009 0.061561 0.415046 0.023880
C16   C     C_R   0.401607 0.928431 0.416962 0.108569
C17   C     C_R   0.509181 0.866615 0.453559 -0.162670
C18   C     C_R   0.630792 0.930397 0.457578 -0.178409
C19   C     C_R   0.632394 0.059699 0.465794 0.107503
C20   C     C_R   0.512021 0.126110 0.457149 -0.120183
C21   C     C_R   0.838416 0.622723 0.663520 0.372637
C22   C     C_R   0.896701 0.641727 0.751309 -0.220880
H7    H     H_    0.836755 0.681793 0.817579 0.185991
C23   C     C_R   0.036354 0.649205 0.745872 -0.235632
H8    H     H_    0.082162 0.688461 0.808416 0.181178
C24   C     C_R   0.115807 0.620974 0.656074 -0.110520
H9    H     H_    0.218693 0.652857 0.648339 0.210908
C25   C     C_R   0.059844 0.558933 0.577776 0.131998
C26   C     C_R   0.915399 0.559461 0.579190 0.002900
N1    N     N_R   0.857120 0.501200 0.500900 -0.116048
C27   C     C_R   0.941544 0.443462 0.424730 0.153402
H10   H     H_    0.149482 0.398455 0.363970 0.189814
C28   C     C_R   0.084711 0.443853 0.425086 -0.149329
N2    N     N_R   0.142720 0.501280 0.500940 -0.124649
N3    N     N_R   0.744633 0.719350 0.650382 0.236351
O9    O     O_R   0.636459 0.734617 0.715090 -0.420808
O10   O     O_R   0.795891 0.819044 0.607052 -0.441076
N4    N     N_R   0.123796 0.119936 0.263124 0.183321
O11   O     O_R   0.014046 0.064651 0.240201 -0.420296
O12   O     O_R   0.159698 0.227448 0.224640 -0.444946
N5    N     N_3   0.755617 0.121211 0.486019 -0.410513
H11   H     H_    0.833288 0.093822 0.429675 0.208091
H12   H     H_    0.780579 0.089399 0.553005 0.226613
N6    N     N_3   0.884635 0.382076 0.344202 -0.378089
H13   H     H_    0.928176 0.421985 0.278387 0.200024
H14   H     H_    0.912346 0.287023 0.340734 0.227965

loop_
_geom_bond_atom_site_label_1
_geom_bond_atom_site_label_2
_geom_bond_distance
_ccdc_geom_bond_type
O4    Zn2   1.912979 S    
Zn1   O7    1.912979 S    
C11   C16   1.413368 A    
N4    O12   1.301152 A    
C21   C22   1.401048 A    
C27   C28   1.424370 A    
C2    C10   1.404534 S    
N4    O11   1.301682 A    
C12   C13   1.397185 A    
C19   C20   1.415006 A    
C19   N5    1.435742 S    
Zn2   O8    1.949376 S    
H3    C18   1.076899 S    
C6    H2    1.087594 S    
C16   C17   1.416031 A    
C23   C24   1.384791 A    
C7    C8    1.411745 S    
N5    H11   1.045688 S    
C14   C15   1.415633 A    
O1    Zn1   1.974652 S    
C26   N1    1.396485 A    
C11   H4    1.078364 S    
C5    C9    1.188146 T    
C11   C12   1.391379 A    
C13   C14   1.404264 A    
C12   H5    1.082836 S    
C14   H6    1.079321 S    
C24   C25   1.401705 A    
O3    Zn1   1.949376 S    
O4    C2    1.296418 A    
Zn2   O6    1.974650 S    
C23   H8    1.082795 S    
C22   C23   1.382553 A    
C17   C18   1.386092 A    
O2    C1    1.302837 A    
C8    C10   1.187986 T    
C6    C9    1.411980 S    
C22   H7    1.083567 S    
C21   N3    1.423981 S    
O7    C4    1.295748 A    
Zn2   N1    2.030185 S    
N5    H12   1.045834 S    
O3    C2    1.291180 A    
C6    C7    1.326493 D    
C24   H9    1.067641 S    
C1    C17   1.448240 S    
C21   C26   1.433818 A    
N3    O9    1.301652 A    
Zn1   O5    1.981619 S    
C25   C26   1.434066 A    
C3    C20   1.456648 S    
N6    H14   1.043687 S    
C18   C19   1.369287 A    
N1    C27   1.368109 A    
C25   N2    1.365846 A    
C28   N2    1.365171 A    
C13   N4    1.438142 S    
C4    C5    1.404321 S    
H10   C28   1.078634 S    
O5    C3    1.305369 A    
N3    O10   1.298598 A    
C27   N6    1.427541 S    
C15   C20   1.421360 A    
O2    Zn2   1.981621 S    
C15   C16   1.411644 A    
Zn1   N2    2.028681 S    
O8    C4    1.292298 A    
N6    H13   1.045437 S    
O1    C1    1.291636 A    
O6    C3    1.290823 A    
C7    H1    1.087473 S    
