data_mof_unit_15165.cif
_audit_creation_date              2012-12-10T20:40:54-0500
_audit_creation_method            fapswitch 2.2
_symmetry_space_group_name_H-M    P1
_symmetry_Int_Tables_number       1
_space_group_crystal_system       triclinic
_cell_length_a                    27.580483
_cell_length_b                    10.64919
_cell_length_c                    9.900668
_cell_angle_alpha                 89.718448
_cell_angle_beta                  91.762437
_cell_angle_gamma                 89.857966
_cell_volume                      2906.50247319

loop_
_atom_site_label
_atom_site_type_symbol
_atom_type_description
_atom_site_fract_x
_atom_site_fract_y
_atom_site_fract_z
_atom_type_partial_charge
C1    C     C_R   0.500889 0.260298 0.500434 0.890524
C2    C     C_R   0.275247 0.460460 0.574915 0.332849
C3    C     C_R   0.252312 0.514727 0.459859 0.123431
C4    C     C_R   0.100857 0.499790 0.408360 -0.107375
C5    C     C_R   0.127852 0.386235 0.411902 -0.109095
C6    C     C_R   0.102693 0.269878 0.406427 0.154740
C7    C     C_R   0.125122 0.616518 0.406469 -0.082623
C8    C     C_R   0.353351 0.517788 0.489285 -0.215399
C9    C     C_R   0.646824 0.494712 0.504779 -0.033504
C10   C     C_R   0.976253 0.383911 0.463667 0.026537
C11   C     C_R   0.971673 0.608194 0.405779 0.076511
C12   C     C_R   0.406105 0.505652 0.497596 0.942359
C13   C     C_R   0.948864 0.495205 0.445360 0.068147
C14   C     C_R   0.954181 0.279646 0.524129 -0.245242
C15   C     C_R   0.904516 0.276534 0.546100 0.223075
C16   C     C_R   0.875763 0.383604 0.515554 -0.068199
C17   C     C_R   0.898381 0.493691 0.467417 -0.101857
C18   C     C_R   0.870512 0.602674 0.440851 0.001207
C19   C     C_R   0.820576 0.599624 0.458758 0.499742
C20   C     C_R   0.825223 0.386161 0.533108 0.515717
C21   C     C_R   0.721209 0.445444 0.393536 -0.117012
C22   C     C_R   0.670920 0.448750 0.392399 -0.220029
C23   C     C_R   0.501898 0.739688 0.499938 0.908874
C24   C     C_R   0.673595 0.536939 0.618433 -0.227360
C25   C     C_R   0.724041 0.534014 0.619088 -0.102913
C26   C     C_R   0.747704 0.488546 0.506415 0.329380
C27   C     C_R   0.025648 0.381939 0.428120 -0.015739
C28   C     C_R   0.049706 0.497486 0.410397 0.031275
C29   C     C_R   0.022950 0.611228 0.399027 0.015856
C30   C     C_R   0.051683 0.268549 0.408378 0.177959
C31   C     C_R   0.098802 0.727102 0.372688 0.258991
C32   C     C_R   0.942340 0.714627 0.376970 -0.227569
C33   C     C_R   0.892712 0.711537 0.394121 -0.150290
C34   C     C_R   0.593981 0.498939 0.501779 0.847797
C35   C     C_R   0.048355 0.724246 0.379541 -0.217562
C36   C     C_R   0.492797 0.062962 0.616758 0.106531
C37   C     C_R   0.506782 0.128779 0.503315 -0.117087
C38   C     C_R   0.529652 0.067253 0.397908 -0.290201
C39   C     C_R   0.531506 0.936720 0.397531 0.207390
C40   C     C_R   0.508831 0.871392 0.502784 -0.132442
C41   C     C_R   0.493655 0.935307 0.616193 0.076457
C42   C     C_3   0.446931 0.925470 0.688195 -0.415444
C43   C     C_3   0.445883 0.067732 0.688312 -0.463456
C44   C     C_R   0.457767 0.510388 0.067078 0.217718
C45   C     C_R   0.179011 0.395161 0.419515 0.611864
C46   C     C_R   0.542102 0.494792 0.076511 -0.206986
C47   C     C_R   0.542304 0.490103 0.933340 0.241799
C48   C     C_R   0.457788 0.515225 0.924801 0.114237
C49   C     C_3   0.413697 0.434672 0.910747 -0.461626
C50   C     C_3   0.415225 0.422604 0.064088 -0.003058
C51   C     C_R   0.174549 0.617354 0.443238 0.582011
C52   C     C_R   0.279970 0.575638 0.362036 0.261107
C53   C     C_R   0.330323 0.583679 0.380842 0.196886
C54   C     C_R   0.325574 0.458888 0.586801 -0.300641
H1    H     H_    0.342965 0.409854 0.671203 0.192643
H2    H     H_    0.956288 0.801418 0.337828 0.135032
H3    H     H_    0.655640 0.574710 0.704969 0.162442
H4    H     H_    0.871761 0.795436 0.370475 0.183949
H5    H     H_    0.744743 0.568604 0.705785 0.135793
H6    H     H_    0.030029 0.813244 0.372233 0.141584
H7    H     H_    0.544696 0.119739 0.315090 0.157046
H8    H     H_    0.417336 0.882992 0.624816 0.218559
H9    H     H_    0.452059 0.883886 0.790885 0.212929
H10   H     H_    0.415746 0.108491 0.624839 0.211209
H11   H     H_    0.450154 0.108090 0.791072 0.205408
H12   H     H_    0.575971 0.487078 0.133771 0.158372
H13   H     H_    0.381958 0.490327 0.872697 0.204965
H14   H     H_    0.419465 0.346792 0.853510 0.213659
H15   H     H_    0.382522 0.463425 0.109947 0.186111
H16   H     H_    0.650931 0.415203 0.303900 0.148489
H17   H     H_    0.739729 0.411119 0.306122 0.130782
H18   H     H_    0.975311 0.199393 0.558262 0.170225
N1    N     N_R   0.200644 0.508665 0.441791 -0.315748
N2    N     N_R   0.799209 0.492238 0.502388 -0.361672
N3    N     N_R   0.499670 0.499140 0.142800 -0.114083
N4    N     N_R   0.499670 0.499180 0.857150 -0.119326
O1    O     O_R   0.500010 0.316790 0.614690 -0.626628
O2    O     O_2   0.801874 0.284276 0.579457 -0.527919
O3    O     O_2   0.196263 0.723988 0.486125 -0.547024
O4    O     O_2   0.793276 0.702601 0.431265 -0.565532
O5    O     O_R   0.500000 0.316760 0.385350 -0.632506
O6    O     O_R   0.428760 0.500040 0.614660 -0.622125
O7    O     O_R   0.428750 0.500000 0.385310 -0.599899
O8    O     O_R   0.500000 0.683240 0.614650 -0.623695
O9    O     O_R   0.499990 0.683210 0.385310 -0.562855
O10   O     O_R   0.571250 0.500000 0.614690 -0.584607
O11   O     O_R   0.571240 0.499960 0.385340 -0.635145
O12   O     O_2   0.207343 0.292810 0.407833 -0.546747
Zn1   Zn    Zn3+2 0.500000 0.500020 0.653130 0.957117
Zn2   Zn    Zn3+2 0.500000 0.499980 0.346870 0.968527
Br1   Br    Br    0.249070 0.642569 0.199419 -0.401357
N5    N     N_2   0.121854 0.838026 0.322320 -0.293374
H19   H     H_    0.158883 0.833812 0.315480 0.298521
C55   C     C_3   0.101108 0.890239 0.197746 -0.762984
H20   H     H_    0.123124 0.971480 0.165052 0.250947
H21   H     H_    0.063727 0.924927 0.211421 0.237427
H22   H     H_    0.101026 0.818447 0.116591 0.257559
N6    N     N_2   0.553645 0.872895 0.289279 -0.283920
H23   H     H_    0.553112 0.922613 0.199516 0.219490
C56   C     C_3   0.601226 0.822298 0.323180 -0.715674
H24   H     H_    0.627386 0.899888 0.342334 0.233098
H25   H     H_    0.613946 0.764839 0.237872 0.235376
H26   H     H_    0.600115 0.761323 0.414292 0.230455
Br2   Br    Br    0.239056 0.387069 0.717564 -0.443489
N7    N     N_2   0.586888 0.466783 0.871019 -0.268983
H27   H     H_    0.615553 0.515088 0.915265 0.194842
C57   C     C_3   0.597899 0.334618 0.857393 -0.737386
H28   H     H_    0.603631 0.290454 0.958638 0.206853
H29   H     H_    0.631494 0.323450 0.799598 0.242475
H30   H     H_    0.567942 0.285621 0.802042 0.261804
N8    N     N_2   0.425505 0.295449 0.113902 -0.259191
H31   H     H_    0.417759 0.282765 0.214255 0.256171
C58   C     C_3   0.468512 0.227423 0.074030 -0.718007
H32   H     H_    0.462423 0.125192 0.087417 0.235350
H33   H     H_    0.500307 0.254128 0.138336 0.245559
H34   H     H_    0.477249 0.244776 0.967301 0.222261
N9    N     N_2   0.127317 0.152501 0.399023 -0.307946
H35   H     H_    0.152500 0.144086 0.324934 0.283339
C59   C     C_3   0.140503 0.095936 0.528315 -0.613943
H36   H     H_    0.158607 0.004279 0.512409 0.267552
H37   H     H_    0.107585 0.079548 0.587769 0.209791
H38   H     H_    0.165741 0.157506 0.586943 0.281890
N10   N     N_2   0.884268 0.164681 0.599459 -0.250258
H39   H     H_    0.904357 0.127732 0.679891 0.215079
C60   C     C_3   0.873050 0.070590 0.498335 -0.674271
H40   H     H_    0.854704 0.989851 0.546220 0.247681
H41   H     H_    0.906858 0.036371 0.452220 0.204984
H42   H     H_    0.848312 0.109907 0.418018 0.258488
N11   N     N_2   0.026439 0.154724 0.377170 -0.321341
H43   H     H_    0.043928 0.072377 0.404255 0.251399
C61   C     C_3   0.004309 0.150613 0.242895 -0.792038
H44   H     H_    0.983476 0.062078 0.230600 0.226778
H45   H     H_    0.032730 0.154020 0.165801 0.247919
H46   H     H_    0.978815 0.230527 0.226555 0.261349
Br3   Br    Br    0.366131 0.694815 0.265462 -0.457863

loop_
_geom_bond_atom_site_label_1
_geom_bond_atom_site_label_2
_ccdc_geom_bond_type
C10   C27   A    
C21   C26   A    
C33   H4    S    
C49   H14   S    
C1    O1    A    
C41   C42   S    
C48   N4    A    
N8    H31   S    
C53   Br3   S    
C61   H46   S    
C43   H11   S    
N10   H39   S    
N7    C57   S    
O1    Zn1   S    
O6    Zn1   S    
C15   N10   S    
C21   H17   S    
N5    H19   S    
C28   C29   A    
C50   H15   S    
C47   N4    A    
C46   H12   S    
N9    C59   S    
C5    C6    A    
C3    C52   A    
C9    C22   A    
N10   C60   S    
C1    O5    A    
C15   C16   A    
N6    H23   S    
C23   O9    A    
C45   N1    A    
C18   C19   A    
C34   O10   A    
C56   H24   S    
N3    Zn2   S    
C54   H1    S    
C24   H3    S    
C47   N7    S    
C52   Br1   S    
C60   H42   S    
C57   H28   S    
C42   H8    S    
C6    N9    S    
C1    C37   S    
N4    Zn1   S    
C58   H34   S    
C21   C22   A    
C27   C30   A    
C57   H29   S    
C36   C41   A    
C19   O4    S    
C4    C7    A    
N5    C55   S    
C46   N3    A    
C4    C28   A    
C43   H10   S    
C59   H37   S    
C38   C39   A    
C7    C31   A    
C23   O8    A    
C12   O6    A    
C45   O12   S    
C24   C25   A    
C10   C14   A    
C8    C54   A    
C39   C40   A    
C16   C17   A    
C39   N6    S    
C55   H22   S    
C25   C26   A    
C5    C45   A    
C10   C13   A    
C56   H26   S    
C12   O7    A    
C35   H6    S    
C44   N3    A    
C37   C38   A    
C2    Br2   S    
C8    C12   S    
C56   H25   S    
C17   C18   A    
C20   N2    A    
N8    C58   S    
C16   C20   A    
C59   H36   S    
C55   H21   S    
O5    Zn2   S    
C40   C41   A    
C6    C30   A    
C11   C32   A    
C49   C50   S    
N6    C56   S    
C2    C54   A    
C60   H40   S    
C57   H30   S    
C31   C35   A    
O8    Zn1   S    
C61   H44   S    
C52   C53   A    
C58   H32   S    
C59   H38   S    
C44   C50   S    
O7    Zn2   S    
C46   C47   A    
C48   C49   S    
C49   H13   S    
C14   H18   S    
C19   N2    A    
C51   N1    A    
C4    C5    A    
C61   H45   S    
O10   Zn1   S    
C8    C53   A    
O9    Zn2   S    
C9    C24   A    
C20   O2    S    
C30   N11   S    
N7    H27   S    
C29   C35   A    
C13   C17   A    
C32   C33   A    
C38   H7    S    
C2    C3    A    
N11   H43   S    
C7    C51   A    
N9    H35   S    
C11   C13   A    
C9    C34   S    
C50   N8    S    
C26   N2    S    
C32   H2    S    
C34   O11   A    
C55   H20   S    
C3    N1    S    
C18   C33   A    
C51   O3    S    
C44   C48   A    
C11   C29   A    
C36   C37   A    
C31   N5    S    
C42   C43   S    
O11   Zn2   S    
C27   C28   A    
C60   H41   S    
C14   C15   A    
C36   C43   S    
C25   H5    S    
C58   H33   S    
C42   H9    S    
C22   H16   S    
C23   C40   S    
N11   C61   S    
