data_mof_unit_19508.cif
_audit_creation_date              2012-12-10T19:09:35-0500
_audit_creation_method            fapswitch 2.2
_symmetry_space_group_name_H-M    P1
_symmetry_Int_Tables_number       1
_space_group_crystal_system       triclinic
_cell_length_a                    9.554049
_cell_length_b                    10.860119
_cell_length_c                    17.155285
_cell_angle_alpha                 88.722228
_cell_angle_beta                  95.242633
_cell_angle_gamma                 89.270599
_cell_volume                      1771.91789011

loop_
_atom_site_label
_atom_site_type_symbol
_atom_type_description
_atom_site_fract_x
_atom_site_fract_y
_atom_site_fract_z
_atom_type_partial_charge
C1    C     C_R   0.501337 0.262635 0.503357 0.792979
C2    C     C_R   0.660508 0.492924 0.786981 0.121093
C3    C     C_R   0.575994 0.485359 0.141667 -0.157777
C4    C     C_R   0.587137 0.483396 0.222927 -0.244042
C5    C     C_R   0.443534 0.502223 0.098589 0.386557
C6    C     C_R   0.467200 0.498511 0.263160 -0.027420
C7    C     C_R   0.334930 0.511423 0.220521 -0.218594
C8    C     C_R   0.323492 0.513431 0.138857 -0.199036
C9    C     C_R   0.626640 0.061222 0.504395 0.012885
C10   C     C_R   0.502439 0.129580 0.506796 -0.085752
C11   C     C_R   0.375148 0.065925 0.507491 -0.198836
C12   C     C_R   0.519168 0.499053 0.651502 0.772331
C13   C     C_R   0.374977 0.937586 0.509080 -0.219814
C14   C     C_R   0.501194 0.870209 0.507696 -0.090693
C15   C     C_R   0.625863 0.935419 0.504608 0.013639
C16   C     C_3   0.774294 0.923219 0.541856 -0.048216
C17   C     C_3   0.774099 0.066451 0.543246 -0.059904
C18   C     C_R   0.060879 0.526297 0.432636 0.233730
C19   C     C_R   0.085424 0.456930 0.562986 -0.084661
C20   C     C_R   0.936885 0.456113 0.562545 -0.107096
C21   C     C_R   0.914169 0.524404 0.432754 0.220223
C22   C     C_3   0.889856 0.633623 0.379771 -0.480239
C23   C     C_R   0.500243 0.737199 0.503627 0.788045
C24   C     C_3   0.048901 0.638845 0.378741 -0.107056
C25   C     C_R   0.480954 0.500283 0.349112 0.804310
C26   C     C_R   0.530426 0.502662 0.738707 -0.101544
C27   C     C_R   0.404409 0.516861 0.774715 -0.259877
C28   C     C_R   0.404753 0.520251 0.855634 -0.165639
C29   C     C_R   0.532174 0.510551 0.902973 0.329663
C30   C     C_R   0.657663 0.498766 0.868563 -0.176851
Cu1   Cu    Cu3+1 0.640670 0.499980 0.500000 0.924629
Cu2   Cu    Cu3+1 0.359330 0.500020 0.500000 0.938543
H1    H     H_    0.689877 0.469125 0.254089 0.150770
H2    H     H_    0.276423 0.892068 0.513409 0.162185
H3    H     H_    0.842979 0.887842 0.498072 0.144054
H4    H     H_    0.846024 0.106909 0.502394 0.143836
H5    H     H_    0.148979 0.422992 0.614489 0.144064
H6    H     H_    0.891169 0.419776 0.612613 0.143527
H7    H     H_    0.836008 0.610178 0.322107 0.168927
H8    H     H_    0.840643 0.711644 0.408683 0.216309
H9    H     H_    0.082266 0.620328 0.319806 0.154880
H10   H     H_    0.671386 0.473357 0.112948 0.148621
H11   H     H_    0.753056 0.491758 0.907516 0.153729
H12   H     H_    0.240410 0.520282 0.250076 0.143911
H13   H     H_    0.305437 0.530417 0.880761 0.159158
H14   H     H_    0.220907 0.524558 0.106800 0.136283
H15   H     H_    0.303781 0.525146 0.740276 0.167807
H16   H     H_    0.275749 0.114686 0.508584 0.161557
N1    N     N_2   0.541428 0.509921 0.985788 -0.267159
N2    N     N_2   0.427213 0.506320 0.015409 -0.260568
N3    N     N_R   0.147870 0.500930 0.499500 -0.180049
N4    N     N_R   0.851960 0.500890 0.499500 -0.180086
O1    O     O_R   0.618810 0.319640 0.500000 -0.588156
O2    O     O_R   0.381230 0.319680 0.499990 -0.582349
O3    O     O_R   0.631790 0.498830 0.613930 -0.607772
O4    O     O_R   0.394210 0.498870 0.613920 -0.583231
O5    O     O_R   0.618770 0.680320 0.500010 -0.581045
O6    O     O_R   0.381190 0.680360 0.500000 -0.577222
O7    O     O_R   0.605790 0.501130 0.386080 -0.580338
O8    O     O_R   0.368210 0.501170 0.386070 -0.582856
C31   C     C_3   0.792160 0.848120 0.620425 -0.309239
C32   C     C_3   0.937837 0.787229 0.632488 -0.871360
H17   H     H_    0.947781 0.715849 0.587996 0.263018
H18   H     H_    0.021616 0.855813 0.626859 0.250192
H19   H     H_    0.953352 0.742625 0.691563 0.241613
H20   H     H_    0.774947 0.903178 0.672035 0.206852
H21   H     H_    0.714191 0.773725 0.620966 0.211296
C33   C     C_3   0.783238 0.131987 0.622767 -0.342010
C34   C     C_3   0.933183 0.133014 0.662201 -0.870643
H22   H     H_    0.968901 0.039613 0.682585 0.270435
H23   H     H_    0.006409 0.170288 0.621129 0.245682
H24   H     H_    0.937154 0.192588 0.714085 0.240785
H25   H     H_    0.750989 0.229463 0.612591 0.214358
H26   H     H_    0.709258 0.093559 0.662875 0.193550
C35   C     C_3   0.107837 0.757975 0.412541 -0.778835
H27   H     H_    0.047793 0.838263 0.384856 0.213508
H28   H     H_    0.100730 0.759455 0.476745 0.236816
H29   H     H_    0.217662 0.767626 0.397921 0.250672
C36   C     C_3   0.799153 0.471739 0.752123 -0.381306
C37   C     C_3   0.931932 0.458730 0.809018 -0.910281
H30   H     H_    0.949889 0.544329 0.842524 0.256450
H31   H     H_    0.924271 0.378383 0.849539 0.260071
H32   H     H_    0.024177 0.443153 0.775266 0.240729
H33   H     H_    0.789205 0.384636 0.719777 0.204954
H34   H     H_    0.816642 0.550299 0.711862 0.228325

loop_
_geom_bond_atom_site_label_1
_geom_bond_atom_site_label_2
_ccdc_geom_bond_type
C23   O6    A    
C3    H10   S    
C18   C21   A    
C19   C20   A    
Cu2   O6    S    
Cu1   N4    S    
C35   H27   S    
C7    C8    A    
C29   N1    S    
C26   C27   A    
C29   C30   A    
C18   C24   S    
C28   C29   A    
C16   H3    S    
C36   H33   S    
C6    C25   S    
C33   H26   S    
C15   C16   S    
Cu1   O7    S    
C34   H23   S    
C1    O1    A    
C32   H18   S    
C2    C36   S    
C19   H5    S    
C31   H20   S    
C33   C34   S    
C17   H4    S    
C9    C10   A    
C13   C14   A    
C24   H9    S    
C11   H16   S    
C34   H22   S    
C37   H32   S    
Cu2   O2    S    
C18   N3    A    
C28   H13   S    
C37   H31   S    
C16   C17   S    
C33   H25   S    
C12   C26   S    
C14   C23   S    
C34   H24   S    
C1    O2    A    
Cu2   N3    S    
C32   H17   S    
C20   H6    S    
C31   H21   S    
Cu1   Cu2   S    
C22   H8    S    
C2    C26   A    
C7    H12   S    
Cu1   O1    S    
C35   H28   S    
C12   O4    A    
C9    C17   S    
C25   O8    A    
C22   C24   S    
C30   H11   S    
C4    C6    A    
C16   C31   S    
Cu2   O8    S    
C3    C4    A    
C36   H34   S    
C27   H15   S    
C23   O5    A    
C4    H1    S    
C17   C33   S    
C32   H19   S    
C1    C10   S    
C37   H30   S    
C3    C5    A    
C5    C8    A    
C24   C35   S    
C6    C7    A    
C2    C30   A    
Cu1   O5    S    
C9    C15   A    
C13   H2    S    
C20   N4    A    
C11   C13   A    
C22   H7    S    
C31   C32   S    
C5    N2    S    
C35   H29   S    
C8    H14   S    
C12   O3    A    
C10   C11   A    
C36   C37   S    
C19   N3    A    
N1    N2    D    
C27   C28   A    
C14   C15   A    
C25   O7    A    
Cu1   O3    S    
C21   C22   S    
Cu2   O4    S    
C21   N4    A    
