data_mof_unit_49665.cif
_audit_creation_date              2013-03-05T15:41:44-0500
_audit_creation_method            fapswitch 2.2
_symmetry_space_group_name_H-M    P1
_symmetry_Int_Tables_number       1
_space_group_crystal_system       triclinic
_cell_length_a                    11.157344
_cell_length_b                    12.703921
_cell_length_c                    23.576727
_cell_angle_alpha                 90.504267
_cell_angle_beta                  96.709202
_cell_angle_gamma                 68.607515
_cell_volume                      3088.19918429

loop_
_atom_site_label
_atom_site_type_symbol
_atom_site_description
_atom_site_fract_x
_atom_site_fract_y
_atom_site_fract_z
_atom_type_partial_charge
O1    O     O_R   0.196340 0.303200 0.448500 -0.487392
O2    O     O_R   0.199310 0.519670 0.454880 -0.505350
C1    C     C_R   0.149445 0.616778 0.428842 0.547578
O3    O     O_R   0.045660 0.691380 0.441680 -0.443941
O4    O     O_R   0.811930 0.659460 0.430950 -0.444943
C2    C     C_R   0.747418 0.605511 0.404456 0.553680
O5    O     O_R   0.757900 0.507620 0.421760 -0.523523
O6    O     O_R   0.988630 0.322990 0.439840 -0.479423
C3    C     C_R   0.101337 0.282027 0.423522 0.567488
O7    O     O_R   0.196380 0.301720 0.573850 -0.497065
O8    O     O_R   0.199350 0.518300 0.571080 -0.513124
C4    C     C_R   0.145950 0.614545 0.591977 0.538733
O9    O     O_R   0.045700 0.689900 0.567030 -0.480700
O10   O     O_R   0.811960 0.658090 0.547150 -0.480158
C5    C     C_R   0.748985 0.602351 0.565491 0.540593
O11   O     O_R   0.757930 0.506140 0.547110 -0.505458
O12   O     O_R   0.988670 0.321620 0.556040 -0.467498
C6    C     C_R   0.099807 0.279239 0.585052 0.594403
Cr1   Cr    Cr6+3 0.189770 0.415650 0.511620 1.075259
Cr2   Cr    Cr6+3 0.930400 0.667320 0.496770 1.165856
Cr3   Cr    Cr6+3 0.879870 0.417010 0.491650 1.102259
O13   O     O_3   0.000020 0.499990 0.500010 -0.301395
C7    C     C_R   0.662431 0.759134 0.140126 -0.032825
C8    C     C_R   0.687039 0.642804 0.345833 -0.004905
C9    C     C_R   0.655023 0.569089 0.253416 -0.149121
C10   C     C_R   0.657611 0.562579 0.311689 -0.161693
C11   C     C_R   0.688589 0.743117 0.320372 0.203161
C12   C     C_R   0.677768 0.753642 0.260040 0.020577
C13   C     C_R   0.671753 0.660301 0.227873 -0.024725
C14   C     C_R   0.674219 0.660755 0.169485 -0.129701
C15   C     C_R   0.669850 0.852083 0.170576 -0.110454
C16   C     C_R   0.675158 0.851608 0.230128 0.220669
H1    H     H_    0.656833 0.930077 0.147910 0.169929
H2    H     H_    0.642583 0.501038 0.228308 0.135724
C17   C     C_1   0.237732 0.158259 0.123935 0.045337
C18   C     C_2   0.186533 0.217632 0.229230 -0.100478
C19   C     C_2   0.165320 0.148061 0.266841 0.237997
C20   C     C_1   0.137612 0.189301 0.323206 0.010488
C21   C     C_1   0.214115 0.188206 0.171474 0.033915
C22   C     C_1   0.118214 0.227618 0.369768 0.030101
H3    H     H_    0.181850 0.301294 0.242086 0.085643
C23   C     C_1   0.168392 0.750799 0.124117 0.035126
C24   C     C_2   0.143277 0.691079 0.228490 -0.084639
C25   C     C_2   0.236885 0.678672 0.272095 -0.068610
C26   C     C_1   0.218079 0.654060 0.329520 -0.002280
C27   C     C_1   0.156326 0.722393 0.171300 -0.002323
C28   C     C_1   0.194062 0.635581 0.376304 0.037318
H4    H     H_    0.053739 0.680791 0.235842 0.137529
C29   C     C_1   0.608084 0.767904 0.861340 0.052807
C30   C     C_2   0.631352 0.765932 0.751112 0.189417
C31   C     C_2   0.645669 0.668705 0.724474 -0.139807
C32   C     C_1   0.667264 0.652432 0.665655 0.017867
C33   C     C_1   0.622604 0.766103 0.811582 0.006457
C34   C     C_1   0.696631 0.633578 0.618159 0.046442
C35   C     C_R   0.195520 0.177238 0.853833 0.012050
C36   C     C_R   0.106336 0.234615 0.641907 -0.021273
C37   C     C_R   0.044023 0.130561 0.711359 0.200887
C38   C     C_R   0.044700 0.159843 0.653911 0.194756
C39   C     C_R   0.160560 0.283786 0.685758 -0.156031
C40   C     C_R   0.161147 0.255658 0.741988 0.008245
C41   C     C_R   0.105420 0.176697 0.755416 -0.006373
C42   C     C_R   0.122126 0.139305 0.812195 -0.085795
C43   C     C_R   0.242047 0.261130 0.840675 -0.105033
C44   C     C_R   0.223191 0.301642 0.784790 -0.095822
H5    H     H_    0.298299 0.290857 0.873022 0.131403
H6    H     H_    0.263970 0.363613 0.774523 0.123493
C45   C     C_R   0.127979 0.738641 0.854814 -0.000959
C46   C     C_R   0.173941 0.627660 0.652467 0.024166
C47   C     C_R   0.316413 0.583715 0.741026 -0.127198
C48   C     C_R   0.297691 0.574282 0.682077 -0.126777
C49   C     C_R   0.068029 0.685254 0.681950 -0.072011
C50   C     C_R   0.085681 0.695269 0.740330 0.015555
C51   C     C_R   0.210984 0.645645 0.770002 0.023499
C52   C     C_R   0.230314 0.664800 0.827449 -0.169224
C53   C     C_R   0.000337 0.779831 0.826590 0.209654
C54   C     C_R   0.980367 0.757553 0.768964 -0.071238
H7    H     H_    0.328521 0.630710 0.849142 0.143732
H8    H     H_    0.413095 0.544832 0.763701 0.117297
H9    H     H_    0.883744 0.792231 0.746022 0.188514
H10   H     H_    0.970781 0.722502 0.659434 0.166166
O14   O     O_R   0.113660 0.883270 0.047820 -0.478847
O15   O     O_R   0.186930 0.068530 0.043990 -0.489081
C55   C     C_R   0.265919 0.109742 0.069512 0.543170
O16   O     O_R   0.377770 0.089040 0.054220 -0.508737
O17   O     O_R   0.562800 0.872960 0.056970 -0.495516
C56   C     C_R   0.599949 0.775214 0.081259 0.558071
O18   O     O_R   0.555390 0.700940 0.062700 -0.514311
O19   O     O_R   0.295020 0.731920 0.049950 -0.501649
C57   C     C_R   0.189881 0.788032 0.069954 0.561663
O20   O     O_R   0.094290 0.884230 0.921550 -0.447565
O21   O     O_R   0.168980 0.069410 0.926940 -0.508816
C58   C     C_R   0.240938 0.114522 0.907725 0.533833
O22   O     O_R   0.358400 0.089990 0.927950 -0.495967
O23   O     O_R   0.544850 0.873850 0.939920 -0.458050
C59   C     C_R   0.572425 0.777389 0.917882 0.568696
O24   O     O_R   0.536020 0.701900 0.936430 -0.528478
O25   O     O_R   0.277070 0.732810 0.932890 -0.525927
C60   C     C_R   0.163915 0.785363 0.907803 0.575361
Cr4   Cr    Cr6+3 0.149500 0.973980 0.985330 1.096221
Cr5   Cr    Cr6+3 0.457000 0.976510 0.994660 1.085381
Cr6   Cr    Cr6+3 0.411170 0.724270 0.995270 1.030326
O26   O     O_3   0.339220 0.891590 0.991750 -0.269674
H11   H     H_    0.669363 0.588092 0.146141 0.146593
H12   H     H_    0.650613 0.594670 0.748865 0.093799
N1    N     N_R   0.616645 0.870189 0.721755 0.110115
O27   O     O_R   0.568541 0.965945 0.746555 -0.246493
O28   O     O_R   0.652621 0.871259 0.671264 -0.297100
H13   H     H_    0.089667 0.072506 0.823446 0.182468
N2    N     N_R   0.986676 0.050658 0.724461 0.091644
O29   O     O_R   0.894061 0.078438 0.756935 -0.274120
O30   O     O_R   0.020164 0.953192 0.700503 -0.284581
N3    N     N_R   0.982478 0.114870 0.608306 0.111773
O31   O     O_R   0.040514 0.075443 0.563625 -0.290162
O32   O     O_R   0.866462 0.115120 0.610754 -0.231960
H14   H     H_    0.202322 0.345542 0.675979 0.143920
N4    N     N_R   0.892000 0.845224 0.855424 0.082269
O33   O     O_R   0.883847 0.816275 0.907235 -0.349002
O34   O     O_R   0.796037 0.928284 0.828506 -0.239448
H15   H     H_    0.378969 0.526637 0.659685 0.139495
N5    N     N_R   0.658238 0.956490 0.257381 0.118271
O35   O     O_R   0.729474 0.013516 0.246515 -0.282436
O36   O     O_R   0.553446 0.007031 0.281183 -0.263871
H16   H     H_    0.650746 0.487459 0.330111 0.167943
N6    N     N_R   0.712526 0.827543 0.355750 0.119069
O37   O     O_R   0.635560 0.875210 0.393664 -0.261713
O38   O     O_R   0.820207 0.845319 0.355515 -0.260622
N7    N     N_R   0.170763 0.035104 0.253774 0.111673
O39   O     O_R   0.125954 0.981678 0.287528 -0.278444
O40   O     O_R   0.229877 0.980996 0.211869 -0.333086
H17   H     H_    0.326092 0.689963 0.265141 0.161399

loop_
_geom_bond_atom_site_label_1
_geom_bond_atom_site_label_2
_geom_bond_distance
_ccdc_geom_bond_type
C43   H5    1.083571 S    
Cr6   O26   1.977955 S    
O15   Cr4   1.931747 S    
C59   O24   1.268452 A    
C54   H9    1.081826 S    
C50   C54   1.400072 A    
N3    O32   1.301281 A    
O19   Cr6   1.909746 S    
C47   H8    1.083798 S    
O4    Cr2   1.944114 S    
O17   C56   1.274084 A    
N5    O35   1.301179 A    
N1    O28   1.301654 A    
O8    Cr1   1.926587 S    
C35   C58   1.441809 S    
C38   N3    1.438261 S    
C12   C13   1.419902 A    
C19   C20   1.449703 S    
C8    C10   1.400878 A    
N2    O30   1.300501 A    
C23   C27   1.209665 T    
O4    C2    1.274863 A    
C42   H13   1.082719 S    
C25   H17   1.086638 S    
C5    O11   1.266273 A    
C35   C42   1.399359 A    
N4    O33   1.301522 A    
C51   C52   1.380005 A    
N3    O31   1.301306 A    
C45   C60   1.455116 S    
O18   Cr6   2.065703 S    
C37   N2    1.435512 S    
C15   C16   1.398338 A    
N5    O36   1.301356 A    
O6    C3    1.277606 A    
C52   H7    1.084681 S    
C35   C43   1.395937 A    
C14   H11   1.085615 S    
C30   N1    1.446125 S    
C15   H1    1.083790 S    
C47   C51   1.404473 A    
C24   H4    1.086857 S    
C48   H15   1.083169 S    
C41   C42   1.393078 A    
C6    C36   1.443579 S    
C9    H2    1.084616 S    
O14   C57   1.271299 A    
O19   C57   1.272794 A    
C39   C40   1.374737 A    
Cr3   O13   1.978064 S    
C18   H3    1.087081 S    
O23   C59   1.271777 A    
C16   N5    1.433025 S    
C49   H10   1.085494 S    
C32   C34   1.201014 T    
O25   C60   1.267699 A    
C26   C28   1.209592 T    
C9    C13   1.391592 A    
O1    Cr1   2.042657 S    
C30   C33   1.440270 S    
C31   C32   1.435482 S    
O16   Cr5   2.032189 S    
C7    C14   1.390124 A    
O10   Cr2   1.911322 S    
C12   C16   1.425239 A    
Cr1   O13   1.979906 S    
O1    C3    1.265730 A    
C5    C34   1.425584 S    
O21   C58   1.266291 A    
C17   C55   1.436724 S    
C56   O18   1.270071 A    
O14   Cr4   2.040154 S    
C30   C31   1.345885 D    
C31   H12   1.087476 S    
O5    Cr3   2.063688 S    
C7    C56   1.459103 S    
C3    C22   1.436938 S    
O12   Cr3   1.943040 S    
C40   C41   1.414077 A    
C44   H6    1.084351 S    
C17   C21   1.207780 T    
C53   C54   1.394313 A    
N7    O40   1.301228 A    
C13   C14   1.380188 A    
C4    C46   1.445301 S    
C55   O16   1.273027 A    
O23   Cr5   1.913285 S    
O7    Cr1   2.046246 S    
C11   N6    1.434763 S    
C8    C11   1.420091 A    
C2    C8    1.466181 S    
Cr5   O26   1.976685 S    
O12   C6    1.271457 A    
C45   C52   1.407140 A    
C29   C59   1.426879 S    
O22   Cr5   2.059351 S    
N4    O34   1.300532 A    
C39   H14   1.086617 S    
Cr2   O13   1.977983 S    
C24   C25   1.343297 D    
C45   C53   1.409202 A    
C10   H16   1.083343 S    
C1    O3    1.267658 A    
O20   Cr4   2.050949 S    
C25   C26   1.447919 S    
N6    O38   1.301524 A    
C18   C19   1.356066 D    
O9    Cr2   2.060126 S    
O2    Cr1   1.927211 S    
C18   C21   1.446967 S    
C50   C51   1.406283 A    
O6    Cr3   1.911689 S    
O8    C4    1.272493 A    
O11   Cr3   2.026981 S    
C37   C41   1.416928 A    
C2    O5    1.272138 A    
N1    O27   1.301632 A    
C36   C39   1.393996 A    
C40   C44   1.400086 A    
C23   C57   1.441120 S    
O2    C1    1.281059 A    
C9    C10   1.373412 A    
C49   C50   1.378878 A    
O17   Cr5   1.943734 S    
N2    O29   1.300998 A    
C20   C22   1.207533 T    
C37   C38   1.409358 A    
O7    C6    1.266751 A    
C46   C49   1.402565 A    
C29   C33   1.201778 T    
C1    C28   1.440552 S    
C58   O22   1.265195 A    
C36   C38   1.407860 A    
C47   C48   1.391801 A    
C24   C27   1.447451 S    
C43   C44   1.383227 A    
O3    Cr2   2.029340 S    
Cr4   O26   1.977575 S    
C4    O9    1.260366 A    
C46   C48   1.397737 A    
O15   C55   1.272800 A    
C11   C12   1.416769 A    
O10   C5    1.273358 A    
C53   N4    1.436281 S    
O21   Cr4   1.924488 S    
O24   Cr6   2.025210 S    
O20   C60   1.275113 A    
O25   Cr6   1.945152 S    
N7    O39   1.301516 A    
C7    C15   1.399673 A    
N6    O37   1.301400 A    
C19   N7    1.445979 S    
