data_mof_unit_16687.cif
_audit_creation_date              2012-12-10T18:57:04-0500
_audit_creation_method            fapswitch 2.2
_symmetry_space_group_name_H-M    P1
_symmetry_Int_Tables_number       1
_space_group_crystal_system       triclinic
_cell_length_a                    10.774656
_cell_length_b                    9.894107
_cell_length_c                    10.703581
_cell_angle_alpha                 89.230679
_cell_angle_beta                  91.798525
_cell_angle_gamma                 88.942472
_cell_volume                      1140.19328128

loop_
_atom_site_label
_atom_site_type_symbol
_atom_type_description
_atom_site_fract_x
_atom_site_fract_y
_atom_site_fract_z
_atom_type_partial_charge
C1    C     C_R   0.259828 0.501559 0.502144 0.895086
C2    C     C_R   0.739570 0.498963 0.496347 0.904022
C3    C     C_R   0.571463 0.070914 0.584207 -0.104316
C4    C     C_R   0.429053 0.076416 0.415517 -0.102180
C5    C     C_R   0.575581 0.927162 0.583513 0.243129
C6    C     C_R   0.426610 0.932535 0.414693 0.233081
C7    C     C_R   0.506331 0.500635 0.260112 0.869888
C8    C     C_R   0.504471 0.499059 0.739924 0.871199
C9    C     C_R   0.542725 0.621248 0.062348 0.003384
C10   C     C_R   0.532517 0.618736 0.934758 0.054814
C11   C     C_R   0.530987 0.500458 0.129594 -0.118136
C12   C     C_R   0.525066 0.497382 0.871659 -0.079943
C13   C     C_R   0.544508 0.376608 0.067741 -0.196960
C14   C     C_R   0.542728 0.375222 0.938202 -0.227875
C15   C     C_3   0.459484 0.749270 0.923994 0.013361
C16   C     C_3   0.473694 0.754490 0.066497 0.017322
C17   C     C_R   0.066389 0.387714 0.539237 -0.242174
C18   C     C_R   0.939013 0.385223 0.535571 -0.253892
C19   C     C_R   0.871670 0.498299 0.490607 -0.087728
C20   C     C_R   0.126628 0.505490 0.503678 -0.098789
C21   C     C_R   0.930914 0.614435 0.447675 0.170057
C22   C     C_R   0.058543 0.622508 0.463979 0.149983
H1    H     H_    0.546937 0.280766 0.118008 0.177414
H2    H     H_    0.545538 0.278886 0.891324 0.165626
H3    H     H_    0.508488 0.827887 0.871210 0.160635
H4    H     H_    0.385531 0.746171 0.115644 0.167763
H5    H     H_    0.117659 0.298191 0.572081 0.175759
H6    H     H_    0.893359 0.295370 0.568462 0.172416
H7    H     H_    0.626092 0.126635 0.651545 0.150275
H8    H     H_    0.374133 0.137364 0.349358 0.163847
N1    N     N_R   0.500000 0.857200 0.500000 -0.159310
N2    N     N_R   0.500000 0.142810 0.500000 -0.124537
O1    O     O_R   0.316770 0.614620 0.499990 -0.611437
O2    O     O_R   0.683230 0.614620 0.500010 -0.614900
O3    O     O_R   0.316800 0.385290 0.500000 -0.624924
O4    O     O_R   0.683200 0.385290 0.500000 -0.629140
O5    O     O_R   0.500000 0.614690 0.316780 -0.648316
O6    O     O_R   0.500000 0.614690 0.683220 -0.650353
O7    O     O_R   0.500020 0.385360 0.316780 -0.619449
O8    O     O_R   0.499980 0.385360 0.683220 -0.626488
Zn1   Zn    Zn3+2 0.500000 0.653120 0.500000 0.923714
Zn2   Zn    Zn3+2 0.500000 0.346880 0.500000 0.932295
N3    N     N_2   0.330553 0.738310 0.879119 -0.302658
H9    H     H_    0.316743 0.768202 0.787137 0.239802
C23   C     C_3   0.255325 0.624384 0.914238 -0.774864
H10   H     H_    0.155722 0.654300 0.903761 0.233613
H11   H     H_    0.273917 0.591591 0.012545 0.234474
H12   H     H_    0.272128 0.538075 0.851511 0.232790
N4    N     N_2   0.550335 0.863393 0.115613 -0.286759
H13   H     H_    0.567978 0.854543 0.210503 0.264084
C24   C     C_3   0.656852 0.909754 0.048336 -0.819791
H14   H     H_    0.717591 0.969638 0.111543 0.237465
H15   H     H_    0.625942 0.977758 0.969731 0.247177
H16   H     H_    0.712255 0.823266 0.013316 0.250633
N5    N     N_2   0.862260 0.719464 0.382571 -0.284249
H17   H     H_    0.881509 0.817615 0.406347 0.227713
C25   C     C_3   0.841265 0.697895 0.250133 -0.803676
H18   H     H_    0.877546 0.597662 0.220510 0.236100
H19   H     H_    0.740272 0.701836 0.228849 0.272868
H20   H     H_    0.887105 0.777811 0.195292 0.224685
N6    N     N_2   0.117549 0.746926 0.439054 -0.297388
H21   H     H_    0.086250 0.795111 0.357921 0.234528
C26   C     C_3   0.123103 0.836376 0.544942 -0.764245
H22   H     H_    0.028613 0.872040 0.568397 0.215407
H23   H     H_    0.179624 0.925521 0.522501 0.240617
H24   H     H_    0.166438 0.783389 0.627637 0.251571
N7    N     N_2   0.656881 0.857269 0.671848 -0.311205
H25   H     H_    0.662970 0.754942 0.665430 0.294468
C27   C     C_3   0.775902 0.916269 0.702967 -0.887364
H26   H     H_    0.837397 0.840076 0.752336 0.247128
H27   H     H_    0.763866 0.002253 0.767202 0.245635
H28   H     H_    0.821726 0.950229 0.616799 0.245804
N8    N     N_2   0.351525 0.866773 0.322336 -0.303806
H29   H     H_    0.329585 0.768224 0.337713 0.296515
C28   C     C_3   0.264529 0.943541 0.241496 -0.888477
H30   H     H_    0.210560 0.873842 0.181184 0.242756
H31   H     H_    0.315430 0.012208 0.179087 0.267423
H32   H     H_    0.198144 0.002158 0.297872 0.247003

loop_
_geom_bond_atom_site_label_1
_geom_bond_atom_site_label_2
_ccdc_geom_bond_type
N5    H17   S    
C26   H23   S    
N8    H29   S    
O4    Zn2   S    
C5    N7    S    
C1    O1    A    
C23   H10   S    
C7    C11   S    
C19   C21   A    
C9    C16   S    
C10   C15   S    
C25   H19   S    
C15   C16   S    
C17   C20   A    
C13   H1    S    
C27   H27   S    
C18   C19   A    
C14   H2    S    
C3    H7    S    
O3    Zn2   S    
N4    C24   S    
C9    C10   A    
C2    O2    A    
O8    Zn2   S    
C6    N1    A    
C26   H24   S    
C21   C22   A    
N8    C28   S    
N6    H21   S    
O2    Zn1   S    
C8    O6    A    
O7    Zn2   S    
C23   H11   S    
C16   H4    S    
N7    H25   S    
C17   H5    S    
C18   H6    S    
C16   N4    S    
O6    Zn1   S    
C4    C6    A    
C21   N5    S    
C25   H20   S    
C24   H14   S    
C24   H15   S    
C27   H28   S    
C28   H30   S    
C28   H31   S    
C8    C12   S    
N6    C26   S    
C17   C18   A    
C7    O5    A    
C9    C11   A    
C4    N2    A    
C10   C12   A    
C12   C14   A    
N5    C25   S    
N3    H9    S    
C1    O3    A    
C6    N8    S    
C23   H12   S    
C2    O4    A    
C1    C20   S    
N2    Zn2   S    
N1    Zn1   S    
C2    C19   S    
C20   C22   A    
C3    C5    A    
C24   H16   S    
O1    Zn1   S    
C15   N3    S    
N3    C23   S    
C22   N6    S    
C11   C13   A    
C25   H18   S    
O5    Zn1   S    
C3    N2    A    
C28   H32   S    
C27   H26   S    
C15   H3    S    
C26   H22   S    
N4    H13   S    
C7    O7    A    
C8    O8    A    
N7    C27   S    
C13   C14   A    
C4    H8    S    
C5    N1    A    
