data_mof_unit_6089.cif
_audit_creation_date              2012-12-10T19:28:56-0500
_audit_creation_method            fapswitch 2.2
_symmetry_space_group_name_H-M    P1
_symmetry_Int_Tables_number       1
_space_group_crystal_system       triclinic
_cell_length_a                    17.711948
_cell_length_b                    16.725914
_cell_length_c                    10.668041
_cell_angle_alpha                 92.121276
_cell_angle_beta                  97.059234
_cell_angle_gamma                 90.611862
_cell_volume                      3133.91556962

loop_
_atom_site_label
_atom_site_type_symbol
_atom_type_description
_atom_site_fract_x
_atom_site_fract_y
_atom_site_fract_z
_atom_type_partial_charge
C1    C     C_R   0.355617 0.499506 0.500179 0.802391
C2    C     C_R   0.644055 0.500409 0.493877 0.791492
C3    C     C_1   0.963428 0.500140 0.460017 -0.088857
C4    C     C_1   0.031588 0.499349 0.468182 -0.084208
C5    C     C_R   0.532086 0.831197 0.611293 -0.092891
C6    C     C_R   0.444986 0.166159 0.426004 -0.079754
C7    C     C_R   0.454524 0.828346 0.410356 -0.097704
C8    C     C_R   0.548999 0.172796 0.592369 -0.095346
C9    C     C_R   0.541658 0.746252 0.598171 0.200768
C10   C     C_R   0.447432 0.252009 0.419349 0.200198
C11   C     C_R   0.451728 0.742445 0.411965 0.224795
C12   C     C_R   0.551392 0.258615 0.585749 0.219241
C13   C     C_R   0.494605 0.873587 0.511280 -0.084937
C14   C     C_R   0.497160 0.125991 0.509904 -0.086685
C15   C     C_1   0.495051 0.962950 0.513607 0.129986
C16   C     C_1   0.495930 0.036615 0.513271 0.116854
C17   C     C_R   0.499956 0.498896 0.259001 0.791275
C18   C     C_R   0.502312 0.501536 0.740810 0.799812
C19   C     C_3   0.441944 0.541681 0.032675 -0.211006
C20   C     C_3   0.563063 0.461618 0.966219 -0.222039
C21   C     C_3   0.507026 0.578855 0.967740 -0.188604
C22   C     C_3   0.497972 0.424241 0.030476 -0.203353
C23   C     C_3   0.439007 0.468225 0.940442 0.052428
C24   C     C_3   0.565854 0.535087 0.058463 0.051668
C25   C     C_3   0.503254 0.504580 0.877382 -0.072770
C26   C     C_3   0.501577 0.497983 0.121961 -0.070357
C27   C     C_R   0.846422 0.574663 0.482091 0.116877
C28   C     C_R   0.150138 0.431030 0.432742 0.115058
C29   C     C_R   0.155890 0.564767 0.539123 0.108837
C30   C     C_R   0.838467 0.430744 0.424535 0.111954
C31   C     C_R   0.768281 0.573115 0.494372 -0.210310
C32   C     C_R   0.229916 0.432297 0.441984 -0.211174
C33   C     C_R   0.235703 0.562563 0.549241 -0.160141
C34   C     C_R   0.759890 0.432429 0.433076 -0.164517
C35   C     C_R   0.725537 0.501722 0.475484 -0.093947
C36   C     C_R   0.272491 0.497938 0.498009 -0.094010
C37   C     C_R   0.881784 0.501892 0.454331 0.066835
C38   C     C_R   0.113441 0.498485 0.479865 0.060537
Cu1   Cu    Cu3+1 0.500000 0.580420 0.500000 0.935967
Cu2   Cu    Cu3+1 0.500000 0.419580 0.500000 0.937067
H1    H     H_    0.392031 0.573715 0.062142 0.157826
H2    H     H_    0.612923 0.429588 0.936524 0.156889
H3    H     H_    0.510924 0.642029 0.940743 0.171327
H4    H     H_    0.497334 0.360376 0.051451 0.169478
H5    H     H_    0.740184 0.627049 0.519558 0.161107
H6    H     H_    0.259781 0.383170 0.403718 0.139007
H7    H     H_    0.270286 0.610728 0.596814 0.144711
H8    H     H_    0.724597 0.380280 0.406431 0.146205
N1    N     N_R   0.500000 0.701220 0.500000 -0.188536
N2    N     N_R   0.500000 0.298780 0.500000 -0.187168
O1    O     O_R   0.391260 0.567930 0.500000 -0.593647
O2    O     O_R   0.608740 0.432070 0.500000 -0.595262
O3    O     O_R   0.608740 0.567930 0.500000 -0.580494
O4    O     O_R   0.391260 0.432070 0.500000 -0.582864
O5    O     O_R   0.499980 0.567900 0.316850 -0.565726
O6    O     O_R   0.500020 0.432100 0.683150 -0.557618
O7    O     O_R   0.500020 0.567900 0.683150 -0.610301
O8    O     O_R   0.499980 0.432100 0.316850 -0.597004
C39   C     C_2   0.367424 0.433596 0.867870 0.795040
O9    O     O_2   0.306154 0.463823 0.880423 -0.610277
O10   O     O_R   0.371306 0.367283 0.785475 -0.735198
H9    H     H_    0.319572 0.350093 0.740596 0.335891
C40   C     C_2   0.637078 0.572720 0.127174 0.812982
O11   O     O_2   0.698954 0.544478 0.113025 -0.610852
O12   O     O_R   0.632182 0.639884 0.207411 -0.731126
H10   H     H_    0.683832 0.659386 0.249678 0.328307
C41   C     C_3   0.894147 0.651792 0.498950 -0.403653
C42   C     C_3   0.849680 0.729820 0.503785 -0.373042
C43   C     C_3   0.902146 0.802844 0.504867 -0.817004
H11   H     H_    0.944694 0.804172 0.590507 0.251790
H12   H     H_    0.931976 0.801705 0.419122 0.253423
H13   H     H_    0.868089 0.858148 0.506421 0.255314
H14   H     H_    0.805438 0.731734 0.420482 0.229042
H15   H     H_    0.822516 0.733132 0.591670 0.228473
H16   H     H_    0.934651 0.648716 0.586867 0.196952
H17   H     H_    0.927923 0.654619 0.417878 0.208972
C44   C     C_3   0.102480 0.359674 0.372971 -0.409502
C45   C     C_3   0.147072 0.288519 0.326165 -0.352344
C46   C     C_3   0.093483 0.220497 0.271330 -0.796895
H18   H     H_    0.060098 0.198283 0.344841 0.250999
H19   H     H_    0.053883 0.241242 0.190530 0.245453
H20   H     H_    0.127175 0.170351 0.237257 0.262398
H21   H     H_    0.180760 0.307915 0.251164 0.217916
H22   H     H_    0.186117 0.265512 0.405965 0.239054
H23   H     H_    0.067040 0.337797 0.444120 0.203285
H24   H     H_    0.063523 0.380916 0.291585 0.201999
C47   C     C_3   0.114260 0.636474 0.588785 -0.408190
C48   C     C_3   0.164858 0.705628 0.651636 -0.356548
C49   C     C_3   0.116974 0.774497 0.694021 -0.819307
H25   H     H_    0.083448 0.800281 0.610710 0.252306
H26   H     H_    0.077769 0.753442 0.759961 0.251400
H27   H     H_    0.154881 0.822132 0.743319 0.254800
H28   H     H_    0.201185 0.684136 0.735799 0.233686
H29   H     H_    0.201618 0.728830 0.583511 0.221319
H30   H     H_    0.076464 0.660389 0.508200 0.199193
H31   H     H_    0.077821 0.615015 0.658803 0.206195
C50   C     C_3   0.878192 0.355036 0.384800 -0.404094
C51   C     C_3   0.826655 0.281640 0.345605 -0.365093
C52   C     C_3   0.872769 0.211188 0.303423 -0.814699
H32   H     H_    0.901734 0.226983 0.220864 0.252090
H33   H     H_    0.916018 0.194090 0.381881 0.251586
H34   H     H_    0.834241 0.159026 0.275690 0.252230
H35   H     H_    0.797964 0.263212 0.426985 0.221256
H36   H     H_    0.783106 0.296293 0.265915 0.229345
H37   H     H_    0.909205 0.369274 0.303636 0.207611
H38   H     H_    0.920947 0.338744 0.464666 0.197369
C53   C     C_2   0.556127 0.874941 0.733491 0.827936
O13   O     O_2   0.531785 0.853693 0.829573 -0.573463
O14   O     O_R   0.606649 0.939866 0.738931 -0.729944
H39   H     H_    0.619790 0.963272 0.828046 0.344718
C54   C     C_2   0.387776 0.116595 0.344057 0.841968
O15   O     O_2   0.320395 0.120301 0.357977 -0.596524
O16   O     O_R   0.411693 0.067464 0.248107 -0.738967
H40   H     H_    0.367644 0.044939 0.187064 0.338875
C55   C     C_2   0.408440 0.871494 0.309668 0.850478
O17   O     O_2   0.421782 0.864263 0.200120 -0.558741
O18   O     O_R   0.348177 0.918484 0.340874 -0.756727
H41   H     H_    0.314204 0.935902 0.263632 0.335779
C56   C     C_2   0.599775 0.130829 0.688714 0.844569
O19   O     O_2   0.648621 0.086456 0.655442 -0.568077
O20   O     O_R   0.591382 0.141819 0.816739 -0.760102
H42   H     H_    0.630319 0.111380 0.873328 0.333504
C57   C     C_3   0.597452 0.707386 0.697475 -0.365750
C58   C     C_3   0.678824 0.741708 0.706143 -0.414548
C59   C     C_3   0.734078 0.692651 0.793045 -0.831322
H43   H     H_    0.715379 0.691113 0.888619 0.277613
H44   H     H_    0.737012 0.630403 0.754173 0.247537
H45   H     H_    0.791846 0.720278 0.802479 0.247203
H46   H     H_    0.696475 0.741910 0.610085 0.217335
H47   H     H_    0.682477 0.804063 0.744781 0.256979
H48   H     H_    0.576632 0.713193 0.791214 0.206895
H49   H     H_    0.603013 0.643891 0.677201 0.256790
C60   C     C_3   0.388519 0.289727 0.324072 -0.390402
C61   C     C_3   0.395521 0.265579 0.185777 -0.391810
C62   C     C_3   0.341983 0.314228 0.096444 -0.810393
H50   H     H_    0.282015 0.302442 0.111437 0.252294
H51   H     H_    0.354565 0.379172 0.112688 0.248581
H52   H     H_    0.348738 0.296018 0.997536 0.274670
H53   H     H_    0.455287 0.273533 0.168260 0.229237
H54   H     H_    0.379706 0.202529 0.161986 0.252747
H55   H     H_    0.330730 0.273830 0.346013 0.189919
H56   H     H_    0.392811 0.354483 0.329251 0.255750
C63   C     C_3   0.389491 0.699712 0.320791 -0.361813
C64   C     C_3   0.309550 0.715698 0.357639 -0.400705
C65   C     C_3   0.248749 0.665954 0.274233 -0.822564
H57   H     H_    0.247061 0.682692 0.174148 0.261221
H58   H     H_    0.260677 0.601117 0.280896 0.252477
H59   H     H_    0.192177 0.677261 0.305600 0.249501
H60   H     H_    0.308273 0.701097 0.457755 0.229084
H61   H     H_    0.294466 0.779338 0.348745 0.247281
H62   H     H_    0.392935 0.717801 0.222586 0.203937
H63   H     H_    0.394696 0.635204 0.316565 0.248807
C66   C     C_3   0.612933 0.302720 0.676967 -0.356315
C67   C     C_3   0.693782 0.286546 0.644546 -0.398486
C68   C     C_3   0.752434 0.343398 0.719104 -0.825692
H64   H     H_    0.738157 0.406676 0.700713 0.249963
H65   H     H_    0.754341 0.334006 0.821971 0.259037
H66   H     H_    0.809583 0.331580 0.690396 0.250258
H67   H     H_    0.711490 0.224928 0.666301 0.245405
H68   H     H_    0.694797 0.293105 0.542173 0.221173
H69   H     H_    0.606790 0.367014 0.680876 0.249480
H70   H     H_    0.608431 0.285807 0.775365 0.204130

loop_
_geom_bond_atom_site_label_1
_geom_bond_atom_site_label_2
_ccdc_geom_bond_type
C2    C35   S    
C62   H52   S    
Cu1   O1    S    
C47   C48   S    
C40   O12   S    
C57   H49   S    
C68   H65   S    
C6    C54   S    
C19   C23   S    
C54   O15   D    
C10   C60   S    
C12   C66   S    
C50   C51   S    
C57   C58   S    
Cu1   O3    S    
C44   C45   S    
C23   C39   S    
C30   C50   S    
C60   H56   S    
C17   C26   S    
C32   C36   A    
C19   C21   S    
C24   C26   S    
C61   H54   S    
C51   H36   S    
C20   C25   S    
C42   H15   S    
C15   C16   T    
Cu1   O7    S    
C29   C33   A    
C33   C36   A    
C34   C35   A    
C7    C55   S    
C43   H12   S    
C19   C26   S    
C64   H61   S    
C21   H3    S    
C45   H21   S    
Cu1   O5    S    
C20   C24   S    
C42   C43   S    
Cu2   O6    S    
C47   H30   S    
C29   C38   A    
C59   H45   S    
C8    C14   A    
C53   O13   D    
C49   H26   S    
C17   O5    A    
C5    C13   A    
C18   O6    A    
C17   O8    A    
C50   H37   S    
C63   H62   S    
C44   H23   S    
C39   O9    D    
C68   H66   S    
C53   O14   S    
O10   H9    S    
C18   C25   S    
C28   C32   A    
C65   H58   S    
C65   H57   S    
C56   O20   S    
C48   H29   S    
C39   O10   S    
Cu2   O8    S    
C67   H68   S    
C30   C34   A    
C27   C31   A    
C41   C42   S    
C62   H50   S    
C9    N1    A    
C61   H53   S    
C46   H19   S    
C45   C46   S    
C55   O18   S    
C42   H14   S    
Cu2   O2    S    
C46   H18   S    
C30   C37   A    
C66   H69   S    
C43   H13   S    
C7    C11   A    
C1    O4    A    
C5    C9    A    
C64   H60   S    
C11   N1    A    
C6    C14   A    
C18   O7    A    
C12   N2    A    
C52   H32   S    
C28   C38   A    
C8    C12   A    
C47   H31   S    
C67   C68   S    
C58   H47   S    
C54   O16   S    
C49   H27   S    
C28   C44   S    
C1    O1    A    
O20   H42   S    
C2    O2    A    
C50   H38   S    
C63   H63   S    
C52   H33   S    
C4    C38   S    
C44   H24   S    
C51   C52   S    
C24   C40   S    
Cu2   O4    S    
C13   C15   S    
C31   H5    S    
C59   H43   S    
C33   H7    S    
C31   C35   A    
C34   H8    S    
C3    C4    T    
C10   N2    A    
Cu1   Cu2   S    
C65   H59   S    
O16   H40   S    
C5    C53   S    
C62   H51   S    
C21   C25   S    
C48   H28   S    
C22   H4    S    
C57   H48   S    
C1    C36   S    
C32   H6    S    
C20   C22   S    
C64   C65   S    
C2    O3    A    
C6    C10   A    
C46   H20   S    
C20   H2    S    
C56   O19   D    
Cu1   N1    S    
C61   C62   S    
C60   H55   S    
C66   H70   S    
C63   C64   S    
C49   H25   S    
C67   H67   S    
C51   H35   S    
O18   H41   S    
C55   O17   D    
C60   C61   S    
C27   C37   A    
Cu2   N2    S    
C9    C57   S    
C58   H46   S    
C14   C16   S    
C23   C25   S    
C43   H11   S    
C29   C47   S    
C27   C41   S    
C40   O11   D    
C45   H22   S    
C7    C13   A    
C52   H34   S    
C41   H16   S    
C48   C49   S    
C3    C37   S    
O12   H10   S    
C22   C26   S    
C21   C24   S    
C68   H64   S    
C59   H44   S    
C22   C23   S    
C41   H17   S    
C66   C67   S    
O14   H39   S    
C11   C63   S    
C19   H1    S    
C8    C56   S    
C58   C59   S    
