data_mof_unit_58871.cif
_audit_creation_date              2012-12-11T16:08:44-0500
_audit_creation_method            fapswitch 2.2
_symmetry_space_group_name_H-M    P1
_symmetry_Int_Tables_number       1
_space_group_crystal_system       triclinic
_cell_length_a                    12.978008
_cell_length_b                    13.321549
_cell_length_c                    27.682059
_cell_angle_alpha                 95.12623
_cell_angle_beta                  89.869975
_cell_angle_gamma                 119.483955
_cell_volume                      4144.60458452

loop_
_atom_site_label
_atom_site_type_symbol
_atom_type_description
_atom_site_fract_x
_atom_site_fract_y
_atom_site_fract_z
_atom_type_partial_charge
C1    C     C_R   0.628689 0.898596 0.426479 0.552715
C2    C     C_R   0.628429 0.229793 0.217978 0.272222
C3    C     C_R   0.619048 0.214556 0.267657 -0.088052
C4    C     C_R   0.671644 0.310362 0.302836 0.001663
C5    C     C_R   0.691495 0.343092 0.203762 0.036436
C6    C     C_1   0.696816 0.365949 0.153545 0.007821
C7    C     C_1   0.654555 0.292232 0.353397 -0.003480
C8    C     C_1   0.703411 0.393826 0.112881 0.013003
C9    C     C_R   0.228784 0.766597 0.342074 0.224838
C10   C     C_R   0.189226 0.748995 0.293529 -0.001153
C11   C     C_R   0.183664 0.753851 0.193430 -0.010330
C12   C     C_R   0.601358 0.221855 0.440542 0.551789
C13   C     C_R   0.177381 0.657874 0.213174 -0.106107
C14   C     C_R   0.171927 0.651054 0.262775 0.227687
C15   C     C_R   0.183236 0.756302 0.143177 0.232652
C16   C     C_R   0.143576 0.824573 0.123228 0.004971
C17   C     C_R   0.173158 0.916252 0.356816 0.210828
C18   C     C_R   0.167158 0.921323 0.305923 0.000061
C19   C     C_R   0.175809 0.836632 0.274350 -0.097697
C20   C     C_R   0.154100 0.008322 0.285847 0.262401
C21   C     C_R   0.135887 0.002436 0.234965 0.258530
C22   C     C_R   0.154912 0.923867 0.203272 0.030641
C23   C     C_R   0.273474 0.876670 0.424178 0.614518
C24   C     C_R   0.171606 0.838648 0.223666 -0.055475
C25   C     C_R   0.148999 0.920925 0.151756 0.210839
C26   C     C_R   0.220011 0.850821 0.374358 0.008820
C27   C     C_R   0.740785 0.968119 0.350870 0.245167
C28   C     C_R   0.724318 0.958932 0.300218 -0.003603
C29   C     C_R   0.715816 0.932554 0.198759 0.058831
C30   C     C_R   0.779937 0.042823 0.223525 -0.083604
C31   C     C_R   0.782619 0.056239 0.273765 -0.094985
C32   C     C_R   0.727784 0.916147 0.149351 -0.048038
C33   C     C_R   0.672676 0.804092 0.125640 -0.002726
C34   C     C_R   0.627126 0.898784 0.564937 0.547192
C35   C     C_R   0.578228 0.767765 0.351053 -0.165181
C36   C     C_R   0.577788 0.753004 0.300606 -0.013378
C37   C     C_R   0.647613 0.849669 0.275113 0.025180
C38   C     C_R   0.505870 0.643983 0.275108 -0.104553
C39   C     C_R   0.506014 0.629855 0.224576 -0.117789
C40   C     C_R   0.577176 0.725080 0.199068 0.007399
C41   C     C_R   0.644889 0.836122 0.224263 0.077381
C42   C     C_R   0.590109 0.709949 0.149414 -0.132704
C43   C     C_R   0.655293 0.875154 0.376481 -0.006049
C44   C     C_R   0.741071 0.300595 0.650968 -0.171389
C45   C     C_R   0.604375 0.229912 0.577886 0.567679
C46   C     C_R   0.753510 0.321879 0.701547 -0.001427
C47   C     C_R   0.766687 0.347012 0.803618 -0.001230
C48   C     C_R   0.858386 0.344065 0.777719 -0.121000
C49   C     C_R   0.850440 0.328698 0.726997 -0.110172
C50   C     C_R   0.776006 0.367388 0.854266 -0.180802
C51   C     C_R   0.684199 0.371299 0.879736 0.029663
C52   C     C_R   0.570552 0.330700 0.651444 0.248350
C53   C     C_R   0.568876 0.329395 0.702049 0.001950
C54   C     C_R   0.662868 0.328597 0.727264 0.020015
C55   C     C_R   0.472574 0.322287 0.727717 -0.096713
C56   C     C_R   0.271580 0.879446 0.563339 0.557209
C57   C     C_R   0.471053 0.318117 0.777608 -0.146342
C58   C     C_R   0.570033 0.330401 0.803709 0.012159
C59   C     C_R   0.666494 0.335242 0.778256 0.030426
C60   C     C_R   0.576273 0.341196 0.854700 0.232617
C61   C     C_R   0.644732 0.296603 0.625980 -0.003312
C62   C     C_1   0.221887 0.863241 0.610115 0.026740
C63   C     C_R   0.074832 0.750075 0.718290 -0.046399
C64   C     C_R   0.060090 0.740092 0.767974 -0.090324
C65   C     C_R   0.237436 0.926937 0.786169 -0.087121
C66   C     C_R   0.252156 0.936958 0.736438 -0.074620
C67   C     C_1   0.634010 0.267422 0.394492 0.048739
C68   C     C_R   0.171206 0.848278 0.702433 0.082583
C69   C     C_R   0.141941 0.827912 0.801989 0.036010
C70   C     C_1   0.125316 0.815300 0.852901 -0.049732
C71   C     C_1   0.193423 0.854808 0.651622 -0.007569
C72   C     C_1   0.101558 0.797635 0.894477 0.003016
C73   C     C_1   0.643149 0.864781 0.610786 0.052526
C74   C     C_R   0.768265 0.867537 0.727222 0.249611
C75   C     C_R   0.770359 0.857539 0.777186 -0.102375
C76   C     C_R   0.556202 0.765335 0.776549 -0.111193
C77   C     C_R   0.552995 0.774275 0.726702 -0.131274
C78   C     C_R   0.736614 0.422095 0.288552 -0.069351
C79   C     C_R   0.658332 0.825526 0.701811 0.041026
C80   C     C_R   0.664972 0.807921 0.801940 -0.005965
C81   C     C_1   0.670564 0.797811 0.853107 -0.046142
C82   C     C_1   0.651617 0.843494 0.651540 0.045776
C83   C     C_1   0.684885 0.789004 0.895211 -0.000443
C84   C     C_R   0.069470 0.775966 0.077794 0.570479
C85   C     C_R   0.716810 0.441307 0.067250 0.545415
C86   C     C_R   0.718762 0.782610 0.080326 0.540866
C87   C     C_R   0.056815 0.766272 0.941341 0.548271
C88   C     C_R   0.709276 0.432524 0.929077 0.566612
C89   C     C_R   0.746437 0.438286 0.239240 -0.114975
C90   C     C_R   0.716268 0.776060 0.942969 0.542853
Cr1   Cr    Cr6+3 0.416430 0.829200 0.492370 1.092198
Cr2   Cr    Cr6+3 0.674630 0.087020 0.504170 1.113078
Cr3   Cr    Cr6+3 0.408920 0.083740 0.503490 1.155475
Cr4   Cr    Cr6+3 0.914010 0.832750 0.013970 1.133390
Cr5   Cr    Cr6+3 0.922310 0.578600 0.003000 1.068576
Cr6   Cr    Cr6+3 0.656280 0.574630 0.003870 1.067606
H1    H     H_    0.777904 0.496679 0.315438 0.151074
H2    H     H_    0.788670 0.989131 0.130419 0.175754
H3    H     H_    0.830922 0.118292 0.204176 0.166734
H4    H     H_    0.830970 0.143612 0.291386 0.209891
H5    H     H_    0.545335 0.623200 0.130654 0.144283
H6    H     H_    0.453287 0.544084 0.205606 0.146356
H7    H     H_    0.452312 0.569159 0.294374 0.174860
H8    H     H_    0.795236 0.525672 0.228719 0.126647
H9    H     H_    0.516419 0.696460 0.370550 0.162615
H10   H     H_    0.857592 0.387360 0.873509 0.138034
H11   H     H_    0.802347 0.280639 0.631447 0.156963
H12   H     H_    0.935625 0.352527 0.796697 0.119959
H13   H     H_    0.920564 0.323349 0.707678 0.141761
H14   H     H_    0.392714 0.308373 0.795271 0.135941
H15   H     H_    0.395222 0.314601 0.709317 0.197772
H16   H     H_    0.012342 0.680676 0.692350 0.135464
H17   H     H_    0.985493 0.663383 0.779882 0.116465
H18   H     H_    0.300756 0.995615 0.812132 0.131695
H19   H     H_    0.327571 0.012944 0.724497 0.115326
H20   H     H_    0.854101 0.888800 0.797057 0.145560
H21   H     H_    0.474150 0.725863 0.795258 0.127884
H22   H     H_    0.468198 0.742915 0.707645 0.131552
H23   H     H_    0.569266 0.128186 0.279111 0.147778
H24   H     H_    0.167137 0.583426 0.189917 0.149839
O1    O     O_R   0.296680 0.802170 0.437540 -0.433692
O2    O     O_R   0.662610 0.183990 0.557860 -0.519705
O3    O     O_R   0.500730 0.201280 0.562180 -0.430763
O4    O     O_R   0.312500 0.978850 0.548170 -0.471552
O5    O     O_3   0.499990 0.999990 0.500010 -0.305921
O6    O     O_R   0.820790 0.857990 0.068830 -0.475133
O7    O     O_R   0.016700 0.827330 0.062850 -0.447879
O8    O     O_R   0.041970 0.673520 0.060040 -0.448023
O9    O     O_R   0.817980 0.483660 0.048840 -0.488170
O10   O     O_R   0.637200 0.461990 0.052510 -0.498995
O11   O     O_R   0.664790 0.681920 0.057970 -0.508514
O12   O     O_R   0.525380 0.838530 0.443500 -0.497482
O13   O     O_R   0.815840 0.852920 0.961840 -0.498067
O14   O     O_R   0.012100 0.822630 0.963670 -0.478917
O15   O     O_R   0.037010 0.668460 0.953040 -0.509567
O16   O     O_R   0.813390 0.478970 0.949660 -0.518217
O17   O     O_R   0.632250 0.456930 0.945520 -0.451001
O18   O     O_R   0.660200 0.677230 0.958780 -0.497887
O19   O     O_3   0.830870 0.661990 0.006950 -0.283000
O20   O     O_R   0.702130 0.995190 0.446810 -0.429233
O21   O     O_R   0.661770 0.181390 0.458760 -0.464723
O22   O     O_R   0.499820 0.198480 0.455280 -0.486623
O23   O     O_R   0.311660 0.976250 0.449080 -0.463539
O24   O     O_R   0.297580 0.804960 0.544440 -0.505416
O25   O     O_R   0.526220 0.841130 0.542590 -0.504687
O26   O     O_R   0.703030 0.997990 0.553710 -0.479958
O27   O     O_3   0.090152 0.066035 0.216461 -0.626656
H25   H     H_    0.046071 0.084376 0.241770 0.345475
O28   O     O_3   0.167076 0.102588 0.315944 -0.585346
H26   H     H_    0.192195 0.169633 0.296786 0.356517
S1    S     S_3+6 0.090494 0.957945 0.396462 0.105039
O29   O     O_2   0.159997 0.085619 0.412466 -0.165146
O30   O     O_2   0.977777 0.929242 0.369320 -0.220767
O31   O     O_3   0.055559 0.883942 0.445684 -0.529246
H27   H     H_    0.006824 0.910162 0.464662 0.383115
S2    S     S_3+6 0.871443 0.092956 0.379540 0.085472
O32   O     O_2   0.912326 0.066895 0.425190 -0.188965
O33   O     O_2   0.971787 0.133458 0.345661 -0.218200
O34   O     O_3   0.840782 0.200698 0.392908 -0.530600
H28   H     H_    0.917352 0.268784 0.404914 0.385587
O35   O     O_3   0.480238 0.328141 0.880674 -0.665618
H29   H     H_    0.455234 0.381622 0.869219 0.321981
S3    S     S_3+6 0.488768 0.383701 0.621049 0.029698
O36   O     O_2   0.362571 0.288263 0.611553 -0.256733
O37   O     O_2   0.490783 0.483034 0.652298 -0.292638
O38   O     O_3   0.549272 0.430630 0.568097 -0.496476
H30   H     H_    0.496570 0.454304 0.552918 0.374396
S4    S     S_3+6 0.558609 0.107162 0.174597 -0.002703
O39   O     O_2   0.648161 0.107348 0.140014 -0.318647
O40   O     O_2   0.504540 0.996835 0.198797 -0.281349
O41   O     O_3   0.451203 0.112901 0.143369 -0.486497
H31   H     H_    0.488946 0.153034 0.114517 0.354184
S5    S     S_3+6 0.903540 0.933859 0.697608 0.015790
O42   O     O_2   0.905496 0.846955 0.659627 -0.231717
O43   O     O_2   0.913203 0.034335 0.673187 -0.277667
O44   O     O_3   0.019977 0.981250 0.737227 -0.520863
H32   H     H_    0.027221 0.052277 0.755243 0.339620
O45   O     O_3   0.210645 0.685788 0.112528 -0.659577
H33   H     H_    0.271467 0.675180 0.129334 0.330584
O46   O     O_3   0.286591 0.710309 0.357262 -0.610343
H34   H     H_    0.330613 0.699377 0.329902 0.338688
S6    S     S_3+6 0.120989 0.512620 0.283599 0.032436
O47   O     O_2   0.221834 0.488113 0.287279 -0.303447
O48   O     O_2   0.068887 0.507079 0.332497 -0.185615
O49   O     O_3   0.015321 0.410138 0.244135 -0.518803
H35   H     H_    0.057772 0.384867 0.220656 0.356580
S7    S     S_3+6 0.168171 0.042536 0.122012 0.109810
O50   O     O_2   0.051209 0.039353 0.117453 -0.206333
O51   O     O_2   0.255632 0.154239 0.150621 -0.193620
O52   O     O_3   0.218086 0.039621 0.066000 -0.496113
H36   H     H_    0.285916 0.026226 0.070269 0.341445

loop_
_geom_bond_atom_site_label_1
_geom_bond_atom_site_label_2
_ccdc_geom_bond_type
C84   O8    A    
C66   C68   A    
O41   H31   S    
O52   H36   S    
C16   C25   A    
C86   O6    A    
C11   C13   A    
C65   H18   S    
C53   C55   A    
C35   C36   A    
Cr3   O4    S    
C1    O12   A    
Cr2   O5    S    
C72   C87   S    
Cr6   O19   S    
O35   H29   S    
C57   C58   A    
C23   O1    A    
S5    O42   D    
C45   O3    A    
C46   C49   A    
C29   C30   A    
C33   C42   A    
C56   O4    A    
C49   H13   S    
C36   C37   A    
S3    O37   D    
C8    C85   S    
C29   C32   A    
C52   C61   A    
Cr6   O18   S    
C5    C6    S    
C34   O25   A    
C65   C69   A    
C86   O11   A    
S1    O31   S    
Cr4   O6    S    
C58   C60   A    
C15   C16   A    
C11   C24   A    
C16   C84   S    
Cr4   O13   S    
C20   O28   S    
C17   C18   A    
C18   C19   A    
C23   C26   S    
C45   C61   S    
C63   H16   S    
C21   O27   S    
S6    O47   D    
S7    O52   S    
C25   S7    S    
O27   H25   S    
C85   O9    A    
S4    O39   D    
C11   C15   A    
Cr5   O8    S    
C1    C43   S    
S4    O41   S    
S3    O36   D    
C32   H2    S    
C22   C25   A    
S1    O29   D    
C50   H10   S    
C35   C43   A    
C75   C80   A    
C18   C20   A    
Cr3   O23   S    
C29   C41   A    
C84   O7    A    
S4    O40   D    
C21   C22   A    
Cr4   O19   S    
C87   O14   A    
C23   O23   A    
C17   S1    S    
C4    C7    S    
C14   S6    S    
C44   C46   A    
C9    C26   A    
C50   C51   A    
C47   C50   A    
S6    O48   D    
C54   C59   A    
S5    O43   D    
C78   C89   A    
C38   C39   A    
C12   C67   S    
C66   H19   S    
Cr2   O26   S    
C47   C48   A    
C87   O15   A    
S3    O38   S    
C76   C77   A    
C88   O16   A    
C74   S5    S    
C77   H22   S    
C74   C75   A    
Cr6   O17   S    
C90   O13   A    
C56   O24   A    
C6    C8    T    
Cr1   O12   S    
C52   S3    S    
C58   C59   A    
Cr4   O7    S    
C47   C59   A    
C30   H3    S    
S6    O49   S    
S2    O32   D    
C90   O18   A    
C33   C86   S    
C28   C31   A    
C4    C78   A    
C38   H7    S    
C35   H9    S    
Cr2   O2    S    
C85   O10   A    
C44   H11   S    
O34   H28   S    
C10   C19   A    
C46   C54   A    
C78   H1    S    
Cr5   O15   S    
C60   O35   S    
C77   C79   A    
C31   H4    S    
Cr2   O21   S    
C9    O46   S    
O31   H27   S    
C1    O20   A    
C3    H23   S    
Cr6   O11   S    
O44   H32   S    
C74   C79   A    
C55   C57   A    
C89   H8    S    
C10   C14   A    
O38   H30   S    
C45   O2    A    
C56   C62   S    
C2    C5    A    
C76   C80   A    
C17   C26   A    
C3    C4    A    
Cr2   O20   S    
C42   H5    S    
C2    S4    S    
C73   C82   T    
Cr1   O25   S    
C13   H24   S    
O46   H34   S    
C39   H6    S    
Cr6   O10   S    
Cr1   O24   S    
C9    C10   A    
S5    O44   S    
C27   S2    S    
C83   C90   S    
C63   C68   A    
C40   C41   A    
C64   H17   S    
Cr1   O5    S    
C55   H15   S    
C19   C24   A    
S2    O34   S    
Cr3   O3    S    
C80   C81   S    
C51   C88   S    
C81   C83   T    
C79   C82   S    
C57   H14   S    
C53   C54   A    
C75   H20   S    
C44   C61   A    
C64   C69   A    
Cr5   O19   S    
C76   H21   S    
C32   C33   A    
S2    O33   D    
C12   O21   A    
S7    O50   D    
O28   H26   S    
C36   C38   A    
C34   O26   A    
C30   C31   A    
O49   H35   S    
C48   H12   S    
C28   C37   A    
C68   C71   S    
C48   C49   A    
C40   C42   A    
Cr5   O16   S    
Cr4   O14   S    
C12   O22   A    
C62   C71   T    
C2    C3    A    
C22   C24   A    
S1    O30   D    
C37   C41   A    
C69   C70   S    
Cr3   O5    S    
C88   O17   A    
S7    O51   D    
C34   C73   S    
C7    C67   T    
C63   C64   A    
C39   C40   A    
C27   C43   A    
C20   C21   A    
C65   C66   A    
Cr1   O1    S    
C15   O45   S    
C27   C28   A    
Cr5   O9    S    
C70   C72   T    
C51   C60   A    
C13   C14   A    
C5    C89   A    
Cr3   O22   S    
C52   C53   A    
O45   H33   S    
