data_mof_unit_40086.cif
_audit_creation_date              2012-12-10T18:13:48-0500
_audit_creation_method            fapswitch 2.2
_symmetry_space_group_name_H-M    P1
_symmetry_Int_Tables_number       1
_space_group_crystal_system       triclinic
_cell_length_a                    11.154899
_cell_length_b                    9.750171
_cell_length_c                    23.584831
_cell_angle_alpha                 89.327766
_cell_angle_beta                  90.92009
_cell_angle_gamma                 89.007551
_cell_volume                      2564.23689426

loop_
_atom_site_label
_atom_site_type_symbol
_atom_type_description
_atom_site_fract_x
_atom_site_fract_y
_atom_site_fract_z
_atom_type_partial_charge
C1    C     C_R   0.260543 0.501307 0.497783 0.944020
C2    C     C_R   0.276689 0.434949 0.970225 0.357324
C3    C     C_R   0.276902 0.433790 0.029951 0.350694
C4    C     C_R   0.385780 0.451095 0.061043 -0.168304
C5    C     C_R   0.493604 0.467438 0.031011 -0.058876
C6    C     C_R   0.602063 0.488716 0.060887 -0.071298
C7    C     C_R   0.709158 0.501696 0.031381 -0.144855
C8    C     C_R   0.711310 0.490972 0.972673 0.409631
C9    C     C_R   0.392415 0.450599 0.121205 0.628712
C10   C     C_R   0.601428 0.498114 0.119991 0.597662
C11   C     C_R   0.574621 0.389359 0.242940 0.483202
C12   C     C_R   0.500981 0.500456 0.391732 0.760205
C13   C     C_R   0.582626 0.405140 0.301766 0.355757
C14   C     C_R   0.504826 0.499456 0.329256 -0.312637
C15   C     C_R   0.427217 0.585953 0.295947 0.390136
C16   C     C_R   0.431047 0.579747 0.237081 -0.095142
C17   C     C_R   0.501193 0.480687 0.210065 0.023719
C18   C     C_R   0.422750 0.379848 0.757920 0.492146
C19   C     C_R   0.414264 0.402183 0.699168 0.340941
C20   C     C_R   0.492924 0.494313 0.671752 -0.318325
C21   C     C_R   0.569664 0.573133 0.705888 0.380066
C22   C     C_R   0.564864 0.564447 0.764688 -0.165254
C23   C     C_R   0.739803 0.499409 0.501242 0.934541
C24   C     C_R   0.494464 0.466666 0.791573 0.037033
C25   C     C_3   0.073282 0.626417 0.534940 0.518076
C26   C     C_3   0.076476 0.365831 0.526512 0.567263
C27   C     C_3   0.931004 0.631011 0.532307 0.650709
C28   C     C_3   0.935968 0.370640 0.533818 0.607145
C29   C     C_3   0.063333 0.518991 0.435428 0.541950
C30   C     C_3   0.121869 0.503655 0.497713 -0.233162
C31   C     C_3   0.879354 0.500039 0.501462 -0.248938
C32   C     C_3   0.924195 0.502596 0.438615 -0.710415
C33   C     C_3   0.624203 0.080568 0.512118 0.496151
C34   C     C_3   0.624767 0.913655 0.507107 0.570671
C35   C     C_3   0.411481 0.080399 0.543516 0.517173
C36   C     C_3   0.429496 0.915143 0.550598 0.591357
C37   C     C_3   0.462359 0.087084 0.443194 0.590223
C38   C     C_3   0.447370 0.921242 0.446220 0.529211
C39   C     C_R   0.499520 0.499073 0.608691 0.862428
C40   C     C_R   0.600639 0.454058 0.882362 0.607128
C41   C     C_R   0.387335 0.469232 0.880790 0.629076
C42   C     C_R   0.384401 0.455113 0.940443 -0.171406
C43   C     C_R   0.493706 0.463719 0.971049 -0.101587
C44   C     C_R   0.603507 0.469564 0.941692 -0.095746
Cu1   Cu    Cu3+1 0.499860 0.642410 0.500030 1.178928
Cu2   Cu    Cu3+1 0.499860 0.357590 0.500030 1.152629
H1    H     H_    0.620343 0.631379 0.789912 0.225896
H2    H     H_    0.876183 0.585885 0.414485 0.259069
H3    H     H_    0.896074 0.411289 0.414791 0.228488
H4    H     H_    0.792659 0.519887 0.053966 0.240971
H5    H     H_    0.374441 0.649193 0.211877 0.216298
N1    N     N_R   0.493893 0.460491 0.852920 -0.470278
N2    N     N_R   0.498461 0.475760 0.148988 -0.468475
N3    N     N_3   0.500250 0.143650 0.501250 -0.285263
N4    N     N_3   0.500250 0.856350 0.501250 -0.284820
O1    O     O_R   0.317570 0.620260 0.500030 -0.476103
O2    O     O_R   0.317570 0.379740 0.500030 -0.471559
O3    O     O_R   0.499840 0.620290 0.417900 -0.519089
O4    O     O_R   0.499840 0.379710 0.417900 -0.504501
O5    O     O_R   0.682190 0.620260 0.500010 -0.468230
O6    O     O_R   0.682190 0.379740 0.500010 -0.497487
O7    O     O_R   0.499920 0.620230 0.582140 -0.469430
O8    O     O_R   0.499920 0.379770 0.582140 -0.549033
O9    O     O_2   0.702941 0.431225 0.854037 -0.416621
O10   O     O_2   0.285589 0.495459 0.850697 -0.399088
O11   O     O_2   0.295026 0.423636 0.152201 -0.415432
O12   O     O_2   0.703236 0.528826 0.148492 -0.456178
Cl1   Cl    Cl    0.141259 0.395330 0.934080 -0.316911
O13   O     O_3   0.326575 0.332676 0.670283 -0.582147
H6    H     H_    0.309049 0.382678 0.634436 0.377296
Cl2   Cl    Cl    0.682047 0.675343 0.678361 -0.400030
O14   O     O_3   0.117344 0.751625 0.514266 -0.608037
H7    H     H_    0.085061 0.827382 0.537698 0.353125
O15   O     O_3   0.113411 0.250845 0.494883 -0.620632
H8    H     H_    0.065633 0.240948 0.459904 0.374470
O16   O     O_3   0.116181 0.606242 0.591345 -0.652385
H9    H     H_    0.114196 0.694673 0.611690 0.336329
O17   O     O_3   0.131415 0.350293 0.580354 -0.632588
H10   H     H_    0.117319 0.255523 0.594272 0.368456
O18   O     O_3   0.886871 0.634769 0.587875 -0.556421
H11   H     H_    0.911999 0.722393 0.605081 0.382389
O19   O     O_3   0.906865 0.379432 0.591783 -0.576086
H12   H     H_    0.916329 0.287023 0.609628 0.395278
O20   O     O_3   0.890101 0.751874 0.504271 -0.637663
H13   H     H_    0.924764 0.760565 0.466357 0.383650
O21   O     O_3   0.889232 0.248072 0.514266 -0.668922
H14   H     H_    0.883938 0.252948 0.472638 0.327654
Cl3   Cl    Cl    0.091922 0.678128 0.400360 -0.408863
Cl4   Cl    Cl    0.124955 0.403967 0.384408 -0.451862
Cl5   Cl    Cl    0.687630 0.142772 0.578094 -0.501950
Cl6   Cl    Cl    0.703918 0.844835 0.567594 -0.376947
Cl7   Cl    Cl    0.136813 0.414089 0.063539 -0.362527
O22   O     O_3   0.703431 0.131684 0.472072 -0.613564
H15   H     H_    0.778736 0.076557 0.475829 0.380500
O23   O     O_3   0.694853 0.864684 0.461746 -0.618753
H16   H     H_    0.688943 0.924423 0.427729 0.377738
O24   O     O_3   0.410208 0.146804 0.596374 -0.663812
H17   H     H_    0.488195 0.149262 0.615531 0.365806
O25   O     O_3   0.481333 0.875386 0.603659 -0.645087
H18   H     H_    0.529488 0.947632 0.620870 0.354921
Cl8   Cl    Cl    0.327718 0.172079 0.414337 -0.368079
Cl9   Cl    Cl    0.292801 0.876257 0.436564 -0.334784
O26   O     O_3   0.549264 0.119115 0.402251 -0.647867
H19   H     H_    0.515619 0.107182 0.363446 0.368626
O27   O     O_3   0.503995 0.864393 0.398851 -0.679910
H20   H     H_    0.457682 0.890942 0.364007 0.370029
O28   O     O_3   0.294401 0.102196 0.522447 -0.557388
H21   H     H_    0.236508 0.084891 0.553185 0.379850
O29   O     O_3   0.316990 0.853798 0.551225 -0.589929
H22   H     H_    0.279019 0.873303 0.588210 0.338637
Cl10  Cl    Cl    0.851056 0.518671 0.940985 -0.360224
O30   O     O_3   0.641568 0.284869 0.219203 -0.603798
H23   H     H_    0.610410 0.266928 0.180523 0.335662
O31   O     O_3   0.667464 0.325414 0.330801 -0.596818
H24   H     H_    0.690545 0.371926 0.366318 0.330920
O32   O     O_3   0.343885 0.674981 0.318577 -0.616006
H25   H     H_    0.324229 0.643072 0.357132 0.390220
O33   O     O_3   0.357846 0.273850 0.780775 -0.595887
H26   H     H_    0.392842 0.248186 0.818341 0.335229

loop_
_geom_bond_atom_site_label_1
_geom_bond_atom_site_label_2
_ccdc_geom_bond_type
C24   N1    S    
Cu1   O5    S    
O22   H15   S    
Cu2   O4    S    
C41   C42   A    
O23   H16   S    
C16   H5    S    
C29   Cl4   S    
O31   H24   S    
C7    C8    A    
C10   O12   S    
C37   C38   S    
C21   Cl2   S    
C18   C24   A    
C27   O20   S    
C1    O1    A    
C2    C42   A    
C29   C32   S    
C2    Cl1   S    
C5    C6    A    
O18   H11   S    
C15   C16   A    
Cu1   O7    S    
C33   N3    S    
O32   H25   S    
C18   C19   A    
C10   N2    A    
C34   Cl6   S    
C29   Cl3   S    
C9    O11   S    
C12   O4    A    
O20   H13   S    
C38   N4    S    
C31   C32   S    
Cu1   O1    S    
C16   C17   A    
O28   H21   S    
C18   O33   S    
C41   N1    A    
C13   O31   S    
C12   O3    A    
C22   H1    S    
C5    C43   A    
C34   N4    S    
C13   C14   A    
O33   H26   S    
C35   N3    S    
C32   H2    S    
C35   O24   S    
O30   H23   S    
O24   H17   S    
C23   O5    A    
Cu1   O3    S    
O15   H8    S    
Cu2   O6    S    
C27   C31   S    
C34   O23   S    
C27   O18   S    
C8    Cl10  S    
C37   O26   S    
C20   C39   S    
O17   H10   S    
O14   H7    S    
C41   O10   S    
Cu1   Cu2   S    
C28   O19   S    
C3    Cl7   S    
C35   C36   S    
C23   C31   S    
C43   C44   A    
C29   C30   S    
C1    O2    A    
O25   H18   S    
C14   C15   A    
C23   O6    A    
Cu2   N3    S    
C33   C34   S    
C25   O14   S    
C26   O17   S    
O16   H9    S    
C37   N3    S    
C12   C14   S    
C26   C30   S    
Cu2   O2    S    
C28   O21   S    
C22   C24   A    
C19   O13   S    
C9    N2    A    
C42   C43   A    
C3    C4    A    
C17   N2    S    
C36   O29   S    
C25   C30   S    
C39   O7    A    
C11   C17   A    
C11   O30   S    
O21   H14   S    
C28   C31   S    
C8    C44   A    
C7    H4    S    
C4    C5    A    
C33   O22   S    
C6    C10   A    
C6    C7    A    
C25   C27   S    
C39   O8    A    
O27   H20   S    
C26   C28   S    
C40   O9    S    
Cu2   O8    S    
C25   O16   S    
C19   C20   A    
C2    C3    A    
C38   Cl9   S    
C36   N4    S    
C40   N1    A    
C33   Cl5   S    
C37   Cl8   S    
C11   C13   A    
C38   O27   S    
C1    C30   S    
C26   O15   S    
C36   O25   S    
O13   H6    S    
C32   H3    S    
C35   O28   S    
C40   C44   A    
C20   C21   A    
Cu1   N4    S    
O19   H12   S    
O29   H22   S    
O26   H19   S    
C15   O32   S    
C4    C9    A    
C21   C22   A    
