data_mof_unit_15002.cif
_audit_creation_date              2012-12-11T15:00:36-0500
_audit_creation_method            fapswitch 2.2
_symmetry_space_group_name_H-M    P1
_symmetry_Int_Tables_number       1
_space_group_crystal_system       triclinic
_cell_length_a                    13.436667
_cell_length_b                    13.349042
_cell_length_c                    26.754443
_cell_angle_alpha                 97.438205
_cell_angle_beta                  97.774018
_cell_angle_gamma                 60.981839
_cell_volume                      4146.56445673

loop_
_atom_site_label
_atom_site_type_symbol
_atom_type_description
_atom_site_fract_x
_atom_site_fract_y
_atom_site_fract_z
_atom_type_partial_charge
C1    C     C_R   0.380985 0.718212 0.433838 0.539990
C2    C     C_1   0.293542 0.319022 0.273189 -0.005022
C3    C     C_1   0.317631 0.334531 0.325748 -0.057788
C4    C     C_1   0.348557 0.348672 0.369191 -0.020314
C5    C     C_3   0.783002 0.260777 0.256999 -0.065989
C6    C     C_3   0.974731 0.230960 0.300506 -0.186575
C7    C     C_3   0.020442 0.201547 0.247089 0.011085
C8    C     C_1   0.982706 0.261114 0.114795 -0.020389
C9    C     C_3   0.845769 0.312177 0.297669 -0.004780
C10   C     C_3   0.819802 0.260630 0.203374 0.028404
C11   C     C_3   0.925125 0.283645 0.208533 0.104268
C12   C     C_R   0.392809 0.371943 0.418455 0.536077
C13   C     C_3   0.887318 0.409273 0.232186 0.018334
C14   C     C_3   0.825422 0.428611 0.280345 -0.235825
C15   C     C_1   0.962837 0.269638 0.157934 -0.019674
C16   C     C_1   0.805770 0.336953 0.348387 -0.084503
C17   C     C_1   0.772494 0.362702 0.389906 -0.037704
C18   C     C_3   0.465477 0.657811 0.256804 -0.072518
C19   C     C_3   0.401282 0.863699 0.279371 -0.258017
C20   C     C_3   0.375494 0.894091 0.223540 -0.249397
C21   C     C_1   0.315627 0.873045 0.096452 -0.023391
C22   C     C_3   0.372272 0.767060 0.285600 0.062349
C23   C     C_R   0.722298 0.399705 0.436858 0.530134
C24   C     C_3   0.460687 0.684096 0.200538 -0.206216
C25   C     C_3   0.355050 0.801803 0.188692 0.047236
C26   C     C_3   0.240298 0.810090 0.201981 -0.072099
C27   C     C_3   0.247702 0.802407 0.260886 -0.070265
C28   C     C_1   0.341607 0.832370 0.136624 -0.079166
C29   C     C_1   0.375626 0.758897 0.340197 -0.071899
C30   C     C_1   0.373751 0.748765 0.383970 -0.020989
C31   C     C_3   0.439971 0.354573 0.734002 -0.208098
C32   C     C_3   0.352726 0.227446 0.705019 0.031261
C33   C     C_3   0.341796 0.218045 0.761995 0.051540
C34   C     C_R   0.381818 0.724853 0.575307 0.540920
C35   C     C_1   0.296461 0.308810 0.888586 -0.039177
C36   C     C_3   0.339630 0.347591 0.698895 0.049104
C37   C     C_3   0.422459 0.358336 0.790707 -0.094219
C38   C     C_3   0.319014 0.336601 0.794614 0.049130
C39   C     C_3   0.199777 0.443551 0.772407 0.143338
C40   C     C_3   0.218510 0.452909 0.713865 0.149585
C41   C     C_1   0.308588 0.324575 0.847248 -0.060356
C42   C     C_1   0.354615 0.352278 0.646181 -0.023738
C43   C     C_1   0.369264 0.360517 0.604201 -0.005006
C44   C     C_1   0.882973 0.295090 0.865414 -0.009227
C45   C     C_R   0.397095 0.376146 0.557779 0.541369
C46   C     C_1   0.850800 0.306918 0.821334 -0.044996
C47   C     C_1   0.824233 0.321110 0.769136 -0.023310
C48   C     C_1   0.806945 0.335613 0.724673 -0.023041
C49   C     C_1   0.787178 0.356123 0.673027 -0.049562
C50   C     C_1   0.764057 0.376723 0.629219 -0.012848
C51   C     C_1   0.290295 0.896981 0.862231 -0.021694
C52   C     C_1   0.309922 0.872388 0.818456 -0.060566
C53   C     C_1   0.328552 0.852212 0.766675 -0.027172
C54   C     C_1   0.341576 0.834989 0.722140 -0.031166
C55   C     C_1   0.354819 0.808723 0.669923 -0.066800
C56   C     C_R   0.722060 0.404974 0.578164 0.532292
C57   C     C_1   0.366276 0.777104 0.625854 -0.021549
C58   C     C_R   0.001413 0.254889 0.063181 0.544119
C59   C     C_R   0.266237 0.240112 0.075926 0.539281
C60   C     C_R   0.271821 0.935924 0.052469 0.529534
C61   C     C_R   0.935933 0.279220 0.915922 0.551449
C62   C     C_R   0.281312 0.274167 0.933593 0.549472
C63   C     C_R   0.261595 0.941883 0.912836 0.541069
C64   C     C_1   0.273862 0.263458 0.129645 -0.032660
C65   C     C_1   0.276564 0.282853 0.174858 -0.075790
C66   C     C_1   0.282026 0.303714 0.227880 -0.014040
Cr1   Cr    Cr6+3 0.585490 0.589720 0.509170 1.009362
Cr2   Cr    Cr6+3 0.329280 0.580760 0.494920 1.019680
Cr3   Cr    Cr6+3 0.585250 0.329540 0.495950 1.015959
Cr4   Cr    Cr6+3 0.077160 0.074530 0.981700 0.990763
Cr5   Cr    Cr6+3 0.079310 0.333830 0.996170 1.006286
Cr6   Cr    Cr6+3 0.334250 0.081620 0.994710 1.005020
H1    H     H_    0.692885 0.327089 0.256436 0.126737
H2    H     H_    0.746715 0.337624 0.186889 0.109551
H3    H     H_    0.966460 0.416732 0.243978 0.178653
H4    H     H_    0.538628 0.690802 0.196400 0.101975
H5    H     H_    0.549731 0.647899 0.274108 0.088955
H6    H     H_    0.356077 0.938754 0.305439 0.108171
H7    H     H_    0.493136 0.836127 0.290997 0.113009
H8    H     H_    0.448101 0.901311 0.211825 0.119015
H9    H     H_    0.298758 0.979026 0.219652 0.123878
H10   H     H_    0.198535 0.894596 0.274747 0.082244
H11   H     H_    0.469286 0.614495 0.171993 0.091018
H12   H     H_    0.174770 0.900249 0.194909 0.082817
H13   H     H_    0.523074 0.282677 0.723727 0.125312
H14   H     H_    0.284083 0.218689 0.681810 0.122642
H15   H     H_    0.014553 0.275744 0.326678 0.141112
H16   H     H_    0.265643 0.205766 0.761456 0.110723
H17   H     H_    0.449834 0.428792 0.727090 0.120080
H18   H     H_    0.396303 0.447190 0.805397 0.090519
H19   H     H_    0.999284 0.149897 0.317429 0.085152
H20   H     H_    0.042160 0.111387 0.235719 0.124336
H21   H     H_    0.732174 0.485744 0.273226 0.120205
H22   H     H_    0.857130 0.474073 0.310776 0.110068
O1    O     O_R   0.700490 0.499650 0.456540 -0.514853
O2    O     O_R   0.339040 0.474950 0.540330 -0.501812
O3    O     O_R   0.494500 0.302900 0.543920 -0.504725
O4    O     O_R   0.682200 0.343540 0.552130 -0.492555
O5    O     O_3   0.500010 0.500010 0.500010 -0.250939
O6    O     O_R   0.170650 0.959160 0.034150 -0.515178
O7    O     O_R   0.983870 0.178140 0.033160 -0.496415
O8    O     O_R   0.966160 0.354510 0.046020 -0.504423
O9    O     O_R   0.187830 0.326650 0.051390 -0.516512
O10   O     O_R   0.362200 0.173970 0.055450 -0.500545
O11   O     O_R   0.326660 0.983110 0.039170 -0.511423
O12   O     O_R   0.479270 0.682700 0.457880 -0.501082
O13   O     O_R   0.165170 0.960730 0.925500 -0.521209
O14   O     O_R   0.978790 0.179600 0.932440 -0.498189
O15   O     O_R   0.960680 0.356080 0.937360 -0.501533
O16   O     O_R   0.182750 0.328100 0.950670 -0.488851
O17   O     O_R   0.356720 0.175530 0.946790 -0.513502
O18   O     O_R   0.321590 0.984560 0.938450 -0.493627
O19   O     O_3   0.163570 0.163330 0.990860 -0.288936
O20   O     O_R   0.304400 0.696100 0.445190 -0.502604
O21   O     O_R   0.337880 0.472540 0.439600 -0.487988
O22   O     O_R   0.493250 0.300300 0.435260 -0.519419
O23   O     O_R   0.681040 0.341130 0.451400 -0.504811
O24   O     O_R   0.701750 0.502250 0.565200 -0.514504
O25   O     O_R   0.480430 0.685110 0.558610 -0.493557
O26   O     O_R   0.305650 0.698700 0.553850 -0.509430
N1    N     N_2   0.827494 0.166476 0.166297 -0.540235
H23   H     H_    0.799345 0.190518 0.129744 0.255075
C67   C     C_3   0.923413 0.052165 0.168315 -0.299117
H24   H     H_    0.900911 0.991762 0.143298 0.154170
H25   H     H_    0.943194 0.023546 0.207078 0.150004
H26   H     H_    0.999131 0.048613 0.154291 0.139666
C68   C     C_R   0.186129 0.747169 0.282208 0.024923
C69   C     C_R   0.192850 0.640820 0.263146 -0.057256
C70   C     C_R   0.127207 0.600666 0.281632 -0.110106
C71   C     C_R   0.064558 0.658231 0.323143 -0.103974
C72   C     C_R   0.063639 0.759009 0.345070 -0.085146
C73   C     C_R   0.120490 0.805235 0.323887 -0.089806
H27   H     H_    0.241528 0.592364 0.231677 0.141633
H28   H     H_    0.123438 0.525549 0.263404 0.119707
H29   H     H_    0.016486 0.624920 0.338167 0.098900
H30   H     H_    0.017421 0.802296 0.378105 0.098959
H31   H     H_    0.114984 0.885787 0.340859 0.088313
C74   C     C_R   0.780717 0.150544 0.267611 0.052402
C75   C     C_R   0.717902 0.108863 0.232570 -0.083165
C76   C     C_R   0.708144 0.013100 0.241145 -0.136525
C77   C     C_R   0.756238 0.959435 0.285997 -0.107677
C78   C     C_R   0.813390 0.002098 0.322331 -0.112419
C79   C     C_R   0.826710 0.095548 0.313295 -0.103993
H32   H     H_    0.673260 0.152200 0.198699 0.141748
H33   H     H_    0.660601 0.982400 0.213468 0.103219
H34   H     H_    0.746870 0.886564 0.293131 0.100801
H35   H     H_    0.845832 0.964008 0.358188 0.100792
H36   H     H_    0.869519 0.124861 0.343604 0.108678
C80   C     C_R   0.189594 0.741383 0.167179 0.025787
C81   C     C_R   0.076147 0.767146 0.172314 -0.113195
C82   C     C_R   0.025099 0.708066 0.142246 -0.119392
C83   C     C_R   0.085002 0.623841 0.105285 -0.090207
C84   C     C_R   0.195223 0.600133 0.097853 -0.110482
C85   C     C_R   0.246603 0.659175 0.127874 -0.095931
H37   H     H_    0.028364 0.829858 0.201430 0.107972
H38   H     H_    0.939143 0.727322 0.147885 0.107311
H39   H     H_    0.045605 0.577824 0.082049 0.134593
H40   H     H_    0.240820 0.536405 0.068382 0.123857
H41   H     H_    0.329580 0.640201 0.118785 0.104089
C86   C     C_R   0.473621 0.542886 0.264900 0.023934
C87   C     C_R   0.515273 0.499742 0.313082 -0.098908
C88   C     C_R   0.534107 0.391185 0.321860 -0.108350
C89   C     C_R   0.518621 0.320743 0.282189 -0.106481
C90   C     C_R   0.481388 0.359753 0.233839 -0.130669
C91   C     C_R   0.456292 0.470512 0.225338 -0.118075
H42   H     H_    0.538604 0.547556 0.343695 0.117602
H43   H     H_    0.565322 0.359516 0.358950 0.148495
H44   H     H_    0.536354 0.235254 0.288954 0.136937
H45   H     H_    0.472313 0.303790 0.202690 0.120889
H46   H     H_    0.422411 0.496899 0.187772 0.106337
C92   C     C_R   0.531367 0.289668 0.825029 0.056496
C93   C     C_R   0.620517 0.181083 0.810024 -0.052278
C94   C     C_R   0.715918 0.121620 0.843340 -0.115580
C95   C     C_R   0.724919 0.169433 0.892112 -0.099368
C96   C     C_R   0.639212 0.277612 0.907478 -0.107580
C97   C     C_R   0.543696 0.337376 0.874310 -0.101195
H47   H     H_    0.617934 0.140181 0.773084 0.108022
H48   H     H_    0.782998 0.038016 0.831281 0.097930
H49   H     H_    0.798670 0.122971 0.917867 0.126060
H50   H     H_    0.646663 0.315320 0.945192 0.116449
H51   H     H_    0.478880 0.421096 0.887489 0.087442
N2    N     N_2   0.456781 0.135768 0.683488 -0.527170
H52   H     H_    0.534905 0.112948 0.703028 0.255403
C98   C     C_3   0.448013 0.044133 0.651002 -0.322102
H53   H     H_    0.420712 0.996783 0.672249 0.143935
H54   H     H_    0.532204 0.983292 0.636610 0.147691
H55   H     H_    0.385347 0.080061 0.618031 0.157761
N3    N     N_2   0.439153 0.114075 0.782294 -0.521232
H56   H     H_    0.469509 0.044766 0.756107 0.266056
C99   C     C_3   0.429600 0.073503 0.828253 -0.281289
H57   H     H_    0.479385 0.978166 0.827229 0.129782
H58   H     H_    0.339516 0.098178 0.833068 0.149756
H59   H     H_    0.468252 0.106025 0.861096 0.195216
N4    N     N_2   0.222321 0.559799 0.705433 -0.545960
H60   H     H_    0.229053 0.565669 0.668085 0.251538
C100  C     C_3   0.274175 0.624022 0.735614 -0.305045
H61   H     H_    0.210892 0.716630 0.736222 0.169147
H62   H     H_    0.348700 0.613696 0.717601 0.134706
H63   H     H_    0.301247 0.602812 0.774776 0.152254
C101  C     C_R   0.117861 0.452635 0.674727 0.060007
C102  C     C_R   0.051380 0.544219 0.642479 -0.111697
C103  C     C_R   0.980943 0.534051 0.600950 -0.112991
C104  C     C_R   0.969737 0.435178 0.591325 -0.090745
C105  C     C_R   0.020403 0.351158 0.625775 -0.124548
C106  C     C_R   0.088873 0.362154 0.667930 -0.101649
H64   H     H_    0.052457 0.625232 0.648059 0.117159
H65   H     H_    0.935783 0.602915 0.575865 0.110297
H66   H     H_    0.918700 0.425500 0.558101 0.135074
H67   H     H_    0.006122 0.277214 0.620089 0.107536
H68   H     H_    0.116704 0.298685 0.694940 0.119181
C107  C     C_R   0.159023 0.563328 0.804116 0.088485
C108  C     C_R   0.065707 0.663018 0.783688 -0.072623
C109  C     C_R   0.022090 0.770475 0.810502 -0.138293
C110  C     C_R   0.070413 0.783207 0.858544 -0.096260
C111  C     C_R   0.163854 0.688837 0.879423 -0.113774
C112  C     C_R   0.207969 0.580802 0.852812 -0.124879
H69   H     H_    0.027182 0.659250 0.745913 0.129654
H70   H     H_    0.950875 0.844241 0.793694 0.100268
H71   H     H_    0.036135 0.866526 0.879319 0.139028
H72   H     H_    0.202986 0.699397 0.916448 0.121644
H73   H     H_    0.282042 0.514702 0.871277 0.096884
N5    N     N_2   0.109531 0.410113 0.774214 -0.554958
H74   H     H_    0.125952 0.352402 0.800266 0.248057
C113  C     C_3   0.987621 0.489882 0.771047 -0.303944
H75   H     H_    0.963799 0.547527 0.806168 0.157451
H76   H     H_    0.940237 0.440574 0.767547 0.153555
H77   H     H_    0.958872 0.539420 0.737215 0.158836
N6    N     N_2   0.126006 0.207847 0.249041 -0.537979
H78   H     H_    0.161449 0.182516 0.214796 0.251893
C114  C     C_3   0.209202 0.155106 0.291045 -0.326805
H79   H     H_    0.297409 0.119414 0.279987 0.142410
H80   H     H_    0.197490 0.086840 0.304547 0.124510
H81   H     H_    0.197646 0.220081 0.323132 0.159699
N7    N     N_2   0.816323 0.496363 0.196562 -0.523167
H82   H     H_    0.736738 0.503856 0.185332 0.244042
C115  C     C_3   0.813165 0.606796 0.208347 -0.326373
H83   H     H_    0.763021 0.663528 0.177320 0.144414
H84   H     H_    0.900917 0.596586 0.211987 0.154624
H85   H     H_    0.772049 0.648233 0.244081 0.125027

loop_
_geom_bond_atom_site_label_1
_geom_bond_atom_site_label_2
_ccdc_geom_bond_type
C93   H47   S    
C83   H39   S    
N4    C100  S    
C104  C105  A    
Cr6   O18   S    
Cr3   O22   S    
C99   H57   S    
C31   H13   S    
C22   C29   S    
C107  C112  A    
C11   C13   S    
C102  C103  A    
C36   C42   S    
C19   C20   S    
C56   O4    A    
C7    N6    S    
C92   C93   A    
C10   N1    S    
C61   O15   A    
C113  H75   S    
C95   H49   S    
C6    C9    S    
N6    C114  S    
C87   C88   A    
Cr4   O7    S    
C80   C81   A    
C67   H24   S    
C40   N4    S    
C109  C110  A    
C98   H53   S    
C25   C28   S    
C7    C11   S    
C59   C64   S    
Cr2   O2    S    
N7    C115  S    
C37   H18   S    
C18   C24   S    
C59   O10   A    
C32   C36   S    
C32   N2    S    
C90   C91   A    
C24   H11   S    
C88   C89   A    
C74   C79   A    
C31   C36   S    
C38   C39   S    
C67   H25   S    
C108  H69   S    
C6    H19   S    
Cr5   O16   S    
C84   H40   S    
C101  C106  A    
C115  H83   S    
Cr5   O19   S    
C114  H81   S    
N3    C99   S    
C63   O18   A    
C61   O14   A    
C95   C96   A    
C34   O25   A    
C99   H59   S    
C8    C58   S    
C54   C55   S    
C94   H48   S    
C11   C15   S    
C62   O17   A    
C13   H3    S    
C115  H84   S    
C16   C17   T    
C31   H17   S    
C105  H67   S    
C101  C102  A    
C34   C57   S    
C26   H12   S    
C102  H64   S    
C39   N5    S    
C58   O8    A    
C13   C14   S    
C112  H73   S    
C4    C12   S    
C29   C30   T    
C42   C43   T    
C14   H21   S    
C87   H42   S    
Cr1   O5    S    
C1    O12   A    
C12   O21   A    
Cr3   O4    S    
N4    H60   S    
Cr6   O17   S    
C18   C22   S    
C20   H9    S    
C69   C70   A    
Cr1   O1    S    
C90   H45   S    
C97   H51   S    
C27   C68   S    
C100  H63   S    
N6    H78   S    
C44   C46   T    
C27   H10   S    
Cr4   O19   S    
C34   O26   A    
C79   H36   S    
C9    C16   S    
C103  C104  A    
C20   H8    S    
C51   C52   T    
C47   C48   T    
C103  H65   S    
C5    C74   S    
C19   C22   S    
C51   C63   S    
C24   C25   S    
C38   C41   S    
C100  H62   S    
C72   H30   S    
C10   C11   S    
C39   C40   S    
C9    C14   S    
C110  C111  A    
C24   H4    S    
C67   H26   S    
Cr6   O10   S    
C60   O6    A    
C73   H31   S    
C94   C95   A    
Cr6   O19   S    
C50   C56   S    
C6    H15   S    
C31   C37   S    
N3    H56   S    
C3    C4    T    
C23   O23   A    
C19   H6    S    
C114  H80   S    
C80   C85   A    
C69   H27   S    
C37   C38   S    
C33   H16   S    
N7    H82   S    
C43   C45   S    
C75   H32   S    
C107  C108  A    
C62   O16   A    
C36   C40   S    
C82   C83   A    
C32   H14   S    
C33   N3    S    
C26   C27   S    
C39   C107  S    
C58   O7    A    
C17   C23   S    
C86   C91   A    
C76   C77   A    
N5    C113  S    
N2    H52   S    
C68   C73   A    
N1    H23   S    
C96   H50   S    
C77   H34   S    
C21   C60   S    
Cr3   O5    S    
C48   C49   S    
C71   H29   S    
C65   C66   S    
C8    C15   T    
C81   H37   S    
C55   C57   T    
C22   C27   S    
C1    O20   A    
C63   O13   A    
C68   C69   A    
C113  H77   S    
C93   C94   A    
C70   C71   A    
C104  H66   S    
C91   H46   S    
C88   H43   S    
Cr5   O9    S    
C46   C47   S    
C99   H58   S    
C81   C82   A    
C56   O24   A    
C78   H35   S    
Cr5   O8    S    
C26   C80   S    
C5    C9    S    
C100  H61   S    
C2    C66   T    
C72   C73   A    
C113  H76   S    
C76   H33   S    
C37   C92   S    
C75   C76   A    
C115  H85   S    
Cr1   O12   S    
C53   C54   T    
C6    C7    S    
C44   C61   S    
C40   C101  S    
C92   C97   A    
C33   C38   S    
C98   H54   S    
C98   H55   S    
Cr4   O13   S    
C109  H70   S    
C59   O9    A    
C86   C87   A    
Cr4   O6    S    
C2    C3    S    
C25   C26   S    
Cr2   O5    S    
C89   H44   S    
C5    C10   S    
C96   C97   A    
Cr4   O14   S    
C77   C78   A    
C32   C33   S    
C10   H2    S    
C108  C109  A    
C106  H68   S    
C18   H5    S    
C7    H20   S    
Cr5   O15   S    
C64   C65   T    
Cr3   O23   S    
C1    C30   S    
C23   O1    A    
C71   C72   A    
C35   C62   S    
C111  C112  A    
C5    H1    S    
C114  H79   S    
C35   C41   T    
Cr1   O24   S    
N2    C98   S    
N1    C67   S    
C89   C90   A    
C18   C86   S    
C74   C75   A    
Cr2   O21   S    
C21   C28   T    
C70   H28   S    
C110  H71   S    
C82   H38   S    
Cr6   O11   S    
C85   H41   S    
C105  C106  A    
C49   C50   T    
C20   C25   S    
Cr2   O20   S    
C78   C79   A    
C45   O3    A    
C83   C84   A    
C84   C85   A    
C111  H72   S    
C45   O2    A    
Cr1   O25   S    
N5    H74   S    
C14   H22   S    
Cr2   O26   S    
C60   O11   A    
C19   H7    S    
C52   C53   S    
C13   N7    S    
C12   O22   A    
Cr3   O3    S    
