data_mof_unit_45611.cif
_audit_creation_date              2013-03-05T16:04:34-0500
_audit_creation_method            fapswitch 2.2
_symmetry_space_group_name_H-M    P1
_symmetry_Int_Tables_number       1
_space_group_crystal_system       triclinic
_cell_length_a                    8.419679
_cell_length_b                    14.897511
_cell_length_c                    18.926325
_cell_angle_alpha                 99.335983
_cell_angle_beta                  91.646044
_cell_angle_gamma                 92.496431
_cell_volume                      2338.76006523

loop_
_atom_site_label
_atom_site_type_symbol
_atom_site_description
_atom_site_fract_x
_atom_site_fract_y
_atom_site_fract_z
_atom_type_partial_charge
P1    P     P_3+3 0.061800 0.409390 0.339760 0.616579
O1    O     O_2   0.887710 0.436190 0.327560 -0.311114
O2    O     O_3   0.135370 0.443490 0.416520 -0.264577
O3    O     O_3   0.634420 0.609440 0.364670 -0.234919
O4    O     O_2   0.773475 0.531886 0.249233 -0.304903
O5    O     O_3   0.080385 0.290759 0.321815 -0.602651
O6    O     O_3   0.657749 0.685764 0.236550 -0.574623
C1    C     C_3   0.530203 0.825323 0.222065 0.902367
P2    P     P_3+3 0.622760 0.718740 0.547830 0.645791
P3    P     P_3+3 0.067599 0.777660 0.398307 0.653757
O7    O     O_2   0.795290 0.730930 0.525800 -0.219437
O8    O     O_3   0.044470 0.660110 0.398750 -0.288987
O9    O     O_2   0.926232 0.822336 0.438107 -0.258744
O10   O     O_3   0.688975 0.753866 0.637543 -0.601193
O11   O     O_3   0.037192 0.799105 0.310560 -0.541693
C2    C     C_3   0.059834 0.719202 0.261903 0.294688
H1    H     H_    0.973377 0.664139 0.270358 0.166540
H2    H     H_    0.182105 0.696302 0.267886 0.072738
C3    C     C_3   0.033779 0.737546 0.185628 0.114888
H3    H     H_    0.907913 0.752998 0.176811 0.153124
C4    C     C_3   0.154639 0.780879 0.693809 1.148875
C5    C     C_3   0.048299 0.858433 0.722804 -0.712409
H4    H     H_    0.031782 0.861673 0.781213 0.211916
H5    H     H_    0.099600 0.924932 0.713098 0.303591
H6    H     H_    0.930791 0.843657 0.696552 0.281615
Ba1   Ba    Ba6+2 0.843240 0.541620 0.463500 1.095182
C6    C     C_3   0.949149 0.236434 0.334741 0.687374
H7    H     H_    0.837157 0.270892 0.328884 -0.045599
C7    C     C_3   0.951056 0.149237 0.277072 0.403653
H8    H     H_    0.965586 0.171824 0.224261 0.055254
C8    C     C_3   0.600827 0.721502 0.689846 0.517017
H9    H     H_    0.475491 0.710183 0.671512 0.080897
C9    C     C_3   0.627784 0.793897 0.759548 0.729409
H10   H     H_    0.757113 0.799593 0.773476 0.074813
P4    P     P_3+3 0.127890 0.590690 0.660240 0.686527
O12   O     O_2   0.301980 0.563840 0.672490 -0.303743
O13   O     O_3   0.054330 0.556590 0.583490 -0.279990
O14   O     O_3   0.555270 0.390630 0.635330 -0.290709
O15   O     O_3   0.065219 0.700023 0.697406 -0.580237
P5    P     P_3+3 0.115017 0.224789 0.607416 0.631534
O16   O     O_3   0.637720 0.384870 0.467990 -0.337201
O17   O     O_3   0.145220 0.339960 0.601250 -0.346527
O18   O     O_2   0.237712 0.175238 0.557922 -0.241497
O19   O     O_3   0.178252 0.206332 0.693182 -0.425008
Ba2   Ba    Ba6+2 0.346570 0.458460 0.536510 1.128330
P6    P     P_3+3 0.624101 0.584397 0.270855 0.650864
C10   C     C_3   0.561903 0.753134 0.271304 0.580735
H11   H     H_    0.444171 0.723339 0.282316 -0.020473
O20   O     O_3   0.551980 0.615210 0.532020 -0.267868
C11   C     C_3   0.496382 0.277573 0.319829 0.226901
H12   H     H_    0.372475 0.284707 0.337019 0.133018
H13   H     H_    0.565370 0.343625 0.324787 0.069983
C12   C     C_3   0.490749 0.234522 0.240687 0.703197
H14   H     H_    0.614666 0.226139 0.223524 0.077259
P7    P     P_3+3 0.573422 0.267374 0.452253 0.542327
O21   O     O_2   0.394410 0.269100 0.474240 -0.259335
O22   O     O_3   0.574135 0.221591 0.360634 -0.550711
H15   H     H_    0.111248 0.796909 0.177105 0.192550
C13   C     C_3   0.099057 0.263443 0.746521 0.616272
H16   H     H_    0.978231 0.278870 0.727835 -1.185559
C14   C     C_3   0.077689 0.218270 0.813995 0.730067
H17   H     H_    0.988404 0.256821 0.847401 -0.149737
P8    P     P_3+3 0.585077 0.399893 0.727172 0.586378
C15   C     C_3   0.591473 0.223814 0.716226 1.080971
H18   H     H_    0.704340 0.244508 0.692647 -0.329201
O23   O     O_2   0.472300 0.473183 0.760634 -0.283603
O24   O     O_3   0.511851 0.298132 0.752440 -0.507970
H19   H     H_    0.702064 0.103302 0.741214 0.177111
C16   C     C_3   0.637620 0.160844 0.769509 -0.185829
H20   H     H_    0.719143 0.199673 0.811878 0.078287
C17   C     C_R   0.029212 0.426576 0.041301 0.052504
C18   C     C_R   0.958133 0.371385 0.086281 -0.222371
C19   C     C_R   0.815961 0.393986 0.945958 -0.094173
C20   C     C_R   0.968407 0.430504 0.970178 0.120143
C21   C     C_R   0.757351 0.398525 0.877289 -0.177143
C22   C     C_R   0.849082 0.437325 0.827993 0.041602
C23   C     C_R   0.998369 0.480309 0.851338 0.015930
C24   C     C_R   0.056982 0.478054 0.923483 0.021888
C25   C     C_R   0.794760 0.434496 0.756282 0.207703
C26   C     C_R   0.895264 0.466892 0.706473 -0.359242
C27   C     C_R   0.033216 0.521646 0.728523 0.341804
C28   C     C_R   0.084771 0.528937 0.803960 -0.123143
C29   C     C_R   0.171206 0.474724 0.067269 0.083714
C30   C     C_R   0.225902 0.477372 0.140579 0.046056
C31   C     C_R   0.130312 0.438898 0.190585 -0.178410
C32   C     C_R   0.998804 0.381017 0.160448 0.668151
H21   H     H_    0.856837 0.457639 0.650719 0.198940
H22   H     H_    0.638756 0.369820 0.863838 0.183382
C33   C     C_R   0.215182 0.585032 0.835565 0.490199
C34   C     C_R   0.277004 0.580636 0.905097 0.188828
C35   C     C_R   0.203270 0.523400 0.948850 -0.133052
C36   C     C_R   0.265068 0.515100 0.018854 0.074231
C37   C     C_R   0.425707 0.533802 0.038661 -0.156906
C38   C     C_R   0.381155 0.513103 0.161702 -0.218533
C39   C     C_R   0.484338 0.529704 0.107401 0.419448
C40   C     C_R   0.435684 0.519622 0.234094 0.201192
C41   C     C_R   0.340597 0.484526 0.283709 0.258679
C42   C     C_R   0.181771 0.451144 0.265907 0.105943
H23   H     H_    0.736214 0.363790 0.980111 0.166794
H24   H     H_    0.866084 0.320831 0.064832 0.153268
H25   H     H_    0.512265 0.537102 0.998190 0.186881
C43   C     C_R   0.693827 0.950110 0.542770 0.404841
C44   C     C_R   0.512794 0.805789 0.504104 0.126280
C45   C     C_R   0.371006 0.770391 0.465932 0.102376
C46   C     C_R   0.261748 0.826499 0.440519 0.165693
C47   C     C_R   0.302594 0.917503 0.443015 -0.188161
C48   C     C_R   0.451424 0.955929 0.471957 -0.103676
C49   C     C_R   0.554682 0.902950 0.507958 -0.128486
C50   C     C_R   0.631878 0.094063 0.500876 -0.175082
C51   C     C_R   0.733302 0.042809 0.538241 -0.092895
C52   C     C_R   0.671523 0.190491 0.505739 0.323348
C53   C     C_R   0.802452 0.230803 0.548819 -0.287337
C54   C     C_R   0.912476 0.177380 0.576357 0.215425
C55   C     C_R   0.876882 0.084999 0.571689 -0.076440
C56   C     C_R   0.495556 0.046659 0.463430 0.381480
H26   H     H_    0.216712 0.956892 0.419758 0.224867
H27   H     H_    0.966118 0.046786 0.593786 0.225876
H28   H     H_    0.829248 0.303319 0.553657 0.169356
O25   O     O_3   0.640555 0.793974 0.335654 -0.639888
H29   H     H_    0.566251 0.835852 0.361646 0.234066
N1    N     N_R   0.969874 0.217238 0.407610 0.223059
O26   O     O_R   0.031708 0.281602 0.456485 -0.342573
O27   O     O_R   0.961692 0.134449 0.421272 -0.343202
N2    N     N_R   0.803847 0.092646 0.273011 0.230298
O28   O     O_R   0.769892 0.047248 0.324202 -0.252677
O29   O     O_R   0.725806 0.071674 0.211820 -0.349989
O30   O     O_3   0.081714 0.097695 0.289445 -0.606395
H30   H     H_    0.088009 0.049876 0.246604 0.362541
N3    N     N_R   0.660746 0.634829 0.701706 0.237693
O31   O     O_R   0.723180 0.624515 0.763417 -0.385758
O32   O     O_R   0.652887 0.566898 0.649295 -0.330799
O33   O     O_3   0.652030 0.894180 0.231487 -0.600233
H31   H     H_    0.755069 0.864892 0.224721 0.327043
O34   O     O_3   0.550571 0.765599 0.817087 -0.654940
H32   H     H_    0.584273 0.810011 0.860463 0.380520
O35   O     O_3   0.580747 0.881587 0.752092 -0.663123
H33   H     H_    0.517589 0.878424 0.706716 0.368123
O36   O     O_3   0.385235 0.865904 0.238553 -0.727019
H34   H     H_    0.387949 0.889971 0.290487 0.325550
O37   O     O_3   0.408056 0.149267 0.230964 -0.614946
H35   H     H_    0.418033 0.122166 0.179900 0.368000
O38   O     O_3   0.418495 0.292066 0.198886 -0.801643
H36   H     H_    0.301984 0.284390 0.204081 0.324540
N4    N     N_R   0.517700 0.781423 0.146941 0.250599
O39   O     O_R   0.397725 0.725028 0.124981 -0.384917
O40   O     O_R   0.619804 0.801585 0.100883 -0.285979
O41   O     O_3   0.190477 0.344625 0.767695 -0.742692
H37   H     H_    0.210516 0.371916 0.724514 0.371286
N5    N     N_R   0.018113 0.123119 0.798018 0.245071
O42   O     O_R   0.992765 0.081295 0.732653 -0.414829
O43   O     O_R   0.987632 0.079417 0.850637 -0.295269
O44   O     O_3   0.222210 0.222851 0.853534 -0.612889
H38   H     H_    0.230006 0.282346 0.886208 0.328692
O45   O     O_3   0.490402 0.177262 0.660962 -0.640465
H39   H     H_    0.543096 0.121551 0.639884 0.288723
N6    N     N_R   0.499822 0.123991 0.802199 0.334280
O46   O     O_R   0.395388 0.069294 0.762922 -0.248274
O47   O     O_R   0.496871 0.131929 0.871619 -0.258586
O48   O     O_3   0.914502 0.329915 0.202257 -0.762743
H40   H     H_    0.829439 0.292058 0.172846 0.316408
O49   O     O_3   0.275475 0.651634 0.801405 -0.640579
H41   H     H_    0.279640 0.708345 0.837100 0.367152
N7    N     N_R   0.646532 0.510273 0.113856 0.239108
O50   O     O_R   0.675952 0.430543 0.128727 -0.419869
O51   O     O_R   0.756317 0.557890 0.087419 -0.357883
O52   O     O_3   0.411059 0.483698 0.350266 -0.645006
H42   H     H_    0.373669 0.429815 0.369346 0.326717
N8    N     N_R   0.406015 0.643647 0.932661 0.239975
O53   O     O_R   0.377775 0.717328 0.976557 -0.286353
O54   O     O_R   0.545037 0.635178 0.904700 -0.288073
N9    N     N_R   0.345216 0.675242 0.444101 0.264590
O55   O     O_R   0.338723 0.646727 0.375820 -0.445499
O56   O     O_R   0.271666 0.626988 0.485515 -0.248465
N10   N     N_R   0.782766 0.912698 0.594343 0.230077
O57   O     O_R   0.759432 0.946587 0.660599 -0.400454
O58   O     O_R   0.924473 0.887503 0.577833 -0.333795
N11   N     N_R   0.414690 0.082071 0.407265 0.246832
O59   O     O_R   0.274876 0.113798 0.418006 -0.262252
O60   O     O_R   0.450361 0.051358 0.341764 -0.256950
O61   O     O_3   0.069115 0.660668 0.136920 -0.692309
H43   H     H_    0.051873 0.676709 0.088478 0.380752
O62   O     O_3   0.292697 0.786425 0.736663 -0.797808
H44   H     H_    0.291243 0.836288 0.778436 0.354920
N12   N     N_R   0.194058 0.789180 0.620798 0.195649
O63   O     O_R   0.280135 0.860085 0.610248 -0.463319
O64   O     O_R   0.108483 0.743718 0.567690 -0.311924

loop_
_geom_bond_atom_site_label_1
_geom_bond_atom_site_label_2
_geom_bond_distance
_ccdc_geom_bond_type
C4    N12   1.453652 S    
C53   H28   1.082528 S    
N9    O55   1.292010 A    
C21   C22   1.406618 A    
C26   C27   1.402785 A    
C6    C7    1.556215 S    
C12   O37   1.404104 S    
C19   C20   1.406427 A    
O41   H37   0.985608 S    
C22   C25   1.413197 A    
O10   C8    1.388919 S    
P7    O21   1.575274 D    
C41   C42   1.418076 A    
C6    N1    1.460385 S    
P8    C25   1.859793 S    
C12   H14   1.107846 S    
C29   C36   1.415986 A    
N9    O56   1.298667 A    
C28   C33   1.407809 A    
N6    O46   1.301248 A    
N7    O51   1.301002 A    
C12   O38   1.403110 S    
C26   H21   1.080025 S    
P3    O11   1.755129 S    
N5    O43   1.300767 A    
O48   H40   0.990413 S    
N10   O57   1.297443 A    
C8    H9    1.098611 S    
N8    O54   1.301105 A    
C47   C48   1.412209 A    
O19   C13   1.413172 S    
C41   O52   1.379003 S    
C7    N2    1.461293 S    
C15   O45   1.400448 S    
N12   O63   1.300373 A    
C1    O36   1.406299 S    
P1    O1    1.556498 D    
O62   H44   0.993884 S    
C53   C54   1.390767 A    
O14   Ba2   2.861100 S    
C31   C42   1.458248 A    
Ba1   Ba2   4.622528 S    
O14   P8    1.731356 S    
C9    O34   1.397149 S    
P5    O18   1.545074 D    
O16   P7    1.784570 S    
O5    C6    1.391991 S    
Ba2   O21   2.925198 S    
N12   O64   1.297353 A    
O33   H31   0.990278 S    
N11   O60   1.298350 A    
C5    H6    1.091553 S    
C1    O33   1.405241 S    
C10   H11   1.107525 S    
C11   H13   1.109773 S    
C48   C49   1.429435 A    
C8    C9    1.566794 S    
C43   C49   1.426188 A    
C44   C49   1.464449 A    
C32   O48   1.374842 S    
C51   C55   1.420559 A    
C14   H17   1.114373 S    
C23   C24   1.444550 A    
C34   N8    1.432812 S    
C10   O25   1.403620 S    
P8    O23   1.547687 D    
C13   H16   1.113052 S    
C37   C39   1.389799 A    
C4    C5    1.533068 S    
C19   C21   1.389875 A    
C16   H20   1.110004 S    
C33   O49   1.357668 S    
C45   C46   1.395804 A    
P2    Ba1   3.490918 S    
O49   H41   0.991092 S    
C17   C29   1.400903 A    
C22   C23   1.411155 A    
C3    H15   1.111592 S    
P4    C27   1.944891 S    
C4    O62   1.389817 S    
P8    O24   1.754355 S    
C13   C14   1.548405 S    
C11   C12   1.529312 S    
P1    O5    1.759434 S    
C16   N6    1.458174 S    
C15   O24   1.410609 S    
P2    O20   1.607311 S    
C30   C31   1.432338 A    
N4    O40   1.301795 A    
Ba1   O20   2.975425 S    
C37   H25   1.077689 S    
C35   C36   1.435485 A    
H19   C16   1.106484 S    
O3    P6    1.752935 S    
O7    Ba1   2.924845 S    
C31   C32   1.419809 A    
O2    Ba2   2.817498 S    
P5    C54   1.858849 S    
C27   C28   1.465832 A    
O8    Ba1   2.837074 S    
P1    O2    1.560061 S    
P4    O12   1.556890 D    
O6    C10   1.406438 S    
P4    O15   1.775008 S    
P2    O10   1.760552 S    
O6    P6    1.753201 S    
C7    H8    1.113457 S    
C39   N7    1.414205 S    
C18   C32   1.418094 A    
C29   C30   1.443164 A    
C4    O15   1.404634 S    
Ba2   O20   2.858747 S    
P2    C44   1.905954 S    
C40   C41   1.400755 A    
C11   H12   1.106105 S    
N1    O26   1.298929 A    
O12   Ba2   2.832833 S    
O1    Ba1   2.832334 S    
C30   C38   1.411451 A    
C15   C16   1.537575 S    
O37   H35   0.992541 S    
C38   C40   1.419241 A    
P2    O7    1.534075 D    
C48   C56   1.421803 A    
O45   H39   0.989765 S    
C56   N11   1.429519 S    
O4    P6    1.540321 D    
P3    O8    1.754949 S    
C45   N9    1.416019 S    
N8    O53   1.299925 A    
P7    O22   1.757641 S    
O52   H42   0.975917 S    
C5    H5    1.108187 S    
C43   C51   1.423022 A    
O13   Ba2   2.999907 S    
O30   H30   0.993011 S    
P4    Ba2   3.438221 S    
C6    H7    1.104327 S    
O61   H43   0.992592 S    
P4    O13   1.559866 S    
N2    O29   1.300619 A    
C54   C55   1.383764 A    
C18   H24   1.079139 S    
C19   H23   1.078886 S    
C52   C53   1.404466 A    
P7    C52   1.851866 S    
C5    H4    1.111673 S    
C11   O22   1.395711 S    
O2    Ba1   2.999118 S    
N4    O39   1.299095 A    
P3    O9    1.544344 D    
P1    C42   1.915585 S    
C17   C20   1.437402 A    
O3    Ba1   2.861777 S    
O25   H29   0.987286 S    
Ba1   O13   2.816938 S    
O34   H32   0.993100 S    
C24   C35   1.411471 A    
C43   N10   1.412442 S    
C46   C47   1.377020 A    
C15   H18   1.113891 S    
C3    H3    1.107913 S    
C7    O30   1.404201 S    
N3    O31   1.301565 A    
C1    C10   1.559537 S    
C17   C18   1.404416 A    
C8    N3    1.454789 S    
C50   C51   1.417630 A    
N6    O47   1.300985 A    
C9    O35   1.408905 S    
C34   C35   1.417993 A    
C2    H1    1.107100 S    
C23   C28   1.435415 A    
C2    C3    1.523748 S    
C50   C52   1.448135 A    
P5    O17   1.746644 S    
C36   C37   1.397011 A    
C9    H10   1.109331 S    
C38   C39   1.409671 A    
C14   O44   1.403284 S    
N10   O58   1.297869 A    
N1    O27   1.299954 A    
N7    O50   1.296716 A    
O36   H34   0.989368 S    
C50   C56   1.427821 A    
C25   C26   1.412652 A    
C1    N4    1.464262 S    
P1    Ba1   3.437750 S    
C21   H22   1.075932 S    
P5    O19   1.761227 S    
P6    C40   1.875462 S    
O44   H38   0.993510 S    
C2    H2    1.107010 S    
N11   O59   1.296747 A    
C20   C24   1.426161 A    
C47   H26   1.078626 S    
C44   C45   1.413234 A    
O16   Ba2   2.974636 S    
O38   H36   0.992212 S    
O35   H33   0.990451 S    
P3    C46   1.863480 S    
C55   H27   1.077003 S    
C33   C34   1.413728 A    
N5    O42   1.298996 A    
C14   N5    1.463776 S    
C3    O61   1.397479 S    
O17   Ba2   2.837655 S    
O11   C2    1.405539 S    
Ba1   O16   2.859275 S    
N2    O28   1.299810 A    
N3    O32   1.295068 A    
C13   O41   1.399876 S    
