data_mof_unit_29199.cif
_audit_creation_date              2012-12-11T15:56:02-0500
_audit_creation_method            fapswitch 2.2
_symmetry_space_group_name_H-M    P1
_symmetry_Int_Tables_number       1
_space_group_crystal_system       triclinic
_cell_length_a                    11.141307
_cell_length_b                    11.144104
_cell_length_c                    18.813855
_cell_angle_alpha                 90.760286
_cell_angle_beta                  91.165609
_cell_angle_gamma                 58.603205
_cell_volume                      1993.47726203

loop_
_atom_site_label
_atom_site_type_symbol
_atom_type_description
_atom_site_fract_x
_atom_site_fract_y
_atom_site_fract_z
_atom_type_partial_charge
C1    C     C_R   0.388438 0.705083 0.390406 0.544566
C2    C     C_R   0.241076 0.428929 0.200801 -0.168804
C3    C     C_R   0.242321 0.441383 0.273947 -0.047137
C4    C     C_R   0.387500 0.356547 0.387073 0.545198
C5    C     C_R   0.860122 0.771448 0.367604 -0.116844
C6    C     C_R   0.871015 0.646850 0.345679 -0.094582
C7    C     C_R   0.997158 0.536033 0.318046 -0.093500
C8    C     C_R   0.110927 0.553879 0.307887 0.031778
C9    C     C_R   0.368401 0.348266 0.311067 0.000328
C10   C     C_R   0.882382 0.331206 0.186634 0.022749
C11   C     C_R   0.972366 0.229736 0.236468 -0.013949
C12   C     C_R   0.608865 0.089870 0.175486 0.038372
C13   C     C_R   0.932645 0.241062 0.306618 -0.010572
C14   C     C_R   0.732496 0.469725 0.281158 -0.169047
C15   C     C_R   0.767038 0.456423 0.210029 -0.162386
C16   C     C_R   0.772290 0.381099 0.402307 0.539902
C17   C     C_3   0.024142 0.077521 0.235324 -0.277956
C18   C     C_3   0.968988 0.093012 0.309784 -0.288111
C19   C     C_R   0.811449 0.359496 0.329114 0.021286
C20   C     C_R   0.369063 0.830632 0.174662 0.034810
C21   C     C_R   0.400399 0.893618 0.232248 -0.061502
C22   C     C_R   0.406101 0.850065 0.300563 0.030965
C23   C     C_R   0.357589 0.321478 0.164297 -0.001030
C24   C     C_R   0.391555 0.655531 0.259216 -0.197325
C25   C     C_R   0.378072 0.702063 0.188333 0.072491
C26   C     C_3   0.347846 0.040301 0.261213 -0.309355
C27   C     C_3   0.353119 0.987797 0.335376 -0.244171
C28   C     C_R   0.348700 0.759835 0.606856 0.550910
C29   C     C_R   0.387553 0.740696 0.316262 -0.025254
C30   C     C_R   0.321656 0.329256 0.817692 0.018403
C31   C     C_R   0.443815 0.231285 0.781941 0.035895
C32   C     C_R   0.453028 0.238238 0.710318 0.038788
C33   C     C_R   0.230034 0.455789 0.706721 -0.158695
C34   C     C_R   0.490411 0.253830 0.273529 -0.167409
C35   C     C_R   0.219850 0.449415 0.780735 -0.170279
C36   C     C_3   0.523338 0.073267 0.779469 -0.267477
C37   C     C_3   0.533042 0.082923 0.700018 -0.281919
C38   C     C_R   0.342872 0.342695 0.670423 0.017579
C39   C     C_R   0.802456 0.344589 0.837933 0.017403
C40   C     C_R   0.372298 0.352794 0.597101 0.552248
C41   C     C_R   0.776155 0.465511 0.801244 0.035294
C42   C     C_R   0.765472 0.471239 0.728706 0.039452
C43   C     C_R   0.772873 0.252248 0.725251 -0.160895
C44   C     C_R   0.785049 0.244809 0.800064 -0.167596
C45   C     C_R   0.486790 0.229843 0.201396 -0.044478
C46   C     C_3   0.853346 0.543484 0.800782 -0.267461
C47   C     C_3   0.841047 0.547829 0.720882 -0.280834
C48   C     C_R   0.776794 0.360286 0.688867 0.015035
C49   C     C_R   0.316882 0.816146 0.831563 0.018158
C50   C     C_R   0.220286 0.797102 0.792127 0.026911
C51   C     C_R   0.229846 0.783267 0.719198 0.040657
C52   C     C_R   0.754551 0.381295 0.612482 0.547623
C53   C     C_R   0.445440 0.783269 0.723055 -0.163068
C54   C     C_R   0.438080 0.793582 0.797185 -0.159794
C55   C     C_3   0.063456 0.884831 0.788254 -0.273346
C56   C     C_R   0.092028 0.685872 0.323329 -0.052985
C57   C     C_3   0.074310 0.868961 0.708222 -0.278463
C58   C     C_R   0.334969 0.788863 0.682857 0.013676
C59   C     C_R   0.919632 0.313045 0.113215 0.546719
C60   C     C_R   0.328659 0.291733 0.092951 0.549132
C61   C     C_R   0.307019 0.904146 0.107026 0.564661
C62   C     C_R   0.879153 0.312225 0.905884 0.544628
C63   C     C_R   0.296767 0.289873 0.886481 0.551365
C64   C     C_R   0.834457 0.807738 0.158240 -0.100585
C65   C     C_R   0.277160 0.891219 0.899188 0.550121
C66   C     C_R   0.859525 0.911171 0.182278 -0.110397
C67   C     C_R   0.972145 0.789834 0.357510 -0.099766
C68   C     C_R   0.747457 0.052663 0.188955 -0.111486
C69   C     C_R   0.588609 0.980551 0.154819 -0.051067
C70   C     C_R   0.697922 0.842865 0.143860 -0.108571
Cr1   Cr    Cr6+3 0.601740 0.606840 0.505840 0.999161
Cr2   Cr    Cr6+3 0.291500 0.601560 0.495070 1.014013
Cr3   Cr    Cr6+3 0.606780 0.291630 0.499130 0.998127
Cr4   Cr    Cr6+3 0.062440 0.063060 0.008240 1.020573
Cr5   Cr    Cr6+3 0.062950 0.375000 0.998920 1.003786
Cr6   Cr    Cr6+3 0.374550 0.061770 0.992470 1.007628
H1    H     H_    0.588363 0.186076 0.301921 0.147469
H2    H     H_    0.399897 0.556883 0.269670 0.123329
H3    H     H_    0.675778 0.762929 0.127238 0.119603
H4    H     H_    0.244232 0.125065 0.241521 0.143780
H5    H     H_    0.427510 0.068363 0.260333 0.154033
H6    H     H_    0.434205 0.988489 0.370589 0.151366
H7    H     H_    0.248616 0.031949 0.359427 0.146394
H8    H     H_    0.149413 0.546795 0.678103 0.131520
H9    H     H_    0.130170 0.533528 0.807804 0.118566
H10   H     H_    0.457283 0.029941 0.793786 0.162763
H11   H     H_    0.627033 0.025300 0.807435 0.130619
H12   H     H_    0.764076 0.854497 0.391042 0.109909
H13   H     H_    0.642140 0.041893 0.682028 0.136432
H14   H     H_    0.965017 0.885228 0.375441 0.113370
H15   H     H_    0.472680 0.045535 0.668932 0.137238
H16   H     H_    0.766721 0.171160 0.696188 0.132905
H17   H     H_    0.793006 0.155788 0.827114 0.123578
H18   H     H_    0.964235 0.478200 0.818832 0.173840
H19   H     H_    0.792548 0.649035 0.826022 0.125981
H20   H     H_    0.773608 0.655753 0.699625 0.135091
H21   H     H_    0.943834 0.483329 0.694161 0.140718
H22   H     H_    0.534382 0.776512 0.697206 0.132092
H23   H     H_    0.779753 0.639857 0.350268 0.158267
H24   H     H_    0.520051 0.798578 0.826448 0.126555
H25   H     H_    0.024403 0.993839 0.806288 0.161399
H26   H     H_    0.920042 0.700089 0.152777 0.117860
H27   H     H_    0.012895 0.832076 0.812625 0.131347
H28   H     H_    0.030993 0.805955 0.686237 0.133662
H29   H     H_    0.039241 0.969356 0.680056 0.138733
H30   H     H_    0.966429 0.876394 0.197505 0.114823
H31   H     H_    0.762970 0.134913 0.208096 0.114695
H32   H     H_    0.485072 0.003384 0.149963 0.171984
H33   H     H_    0.143743 0.499293 0.172717 0.135405
H34   H     H_    0.005882 0.438403 0.302830 0.127747
H35   H     H_    0.702252 0.541161 0.173471 0.132430
H36   H     H_    0.273662 0.623359 0.137039 0.237275
H37   H     H_    0.451517 0.519542 0.134524 0.234017
H38   H     H_    0.168080 0.710182 0.308562 0.132228
H39   H     H_    0.645604 0.566943 0.299460 0.133290
H40   H     H_    0.137196 0.008566 0.234730 0.153916
H41   H     H_    0.976927 0.054892 0.190189 0.166325
H42   H     H_    0.873724 0.085886 0.313397 0.136076
H43   H     H_    0.051495 0.031215 0.350297 0.145446
N1    N     N_3   0.366657 0.623103 0.130853 -0.611947
O1    O     O_R   0.748670 0.497520 0.427970 -0.540989
O2    O     O_R   0.417470 0.174910 0.067830 -0.526780
O3    O     O_R   0.375160 0.946380 0.070880 -0.531884
O4    O     O_R   0.476470 0.723930 0.429450 -0.501852
O5    O     O_R   0.160500 0.919670 0.926690 -0.512268
O6    O     O_R   0.933140 0.190380 0.936050 -0.503677
O7    O     O_R   0.909010 0.403210 0.925030 -0.526562
O8    O     O_R   0.179590 0.361290 0.918480 -0.512487
O9    O     O_R   0.391360 0.170840 0.907510 -0.521783
O10   O     O_R   0.350950 0.942600 0.922260 -0.511585
O11   O     O_3   0.166650 0.166610 0.999880 -0.258642
O12   O     O_R   0.300170 0.471020 0.567120 -0.505113
O13   O     O_R   0.264730 0.744140 0.416740 -0.531701
O14   O     O_R   0.309440 0.472410 0.418220 -0.504098
O15   O     O_R   0.501630 0.260530 0.414310 -0.537085
O16   O     O_R   0.727920 0.305730 0.428950 -0.507817
O17   O     O_R   0.738670 0.496020 0.588600 -0.515218
O18   O     O_R   0.467190 0.722540 0.578350 -0.505227
O19   O     O_R   0.254720 0.742640 0.577370 -0.514516
O20   O     O_R   0.491630 0.259030 0.574940 -0.518609
O21   O     O_R   0.718640 0.304340 0.577850 -0.508034
O22   O     O_3   0.500010 0.500010 0.500020 -0.279267
O23   O     O_R   0.186620 0.923750 0.087000 -0.501606
O24   O     O_R   0.957350 0.194160 0.084660 -0.509626
O25   O     O_R   0.935120 0.407280 0.085350 -0.527856
O26   O     O_R   0.203800 0.365060 0.067090 -0.510141

loop_
_geom_bond_atom_site_label_1
_geom_bond_atom_site_label_2
_ccdc_geom_bond_type
C57   H29   S    
C12   C69   A    
C2    H33   S    
C23   C45   A    
C22   C29   A    
C11   C13   A    
C41   C42   A    
C66   C68   A    
C5    C67   A    
C8    C56   A    
C65   O10   A    
C7    C8    A    
C39   C41   A    
Cr3   O21   S    
C53   C54   A    
Cr5   O25   S    
Cr2   O22   S    
C12   C68   A    
C26   C27   S    
C49   C65   S    
C13   C18   S    
C4    O14   A    
C36   C37   S    
C10   C15   A    
C34   H1    S    
C62   O7    A    
Cr6   O11   S    
Cr4   O5    S    
C20   C25   A    
C14   H39   S    
C55   H27   S    
Cr5   O8    S    
C4    O15   A    
C20   C61   S    
C39   C62   S    
C24   C29   A    
C44   H17   S    
C5    H12   S    
Cr6   O10   S    
C61   O23   A    
Cr2   O19   S    
C46   H19   S    
Cr3   O15   S    
C69   H32   S    
C41   C46   S    
C51   C57   S    
C68   H31   S    
C64   C70   A    
C52   O17   A    
C43   C48   A    
C18   H42   S    
C63   O8    A    
C17   H41   S    
C40   O12   A    
C36   H11   S    
Cr4   O11   S    
C54   H24   S    
C28   O19   A    
C60   O26   A    
C66   H30   S    
C1    O13   A    
C21   C26   S    
Cr5   O11   S    
Cr2   O12   S    
Cr1   O18   S    
Cr3   O22   S    
Cr5   O26   S    
C23   C60   S    
C13   C19   A    
C15   H35   S    
Cr1   O4    S    
C28   O18   A    
C24   C25   A    
Cr1   O17   S    
C3    C8    S    
H36   N1    S    
C37   H15   S    
C36   H10   S    
C67   H14   S    
C26   H4    S    
C65   O5    A    
C64   H26   S    
C43   C44   A    
C3    C9    A    
H37   N1    S    
Cr6   O9    S    
Cr2   O14   S    
C31   C32   A    
C46   H18   S    
Cr3   O16   S    
C30   C31   A    
C47   H20   S    
C50   C55   S    
C1    C29   S    
C17   C18   S    
C50   C51   A    
C51   C58   A    
C42   C48   A    
C32   C37   S    
C60   O2    A    
C6    C7    A    
C34   C45   A    
Cr1   O22   S    
C59   O25   A    
C24   H2    S    
C59   O24   A    
Cr4   O6    S    
C26   H5    S    
C32   C38   A    
C22   C27   S    
C55   C57   S    
C9    C34   A    
Cr4   O23   S    
C16   O16   A    
C25   N1    S    
C62   O6    A    
C57   H28   S    
Cr4   O24   S    
C46   C47   S    
C11   C17   S    
C70   H3    S    
C14   C15   A    
Cr6   O3    S    
C14   C19   A    
Cr1   O1    S    
C27   H6    S    
C43   H16   S    
C12   C45   S    
C53   C58   A    
C39   C44   A    
Cr3   O20   S    
C28   C58   S    
C53   H22   S    
C56   C67   A    
C30   C35   A    
C55   H25   S    
C52   O21   A    
C47   H21   S    
C7    H34   S    
C37   H13   S    
C61   O3    A    
Cr6   O2    S    
C6    H23   S    
C27   H7    S    
C2    C3    A    
C1    O4    A    
C38   C40   S    
C35   H9    S    
Cr2   O13   S    
C5    C6    A    
C16   C19   S    
C16   O1    A    
C40   O20   A    
C30   C63   S    
C33   C35   A    
C10   C59   S    
Cr5   O7    S    
C42   C47   S    
C63   O9    A    
C69   C70   A    
C33   H8    S    
C10   C11   A    
C48   C52   S    
C20   C21   A    
C49   C50   A    
C2    C23   A    
C56   H38   S    
C31   C36   S    
C33   C38   A    
C4    C9    S    
C21   C22   A    
C18   H43   S    
C49   C54   A    
C17   H40   S    
C64   C66   A    
