data_mof_unit_62119.cif
_audit_creation_date              2012-12-10T20:03:23-0500
_audit_creation_method            fapswitch 2.2
_symmetry_space_group_name_H-M    P1
_symmetry_Int_Tables_number       1
_space_group_crystal_system       triclinic
_cell_length_a                    22.453597
_cell_length_b                    26.451324
_cell_length_c                    22.431502
_cell_angle_alpha                 90.050138
_cell_angle_beta                  90.042597
_cell_angle_gamma                 90.320356
_cell_volume                      13322.4658908

loop_
_atom_site_label
_atom_site_type_symbol
_atom_type_description
_atom_site_fract_x
_atom_site_fract_y
_atom_site_fract_z
_atom_type_partial_charge
C1    C     C_1   0.000005 0.249946 0.526674 0.009765
C2    C     C_1   0.500043 0.249989 0.973327 0.004531
C3    C     C_2   0.490478 0.556474 0.753781 0.283125
C4    C     C_2   0.491974 0.942518 0.265203 0.263890
C5    C     C_2   0.493113 0.943591 0.740274 0.272228
C6    C     C_2   0.507853 0.056935 0.761493 0.281552
C7    C     C_2   0.484026 0.058688 0.265443 0.284458
C8    C     C_2   0.996606 0.443377 0.260579 0.261435
C9    C     C_2   0.993028 0.443560 0.740444 0.270090
C10   C     C_2   0.008160 0.556953 0.761490 0.276506
C11   C     C_2   0.985393 0.558628 0.262138 0.291266
C12   C     C_2   0.009044 0.944175 0.745472 0.270830
C13   C     C_1   0.500003 0.750018 0.973307 0.007922
C14   C     C_2   0.993259 0.943580 0.240414 0.270642
C15   C     C_2   0.008018 0.056983 0.261623 0.277904
C16   C     C_2   0.989215 0.056775 0.755707 0.283103
C17   C     C_3   0.562011 0.456355 0.833963 -0.046637
C18   C     C_3   0.561238 0.459345 0.165636 -0.073045
C19   C     C_3   0.613349 0.562256 0.254137 -0.087805
C20   C     C_3   0.470797 0.561095 0.856740 -0.105556
C21   C     C_3   0.513452 0.944561 0.365734 -0.059787
C22   C     C_3   0.568556 0.960136 0.672273 -0.066576
C23   C     C_3   0.612645 0.064877 0.765768 -0.090065
C24   C     C_1   0.500006 0.750017 0.026689 0.008121
C25   C     C_3   0.500654 0.067811 0.368533 -0.062566
C26   C     C_3   0.024098 0.451873 0.359765 -0.074297
C27   C     C_3   0.066804 0.460136 0.670703 -0.069001
C28   C     C_3   0.113191 0.563899 0.761413 -0.091356
C29   C     C_3   0.984540 0.569256 0.365819 -0.088305
C30   C     C_3   0.066680 0.956534 0.831215 -0.048170
C31   C     C_3   0.068723 0.960371 0.172588 -0.066736
C32   C     C_3   0.112811 0.065268 0.266243 -0.089299
C33   C     C_3   0.979068 0.061915 0.859938 -0.099292
C34   C     C_1   0.500004 0.749947 0.526674 0.010249
C35   C     C_1   0.500041 0.749991 0.473327 0.005290
C36   C     C_1   0.500003 0.250016 0.473307 0.010951
C37   C     C_1   0.500007 0.250019 0.526688 0.012763
C38   C     C_R   0.999806 0.388789 0.749527 0.547557
C39   C     C_R   0.997496 0.388422 0.253195 0.538358
C40   C     C_R   0.998456 0.611758 0.251232 0.561880
C41   C     C_1   0.000044 0.249988 0.473327 0.005030
C42   C     C_R   0.001179 0.611443 0.751567 0.547320
C43   C     C_R   0.999840 0.888800 0.249544 0.547239
C44   C     C_R   0.000350 0.888916 0.750098 0.536118
C45   C     C_R   0.998881 0.111447 0.750414 0.549420
C46   C     C_R   0.001064 0.111463 0.251491 0.546759
C47   C     C_R   0.499766 0.388789 0.249529 0.549968
C48   C     C_R   0.501059 0.388964 0.749380 0.530470
C49   C     C_R   0.498935 0.611424 0.750265 0.549445
C50   C     C_R   0.501249 0.611405 0.251574 0.547654
C51   C     C_R   0.499810 0.888819 0.749517 0.546732
C52   C     C_1   0.999997 0.750011 0.473307 0.009342
C53   C     C_R   0.497012 0.888160 0.253567 0.540701
C54   C     C_R   0.498066 0.111584 0.251901 0.558581
C55   C     C_R   0.501036 0.111463 0.751469 0.546451
C56   C     C_R   0.000003 0.250013 0.909965 0.508970
C57   C     C_R   0.000013 0.250018 0.090033 0.520678
C58   C     C_R   0.000007 0.749958 0.089960 0.526102
C59   C     C_R   0.000032 0.749992 0.910041 0.509662
C60   C     C_R   0.999997 0.750007 0.409965 0.508690
C61   C     C_R   0.000012 0.750017 0.590032 0.520261
C62   C     C_R   0.000010 0.249955 0.589959 0.527782
C63   C     C_1   0.000002 0.750013 0.526688 0.010531
C64   C     C_R   0.000028 0.249997 0.410041 0.506003
C65   C     C_R   0.500000 0.250010 0.409965 0.511451
C66   C     C_R   0.500015 0.250020 0.590033 0.522071
C67   C     C_R   0.500012 0.749954 0.589959 0.529197
C68   C     C_R   0.500023 0.750000 0.410041 0.506207
C69   C     C_R   0.500003 0.750013 0.909965 0.508317
C70   C     C_R   0.500012 0.750017 0.090033 0.519136
C71   C     C_R   0.500004 0.249962 0.089959 0.524118
C72   C     C_R   0.500031 0.249993 0.910041 0.508735
C73   C     C_R   0.839995 0.249947 0.749942 0.505973
C74   C     C_1   0.000004 0.749946 0.026675 0.008939
C75   C     C_R   0.840009 0.249958 0.250042 0.522234
C76   C     C_R   0.839995 0.749946 0.249944 0.507238
C77   C     C_R   0.840008 0.749954 0.750038 0.523124
C78   C     C_R   0.339995 0.249945 0.249944 0.507645
C79   C     C_R   0.340008 0.249952 0.750036 0.521683
C80   C     C_R   0.339995 0.749947 0.749942 0.504966
C81   C     C_R   0.340009 0.749963 0.250048 0.523940
C82   C     C_R   0.160001 0.250030 0.749944 0.525756
C83   C     C_R   0.160012 0.250034 0.250079 0.512985
C84   C     C_R   0.160001 0.750034 0.249949 0.525189
C85   C     C_1   0.000046 0.749985 0.973328 0.005351
C86   C     C_R   0.160012 0.750037 0.750075 0.512622
C87   C     C_R   0.660001 0.250034 0.249948 0.524742
C88   C     C_R   0.660011 0.250037 0.750076 0.512715
C89   C     C_R   0.660001 0.750029 0.749943 0.526554
C90   C     C_R   0.660012 0.750035 0.250077 0.513411
C91   C     C_1   0.223329 0.250036 0.749925 0.012691
C92   C     C_1   0.223329 0.250047 0.250099 0.002064
C93   C     C_1   0.223330 0.750050 0.249937 0.013139
C94   C     C_1   0.223329 0.750052 0.750096 -0.000723
C95   C     C_1   0.723330 0.250045 0.249933 0.012091
C96   C     C_1   0.000004 0.250019 0.973307 0.008966
C97   C     C_1   0.723329 0.250051 0.750096 0.000235
C98   C     C_1   0.723329 0.750037 0.749926 0.012946
C99   C     C_1   0.723329 0.750048 0.250098 0.001815
C100  C     C_1   0.276683 0.249930 0.750041 0.019239
C101  C     C_1   0.276677 0.249916 0.249936 0.006697
C102  C     C_1   0.276685 0.749948 0.250055 0.021837
C103  C     C_1   0.276677 0.749921 0.749933 0.003447
C104  C     C_1   0.776684 0.249941 0.250050 0.020086
C105  C     C_1   0.776677 0.249920 0.749933 0.004760
C106  C     C_1   0.776684 0.749933 0.750043 0.019823
C107  C     C_1   0.000007 0.250018 0.026689 0.009776
C108  C     C_1   0.776678 0.749917 0.249935 0.006412
C109  C     C_2   0.479779 0.474097 0.705658 0.279216
C110  C     C_2   0.468285 0.473725 0.282738 0.281649
C111  C     C_2   0.459762 0.527134 0.268034 0.291132
C112  C     C_2   0.495287 0.528375 0.703302 0.290001
C113  C     C_2   0.457428 0.972993 0.231654 0.274035
C114  C     C_2   0.465520 0.973961 0.780148 0.273551
C115  C     C_2   0.458492 0.027393 0.764578 0.282727
C116  C     C_2   0.476570 0.025408 0.220098 0.259640
C117  C     C_2   0.965019 0.473835 0.223740 0.270500
C118  C     C_1   0.500000 0.249951 0.026674 0.007828
C119  C     C_2   0.966528 0.473894 0.781057 0.283797
C120  C     C_2   0.958962 0.527309 0.765754 0.293251
C121  C     C_2   0.984496 0.526361 0.215439 0.273246
C122  C     C_2   0.973957 0.974056 0.711104 0.285600
C123  C     C_2   0.965920 0.973942 0.280439 0.281204
C124  C     C_2   0.958755 0.027361 0.264918 0.292128
C125  C     C_2   0.990074 0.027767 0.705886 0.293063
C126  C     C_2   0.510865 0.444287 0.743947 0.272535
C127  C     C_2   0.492510 0.443493 0.240614 0.271808
C128  C     C_2   0.508632 0.556819 0.261546 0.275759
H1    H     H_    0.367654 0.490807 0.591483 0.376685
H2    H     H_    0.911347 0.497154 0.929971 0.383455
H3    H     H_    0.802700 0.505247 0.752003 0.383271
H4    H     H_    0.016455 0.499902 0.061240 0.390964
H5    H     H_    0.839387 0.995359 0.625706 0.373714
H6    H     H_    0.910423 0.996595 0.430031 0.384091
H7    H     H_    0.805336 0.002368 0.255191 0.382058
H8    H     H_    0.018175 0.010334 0.549465 0.389220
H9    H     H_    0.594773 0.426134 0.843584 0.168235
H10   H     H_    0.517789 0.446365 0.853322 0.125597
H11   H     H_    0.578080 0.490854 0.857139 0.140349
H12   H     H_    0.414113 0.501061 0.427521 0.382199
H13   H     H_    0.566425 0.426067 0.135969 0.163455
H14   H     H_    0.593502 0.457171 0.203322 0.143481
H15   H     H_    0.573070 0.493263 0.139046 0.137792
H16   H     H_    0.618982 0.598861 0.277888 0.144855
H17   H     H_    0.610506 0.567323 0.205021 0.137777
H18   H     H_    0.653922 0.539720 0.262936 0.157963
H19   H     H_    0.443078 0.595702 0.855473 0.126954
H20   H     H_    0.518265 0.570009 0.866285 0.141850
H21   H     H_    0.454326 0.537327 0.894080 0.148319
H22   H     H_    0.552709 0.947442 0.396084 0.147179
H23   H     H_    0.303507 0.503921 0.261899 0.382320
H24   H     H_    0.497156 0.904673 0.367486 0.118747
H25   H     H_    0.476058 0.966916 0.384208 0.156634
H26   H     H_    0.576816 0.927826 0.641864 0.162298
H27   H     H_    0.597022 0.956647 0.712784 0.144615
H28   H     H_    0.582799 0.994923 0.648566 0.141472
H29   H     H_    0.612715 0.100795 0.791535 0.135509
H30   H     H_    0.616481 0.071626 0.717025 0.140873
H31   H     H_    0.652829 0.043583 0.779406 0.157932
H32   H     H_    0.485510 0.107286 0.377299 0.141516
H33   H     H_    0.549533 0.065773 0.358306 0.166500
H34   H     H_    0.535399 0.516115 0.548765 0.391523
H35   H     H_    0.494584 0.047509 0.411678 0.120807
H36   H     H_    0.057517 0.470292 0.389817 0.142905
H37   H     H_    0.026162 0.410751 0.369897 0.144772
H38   H     H_    0.978744 0.465079 0.372212 0.149121
H39   H     H_    0.074572 0.427436 0.640745 0.163296
H40   H     H_    0.096214 0.457338 0.710626 0.143993
H41   H     H_    0.080289 0.494635 0.645971 0.140598
H42   H     H_    0.115404 0.600231 0.786326 0.138494
H43   H     H_    0.114656 0.569833 0.712380 0.140513
H44   H     H_    0.153565 0.542095 0.773465 0.155253
H45   H     H_    0.312732 0.992244 0.163433 0.369692
H46   H     H_    0.967403 0.608516 0.368507 0.135386
H47   H     H_    0.034200 0.568671 0.365153 0.158399
H48   H     H_    0.970476 0.549824 0.407306 0.131015
H49   H     H_    0.100391 0.926606 0.838700 0.169325
H50   H     H_    0.024102 0.946316 0.853866 0.125782
H51   H     H_    0.084070 0.991282 0.852908 0.138803
H52   H     H_    0.077225 0.928132 0.142142 0.162453
H53   H     H_    0.097106 0.956882 0.213165 0.144598
H54   H     H_    0.082887 0.995257 0.149025 0.141638
H55   H     H_    0.112403 0.101116 0.292152 0.135825
H56   H     H_    0.405329 0.997310 0.927056 0.381442
H57   H     H_    0.117050 0.072178 0.217567 0.141017
H58   H     H_    0.153030 0.044131 0.280181 0.160175
H59   H     H_    0.953909 0.097904 0.861609 0.131750
H60   H     H_    0.027780 0.068375 0.864744 0.141680
H61   H     H_    0.964696 0.038702 0.898574 0.149222
H62   H     H_    0.314696 0.994265 0.765262 0.379282
H63   H     H_    0.483345 0.992907 0.065991 0.392463
H64   H     H_    0.837762 0.493895 0.127564 0.374404
O1    O     O_3   1.000000 0.250000 0.750000 -0.473917
O2    O     O_R   0.034610 0.364600 0.284580 -0.541393
O3    O     O_R   0.465380 0.635400 0.284640 -0.480433
O4    O     O_R   0.465380 0.864600 0.784640 -0.476693
O5    O     O_R   0.465380 0.864600 0.215360 -0.480238
O6    O     O_R   0.465380 0.135400 0.215360 -0.483616
O7    O     O_R   0.465380 0.135400 0.784640 -0.484119
O8    O     O_2   0.440394 0.418525 0.613432 -0.236300
O9    O     O_2   0.372821 0.427577 0.698776 -0.261885
O10   O     O_3   0.386361 0.504180 0.628335 -0.476993
O11   O     O_2   0.397433 0.425698 0.360359 -0.247307
O12   O     O_2   0.504688 0.424478 0.381317 -0.248200
O13   O     O_R   0.034610 0.635400 0.284580 -0.562753
O14   O     O_3   0.447621 0.508127 0.400003 -0.482352
O15   O     O_2   0.363310 0.575614 0.307694 -0.247378
O16   O     O_2   0.383236 0.580494 0.200365 -0.269481
O17   O     O_3   0.342103 0.495853 0.242858 -0.486746
O18   O     O_2   0.473833 0.582219 0.604245 -0.234478
O19   O     O_2   0.575090 0.586670 0.644750 -0.272162
O20   O     O_3   0.542734 0.504346 0.590031 -0.468678
O21   O     O_2   0.399427 0.927284 0.141356 -0.226021
O22   O     O_2   0.357398 0.917521 0.241732 -0.289006
O23   O     O_3   0.345941 0.004229 0.188915 -0.492447
O24   O     O_R   0.034610 0.635400 0.715420 -0.567523
O25   O     O_2   0.388321 0.925022 0.850678 -0.262265
O26   O     O_2   0.493045 0.926061 0.882382 -0.251806
O27   O     O_3   0.431829 0.008481 0.894268 -0.482578
O28   O     O_2   0.359857 0.076984 0.796996 -0.241853
O29   O     O_2   0.387593 0.081256 0.691628 -0.257799
O30   O     O_3   0.342186 0.997270 0.730922 -0.479792
O31   O     O_2   0.439395 0.068433 0.118719 -0.231787
O32   O     O_2   0.546577 0.073368 0.139562 -0.267115
O33   O     O_3   0.502903 0.987234 0.105000 -0.475835
O34   O     O_2   0.919977 0.425491 0.128233 -0.226444
O35   O     O_R   0.034610 0.864600 0.215420 -0.557805
O36   O     O_2   0.862066 0.421040 0.220880 -0.275802
O37   O     O_3   0.862155 0.505358 0.161863 -0.486086
O38   O     O_2   0.891018 0.425297 0.853676 -0.242338
O39   O     O_2   0.996662 0.425438 0.882141 -0.259730
O40   O     O_3   0.936726 0.508296 0.896299 -0.480741
O41   O     O_2   0.861203 0.576013 0.801583 -0.239433
O42   O     O_2   0.885683 0.581348 0.695214 -0.272091
O43   O     O_3   0.842257 0.496703 0.735399 -0.485645
O44   O     O_2   0.958748 0.571288 0.111680 -0.232347
O45   O     O_2   0.062428 0.577206 0.145589 -0.273922
O46   O     O_R   0.034610 0.864600 0.784580 -0.557747
O47   O     O_3   0.025178 0.491319 0.103319 -0.475352
O48   O     O_2   0.918216 0.923333 0.623560 -0.233004
O49   O     O_2   0.868051 0.926304 0.720849 -0.270579
O50   O     O_3   0.868299 0.007354 0.655991 -0.487412
O51   O     O_2   0.888984 0.925196 0.351468 -0.242180
O52   O     O_2   0.993978 0.925853 0.382347 -0.258356
O53   O     O_3   0.933170 0.008440 0.394842 -0.482508
O54   O     O_2   0.860417 0.076611 0.298306 -0.240943
O55   O     O_2   0.887028 0.081085 0.192475 -0.269330
O56   O     O_3   0.842531 0.996811 0.232465 -0.485908
O57   O     O_R   0.034610 0.135400 0.784580 -0.557092
O58   O     O_2   0.962128 0.079135 0.606823 -0.235237
O59   O     O_2   0.066403 0.082851 0.639094 -0.267997
O60   O     O_3   0.027764 0.999525 0.590631 -0.474220
O61   O     O_3   0.560589 0.465976 0.771922 -0.571757
O62   O     O_3   0.501209 0.463582 0.183775 -0.582614
O63   O     O_3   0.563764 0.535242 0.276065 -0.605928
O64   O     O_3   0.464669 0.533067 0.803618 -0.611272
O65   O     O_3   0.530132 0.962652 0.308060 -0.563070
O66   O     O_3   0.506950 0.963703 0.684463 -0.581161
O67   O     O_3   0.562049 0.035182 0.778955 -0.607916
O68   O     O_R   0.034610 0.135400 0.215420 -0.566073
O69   O     O_3   0.465516 0.044956 0.322991 -0.588012
O70   O     O_3   0.038445 0.464466 0.299630 -0.561221
O71   O     O_3   0.005490 0.463627 0.684303 -0.582425
O72   O     O_3   0.062744 0.535316 0.778001 -0.609584
O73   O     O_3   0.960025 0.543317 0.316197 -0.600519
O74   O     O_3   0.060874 0.965738 0.769307 -0.573202
O75   O     O_3   0.007060 0.963703 0.184616 -0.580589
O76   O     O_3   0.062325 0.035270 0.278826 -0.610669
O77   O     O_3   0.965804 0.034730 0.807529 -0.607341
O78   O     O_R   0.534610 0.364600 0.215420 -0.560661
O79   O     O_R   0.534610 0.364600 0.784580 -0.557520
O80   O     O_R   0.534610 0.635400 0.784580 -0.552571
O81   O     O_3   0.000000 0.250000 0.250000 -0.475653
O82   O     O_R   0.534610 0.635400 0.215420 -0.569797
O83   O     O_R   0.534610 0.864600 0.715420 -0.559022
O84   O     O_R   0.534610 0.864600 0.284580 -0.536789
O85   O     O_R   0.534610 0.135400 0.284580 -0.569208
O86   O     O_R   0.534610 0.135400 0.715420 -0.566581
O87   O     O_R   0.965390 0.280060 0.882050 -0.503867
O88   O     O_R   0.965390 0.280060 0.117950 -0.506326
O89   O     O_R   0.965390 0.719940 0.117950 -0.504189
O90   O     O_R   0.965390 0.719940 0.882050 -0.521054
O91   O     O_R   0.965390 0.780060 0.382050 -0.502641
O92   O     O_3   0.000000 0.750000 0.250000 -0.474310
O93   O     O_R   0.965390 0.780060 0.617950 -0.506623
O94   O     O_R   0.965390 0.219940 0.617950 -0.500865
O95   O     O_R   0.965390 0.219940 0.382050 -0.521089
O96   O     O_R   0.465390 0.280060 0.382050 -0.500470
O97   O     O_R   0.465390 0.280060 0.617950 -0.501987
O98   O     O_R   0.465390 0.719940 0.617950 -0.500113
O99   O     O_R   0.465390 0.719940 0.382050 -0.520300
O100  O     O_R   0.465390 0.780060 0.882050 -0.504512
O101  O     O_R   0.465390 0.780060 0.117950 -0.509584
O102  O     O_R   0.465390 0.219940 0.117950 -0.504265
O103  O     O_3   0.000000 0.750000 0.750000 -0.473259
O104  O     O_R   0.465390 0.219940 0.882050 -0.521335
O105  O     O_R   0.867970 0.280050 0.784630 -0.520000
O106  O     O_R   0.867970 0.280050 0.215370 -0.514381
O107  O     O_R   0.867970 0.719950 0.215370 -0.534945
O108  O     O_R   0.867970 0.719950 0.784630 -0.508853
O109  O     O_R   0.867970 0.780050 0.284630 -0.518928
O110  O     O_R   0.867970 0.780050 0.715370 -0.514517
O111  O     O_R   0.867970 0.219950 0.715370 -0.535180
O112  O     O_R   0.867970 0.219950 0.284630 -0.509529
O113  O     O_R   0.367970 0.280050 0.284630 -0.520388
O114  O     O_3   0.500000 0.250000 0.250000 -0.473610
O115  O     O_R   0.367970 0.280050 0.715370 -0.517340
O116  O     O_R   0.367970 0.719950 0.715370 -0.536743
O117  O     O_R   0.367970 0.719950 0.284630 -0.510039
O118  O     O_R   0.367970 0.780050 0.784630 -0.520156
O119  O     O_R   0.367970 0.780050 0.215370 -0.511833
O120  O     O_R   0.367970 0.219950 0.215370 -0.533290
O121  O     O_R   0.367970 0.219950 0.784630 -0.508044
O122  O     O_R   0.132030 0.280060 0.715410 -0.533211
O123  O     O_R   0.132030 0.280060 0.284590 -0.521578
O124  O     O_R   0.132030 0.719940 0.284590 -0.519280
O125  O     O_3   0.500000 0.250000 0.750000 -0.473395
O126  O     O_R   0.132030 0.719940 0.715410 -0.543176
O127  O     O_R   0.132030 0.780060 0.215410 -0.533086
O128  O     O_R   0.132030 0.780060 0.784590 -0.527662
O129  O     O_R   0.132030 0.219940 0.784590 -0.518553
O130  O     O_R   0.132030 0.219940 0.215410 -0.543705
O131  O     O_R   0.632030 0.280060 0.215410 -0.532016
O132  O     O_R   0.632030 0.280060 0.784590 -0.526779
O133  O     O_R   0.632030 0.719940 0.784590 -0.518142
O134  O     O_R   0.632030 0.719940 0.215410 -0.543982
O135  O     O_R   0.632030 0.780060 0.715410 -0.532912
O136  O     O_3   0.500000 0.750000 0.750000 -0.473620
O137  O     O_R   0.632030 0.780060 0.284590 -0.521370
O138  O     O_R   0.632030 0.219940 0.284590 -0.521123
O139  O     O_R   0.632030 0.219940 0.715410 -0.543084
O140  O     O_R   0.034630 0.219970 0.882050 -0.550608
O141  O     O_R   0.034630 0.219970 0.117950 -0.533538
O142  O     O_R   0.034630 0.780030 0.117950 -0.538635
O143  O     O_R   0.034630 0.780030 0.882050 -0.545656
O144  O     O_R   0.034630 0.719970 0.382050 -0.553492
O145  O     O_R   0.034630 0.719970 0.617950 -0.534350
O146  O     O_R   0.034630 0.280030 0.617950 -0.539121
O147  O     O_3   0.500000 0.750000 0.250000 -0.475821
O148  O     O_R   0.034630 0.280030 0.382050 -0.549893
O149  O     O_R   0.534630 0.219970 0.382050 -0.555123
O150  O     O_R   0.534630 0.219970 0.617950 -0.534781
O151  O     O_R   0.534630 0.780030 0.617950 -0.538763
O152  O     O_R   0.534630 0.780030 0.382050 -0.549188
O153  O     O_R   0.534630 0.719970 0.882050 -0.550018
O154  O     O_R   0.534630 0.719970 0.117950 -0.534340
O155  O     O_R   0.534630 0.280030 0.117950 -0.540755
O156  O     O_R   0.534630 0.280030 0.882050 -0.546405
O157  O     O_R   0.965380 0.364600 0.784640 -0.477312
O158  O     O_R   0.034610 0.364600 0.715420 -0.559485
O159  O     O_R   0.965380 0.364600 0.215360 -0.476248
O160  O     O_R   0.965380 0.635400 0.215360 -0.490386
O161  O     O_R   0.965380 0.635400 0.784640 -0.482866
O162  O     O_R   0.965380 0.864600 0.284640 -0.477279
O163  O     O_R   0.965380 0.864600 0.715360 -0.475633
O164  O     O_R   0.965380 0.135400 0.715360 -0.492813
O165  O     O_R   0.965380 0.135400 0.284640 -0.483655
O166  O     O_R   0.465380 0.364600 0.284640 -0.478213
O167  O     O_R   0.465380 0.364600 0.715360 -0.474369
O168  O     O_R   0.465380 0.635400 0.715360 -0.497196
S1    S     S_3+6 0.418560 0.454015 0.660926 0.068165
S2    S     S_3+6 0.947502 0.456087 0.854874 0.071461
S3    S     S_3+6 0.885579 0.547561 0.749025 0.069709
S4    S     S_3+6 0.008356 0.543589 0.142495 0.067632
S5    S     S_3+6 0.905690 0.955482 0.677320 0.065396
S6    S     S_3+6 0.945256 0.956207 0.353847 0.069430
S7    S     S_3+6 0.885765 0.047652 0.246589 0.070077
S8    S     S_3+6 0.012182 0.049587 0.634261 0.074527
S9    S     S_3+6 0.454336 0.455868 0.357673 0.075000
S10   S     S_3+6 0.385635 0.546967 0.254353 0.065278
S11   S     S_3+6 0.522314 0.552613 0.634364 0.074079
S12   S     S_3+6 0.388783 0.953225 0.199954 0.059307
S13   S     S_3+6 0.444431 0.956233 0.853446 0.059028
S14   S     S_3+6 0.385685 0.047818 0.745690 0.073787
S15   S     S_3+6 0.491858 0.040676 0.144237 0.068408
S16   S     S_3+6 0.901079 0.454217 0.182832 0.064931
Zn1   Zn    Zn3+2 0.049470 0.207090 0.799470 0.967527
Zn2   Zn    Zn3+2 0.549470 0.207090 0.700530 0.956839
Zn3   Zn    Zn3+2 0.549470 0.792910 0.700530 0.969897
Zn4   Zn    Zn3+2 0.549470 0.792910 0.299470 0.959838
Zn5   Zn    Zn3+2 0.549470 0.707090 0.799470 0.970183
Zn6   Zn    Zn3+2 0.549470 0.707090 0.200530 0.954050
Zn7   Zn    Zn3+2 0.549470 0.292910 0.200530 0.966562
Zn8   Zn    Zn3+2 0.549470 0.292910 0.799470 0.949798
Zn9   Zn    Zn3+2 0.950550 0.292940 0.799480 1.027701
Zn10  Zn    Zn3+2 0.950550 0.292940 0.200520 1.040949
Zn11  Zn    Zn3+2 0.950550 0.707060 0.200520 1.021668
Zn12  Zn    Zn3+2 0.049470 0.207090 0.200530 0.956831
Zn13  Zn    Zn3+2 0.950550 0.707060 0.799480 1.030121
Zn14  Zn    Zn3+2 0.950550 0.792940 0.299480 1.029546
Zn15  Zn    Zn3+2 0.950550 0.792940 0.700520 1.043549
Zn16  Zn    Zn3+2 0.950550 0.207060 0.700520 1.022651
Zn17  Zn    Zn3+2 0.950550 0.207060 0.299480 1.026274
Zn18  Zn    Zn3+2 0.450550 0.292940 0.299480 1.032060
Zn19  Zn    Zn3+2 0.450550 0.292940 0.700520 1.043846
Zn20  Zn    Zn3+2 0.450550 0.707060 0.700520 1.020079
Zn21  Zn    Zn3+2 0.450550 0.707060 0.299480 1.028401
Zn22  Zn    Zn3+2 0.450550 0.792940 0.799480 1.025811
Zn23  Zn    Zn3+2 0.049470 0.792910 0.200530 0.968415
Zn24  Zn    Zn3+2 0.450550 0.792940 0.200520 1.038875
Zn25  Zn    Zn3+2 0.450550 0.207060 0.200520 1.024653
Zn26  Zn    Zn3+2 0.450550 0.207060 0.799480 1.028874
Zn27  Zn    Zn3+2 0.049470 0.792910 0.799470 0.950799
Zn28  Zn    Zn3+2 0.049470 0.707090 0.299470 0.964257
Zn29  Zn    Zn3+2 0.049470 0.707090 0.700530 0.955507
Zn30  Zn    Zn3+2 0.049470 0.292910 0.700530 0.968521
Zn31  Zn    Zn3+2 0.049470 0.292910 0.299470 0.957228
Zn32  Zn    Zn3+2 0.549470 0.207090 0.299470 0.960411

loop_
_geom_bond_atom_site_label_1
_geom_bond_atom_site_label_2
_ccdc_geom_bond_type
O126  Zn29  S    
O139  Zn2   S    
C114  C115  S    
C87   O131  A    
C39   O159  A    
C4    O65   S    
O112  Zn17  S    
O92   Zn14  S    
H4    O47   S    
O147  Zn24  S    
C127  O62   S    
C23   H30   S    
C128  O63   S    
C20   H21   S    
C33   H61   S    
C34   C35   T    
C21   H24   S    
C61   C63   S    
C110  C111  S    
C55   O7    A    
C48   O79   A    
C45   O164  A    
C66   O150  A    
C91   C100  T    
C27   H41   S    
C119  S2    S    
C88   C97   S    
C97   C105  T    
O133  Zn5   S    
H63   O33   S    
O113  Zn18  S    
C31   H53   S    
C78   C101  S    
O41   S3    D    
O13   Zn28  S    
O55   S7    D    
C29   H47   S    
O157  Zn9   S    
C38   O157  A    
C16   O77   S    
C111  S10   S    
O130  Zn12  S    
C46   O68   A    
H64   O37   S    
O92   Zn28  S    
C114  S13   S    
C58   O142  A    
C80   C103  S    
C73   O105  A    
C4    C113  D    
C84   O127  A    
C15   O76   S    
H3    O43   S    
C82   C91   S    
C6    O67   S    
O17   S10   S    
C93   C102  T    
O102  Zn25  S    
C80   O118  A    
C50   O3    A    
C87   O138  A    
C43   O162  A    
C3    C112  D    
O137  Zn4   S    
C50   O82   A    
C71   O155  A    
O92   Zn23  S    
C72   O104  A    
O146  Zn30  S    
C19   O63   S    
C59   O90   A    
O128  Zn27  S    
C72   O156  A    
O26   S13   D    
O7    Zn26  S    
O119  Zn24  S    
C1    C41   T    
O94   Zn16  S    
C52   C63   T    
C44   O46   A    
C16   C45   S    
O33   S15   S    
O104  Zn26  S    
O162  Zn14  S    
C98   C106  T    
C31   H52   S    
C121  S4    S    
C53   O5    A    
C75   O106  A    
C62   O146  A    
O149  Zn32  S    
C12   C44   S    
O105  Zn9   S    
C47   O78   A    
C21   O65   S    
C70   O154  A    
C40   O160  A    
O116  Zn20  S    
O25   S13   D    
O125  Zn8   S    
O117  Zn21  S    
C84   C93   S    
C12   O74   S    
C84   O124  A    
O45   S4    D    
C57   O141  A    
C68   O99   A    
O103  Zn27  S    
C21   H25   S    
H8    O60   S    
C17   H9    S    
C14   C43   S    
O54   S7    D    
O34   S16   D    
O111  Zn16  S    
C89   O133  A    
C90   O137  A    
C1    C62   S    
C59   C85   S    
C24   C70   S    
C123  C124  S    
O153  Zn5   S    
C18   O62   S    
O136  Zn22  S    
C99   C108  T    
O30   S14   S    
C110  S9    S    
C83   O123  A    
O109  Zn14  S    
O155  Zn7   S    
C32   H57   S    
O11   S9    D    
O140  Zn1   S    
C18   H15   S    
H45   O23   S    
O167  Zn19  S    
H62   O30   S    
C68   O152  A    
O166  Zn18  S    
O85   Zn32  S    
O98   Zn20  S    
C52   C60   S    
C45   O57   A    
C73   C105  S    
C28   H44   S    
O58   S8    D    
C25   H33   S    
C23   H31   S    
C20   H20   S    
O95   Zn17  S    
C16   C125  D    
O32   S15   D    
C67   O151  A    
O40   S2    S    
O6    Zn25  S    
O156  Zn8   S    
C8    C117  D    
O86   Zn2   S    
C22   H27   S    
C30   H50   S    
C19   H18   S    
C15   C124  D    
C31   O75   S    
O46   Zn27  S    
C10   C120  D    
C17   H11   S    
O28   S14   D    
O125  Zn19  S    
C89   C98   S    
O168  Zn20  S    
O125  Zn2   S    
O141  Zn12  S    
C7    C116  D    
O1    Zn9   S    
O44   S4    D    
O150  Zn2   S    
C56   O140  A    
O131  Zn7   S    
H5    O50   S    
C86   O128  A    
H2    O40   S    
C83   O130  A    
O154  Zn6   S    
C60   O91   A    
O106  Zn10  S    
C62   O94   A    
O99   Zn21  S    
O93   Zn15  S    
C78   O120  A    
O50   S5    S    
C89   O135  A    
C44   O163  A    
O1    Zn16  S    
O147  Zn6   S    
O89   Zn11  S    
O19   S11   D    
C90   C99   S    
C14   O75   S    
C58   C74   S    
O108  Zn13  S    
C40   O13   A    
O118  Zn22  S    
C18   H13   S    
C5    C51   S    
H12   O14   S    
C76   O107  A    
C47   C127  S    
C77   O110  A    
O123  Zn31  S    
C78   O113  A    
C79   O121  A    
O24   Zn29  S    
O9    S1    D    
C7    C54   S    
C51   O83   A    
O136  Zn5   S    
O92   Zn11  S    
C122  C125  S    
O12   S9    D    
O90   Zn13  S    
O142  Zn23  S    
O23   S12   S    
C13   C69   S    
C25   H35   S    
O60   S8    S    
C23   H29   S    
C26   H36   S    
C9    C38   S    
C7    O69   S    
C33   H60   S    
C74   C85   T    
C11   C40   S    
C48   C126  S    
C57   O88   A    
C109  C126  D    
O144  Zn28  S    
O18   S11   D    
C42   O161  A    
O1    Zn30  S    
C15   C46   S    
O37   S16   S    
O81   Zn12  S    
C26   H37   S    
C19   H16   S    
O101  Zn24  S    
C4    C53   S    
C10   C42   S    
C29   O73   S    
C32   H55   S    
O161  Zn13  S    
C6    C55   S    
O152  Zn4   S    
C123  S6    S    
O138  Zn32  S    
C38   O158  A    
C2    C118  T    
O68   Zn12  S    
C22   O66   S    
O10   S1    S    
O135  Zn3   S    
C22   H26   S    
C86   O126  A    
O8    S1    D    
C70   O101  A    
O120  Zn25  S    
C124  S7    S    
O100  Zn22  S    
C3    O64   S    
C53   O84   A    
C66   O97   A    
C64   O148  A    
C73   O111  A    
C65   O149  A    
O147  Zn4   S    
O132  Zn8   S    
C116  S15   S    
C81   O117  A    
C27   H40   S    
C33   O77   S    
O134  Zn6   S    
C76   C108  S    
C56   O87   A    
O81   Zn31  S    
C2    C72   S    
C80   O116  A    
C76   O109  A    
C20   O64   S    
O3    Zn21  S    
C79   C100  S    
O22   S12   D    
O147  Zn21  S    
O165  Zn17  S    
C36   C65   S    
O103  Zn15  S    
C112  S11   S    
O125  Zn26  S    
O27   S13   S    
O96   Zn18  S    
O1    Zn1   S    
C25   O69   S    
O83   Zn3   S    
C25   H32   S    
O2    Zn31  S    
C92   C101  T    
O160  Zn11  S    
O114  Zn25  S    
C96   C107  T    
C94   C103  T    
C54   O85   A    
C31   H54   S    
C75   C104  S    
C50   C128  S    
C29   H48   S    
O52   S6    D    
C56   C96   S    
C77   C106  S    
O91   Zn14  S    
C34   C67   S    
C119  C120  S    
O114  Zn18  S    
C58   O89   A    
O158  Zn30  S    
O103  Zn29  S    
C69   O100  A    
C32   H58   S    
C113  S12   S    
O107  Zn11  S    
C88   O139  A    
O5    Zn24  S    
O151  Zn3   S    
O97   Zn19  S    
C69   O153  A    
O35   Zn23  S    
O16   S10   D    
C120  S3    S    
C6    C115  D    
O84   Zn4   S    
C42   O24   A    
C81   O119  A    
C49   O80   A    
O136  Zn20  S    
C12   C122  D    
C55   O86   A    
O48   S5    D    
O127  Zn23  S    
C82   O129  A    
O81   Zn17  S    
O114  Zn7   S    
O124  Zn28  S    
C41   C64   S    
C75   O112  A    
O122  Zn30  S    
O4    Zn22  S    
C5    C114  D    
C115  S14   S    
O47   S4    S    
C3    C49   S    
C22   H28   S    
C83   C92   S    
C67   O98   A    
C17   O61   S    
C19   H17   S    
C65   O96   A    
O38   S2    D    
O39   S2    D    
C51   O4    A    
O114  Zn32  S    
O145  Zn29  S    
O87   Zn9   S    
O59   S8    D    
O15   S10   D    
C117  C121  S    
C60   O144  A    
O43   S3    S    
C86   C94   S    
O110  Zn15  S    
H56   O27   S    
C109  S1    S    
O51   S6    D    
C30   H51   S    
C17   H10   S    
C30   O74   S    
C8    C39   S    
C61   O93   A    
O20   S11   S    
O80   Zn5   S    
C88   O132  A    
H6    O53   S    
C110  C127  D    
C113  C116  S    
O49   S5    D    
C27   O71   S    
C61   O145  A    
O121  Zn26  S    
C11   C121  D    
C43   O35   A    
C81   C102  S    
C39   O2    A    
C122  S5    S    
O42   S3    D    
O56   S7    S    
C18   H14   S    
C109  C112  S    
O143  Zn27  S    
C28   O72   S    
O78   Zn7   S    
C13   C24   T    
C87   C95   S    
C71   O102  A    
O36   S16   D    
O159  Zn10  S    
C28   H43   S    
O57   Zn1   S    
C37   C66   S    
C49   O168  A    
C11   O73   S    
C20   H19   S    
O163  Zn15  S    
C33   H59   S    
C21   H22   S    
C77   O108  A    
H1    O10   S    
C57   C107  S    
O53   S6    S    
O129  Zn1   S    
O79   Zn8   S    
O136  Zn3   S    
C9    C119  D    
C8    O70   S    
C111  C128  D    
C95   C104  T    
C64   O95   A    
O103  Zn13  S    
C28   H42   S    
C26   H38   S    
C14   C123  D    
H23   O17   S    
C71   C118  S    
O31   S15   D    
O81   Zn10  S    
H7    O56   S    
C26   O70   S    
C54   O6    A    
C47   O166  A    
O82   Zn6   S    
C125  S8    S    
H34   O20   S    
C35   C68   S    
C82   O122  A    
C9    O71   S    
C5    O66   S    
C30   H49   S    
C10   O72   S    
C32   O76   S    
C126  O61   S    
O21   S12   D    
C46   O165  A    
C79   O115  A    
O14   S9    S    
O29   S14   D    
C23   O67   S    
O148  Zn31  S    
O88   Zn10  S    
C36   C37   T    
C117  S16   S    
C59   O143  A    
C90   O134  A    
C48   O167  A    
C29   H46   S    
O164  Zn16  S    
C27   H39   S    
O115  Zn19  S    
