data_mof_unit_20453.cif
_audit_creation_date              2013-03-05T16:01:45-0500
_audit_creation_method            fapswitch 2.2
_symmetry_space_group_name_H-M    P1
_symmetry_Int_Tables_number       1
_space_group_crystal_system       triclinic
_cell_length_a                    14.727928
_cell_length_b                    14.774933
_cell_length_c                    27.786603
_cell_angle_alpha                 76.03063
_cell_angle_beta                  103.435662
_cell_angle_gamma                 115.045669
_cell_volume                      5257.34505801

loop_
_atom_site_label
_atom_site_type_symbol
_atom_site_description
_atom_site_fract_x
_atom_site_fract_y
_atom_site_fract_z
_atom_type_partial_charge
O1    O     O_R   0.977900 0.338120 0.517190 -0.563974
O2    O     O_R   0.022100 0.661880 0.482810 -0.582932
O3    O     O_R   0.839850 0.379180 0.495160 -0.543264
O4    O     O_R   0.160150 0.620820 0.504840 -0.548796
C1    C     C_R   0.879699 0.312255 0.506220 0.814767
C2    C     C_R   0.119668 0.687683 0.490848 0.896562
O5    O     O_R   0.069030 0.479490 0.580750 -0.599426
O6    O     O_R   0.930970 0.520510 0.419250 -0.614108
O7    O     O_R   0.930970 0.520550 0.558720 -0.592398
O8    O     O_R   0.069030 0.479450 0.441280 -0.545186
C3    C     C_R   0.001689 0.502490 0.592378 0.843694
C4    C     C_R   0.999315 0.499071 0.407306 0.818312
Cu1   Cu    Cu3+1 0.081740 0.475690 0.513040 1.016264
Cu2   Cu    Cu3+1 0.918260 0.524310 0.486960 0.984607
C5    C     C_R   0.971019 0.406547 0.830732 0.606111
C6    C     C_R   0.971070 0.571123 0.164725 0.609368
O9    O     O_2   0.955769 0.321339 0.814629 -0.540999
O10   O     O_2   0.988951 0.657204 0.180773 -0.540078
N1    N     N_R   0.989169 0.495235 0.797799 -0.457519
N2    N     N_R   0.959131 0.483994 0.198376 -0.460060
C7    C     C_R   0.009733 0.583893 0.813294 0.634347
C8    C     C_R   0.937067 0.394462 0.183283 0.646708
C9    C     C_R   0.088930 0.529569 0.730796 -0.054674
C10   C     C_R   0.064314 0.495749 0.281585 -0.061535
C11   C     C_R   0.094112 0.534901 0.679766 -0.063562
C12   C     C_R   0.075485 0.498032 0.333506 -0.030423
C13   C     C_R   0.909766 0.474612 0.661599 -0.320196
C14   C     C_R   0.901243 0.483678 0.322423 -0.331709
C15   C     C_R   0.903521 0.470646 0.711427 0.049897
C16   C     C_R   0.888207 0.479282 0.271616 0.053155
C17   C     C_R   0.993438 0.496896 0.746390 0.251314
C18   C     C_R   0.970470 0.486650 0.250903 0.244334
C19   C     C_R   0.984512 0.493514 0.897564 -0.123628
C20   C     C_R   0.950231 0.482052 0.097600 -0.132926
C21   C     C_R   0.968360 0.404044 0.881170 -0.051516
C22   C     C_R   0.965214 0.571319 0.113674 -0.055904
C23   C     C_R   0.957659 0.316048 0.916063 -0.241917
C24   C     C_R   0.967645 0.656749 0.078092 -0.220652
C25   C     C_R   0.012342 0.585591 0.864157 -0.171007
C26   C     C_R   0.930600 0.391067 0.132204 -0.175430
C27   C     C_R   0.003049 0.505121 0.645352 -0.075997
C28   C     C_R   0.993371 0.493397 0.353859 -0.097536
H1    H     H_    0.840468 0.452448 0.635041 0.144698
H2    H     H_    0.837482 0.478168 0.337796 0.160093
H3    H     H_    0.955229 0.249302 0.905176 0.206226
H4    H     H_    0.966995 0.722222 0.088861 0.204946
C29   C     C_R   0.935595 0.393408 0.030481 -0.118424
C30   C     C_R   0.993403 0.582033 0.963789 -0.071949
C31   C     C_R   0.972988 0.576025 0.012441 0.020209
C32   C     C_R   0.953543 0.397880 0.981637 -0.004490
C33   C     C_R   0.954318 0.484028 0.046810 -0.064251
C34   C     C_R   0.976132 0.491062 0.947675 -0.059976
C35   C     C_R   0.891876 0.300761 0.062804 0.413642
C36   C     C_R   0.040120 0.676478 0.932795 0.397485
C37   C     C_R   0.900491 0.299542 0.114320 0.391943
C38   C     C_R   0.050426 0.677042 0.883159 0.377738
O11   O     O_2   0.922140 0.309779 0.217793 -0.471861
O12   O     O_2   0.026931 0.669686 0.779391 -0.454058
C39   C     C_R   0.958657 0.314828 0.966412 0.521072
C40   C     C_R   0.962423 0.656164 0.027463 0.540207
C41   C     C_R   0.809886 0.204410 0.509820 -0.116515
C42   C     C_R   0.186932 0.795434 0.487571 -0.031190
C43   C     C_R   0.781875 0.027191 0.538736 -0.129111
C44   C     C_R   0.217328 0.964153 0.498557 -0.119638
C45   C     C_R   0.847370 0.128548 0.531174 -0.179239
C46   C     C_R   0.151747 0.864209 0.495742 -0.176078
C47   C     C_R   0.704430 0.176063 0.493403 -0.026256
C48   C     C_R   0.289011 0.828776 0.480854 -0.017834
C49   C     C_R   0.637353 0.076063 0.508892 -0.029875
C50   C     C_R   0.359060 0.922398 0.495313 -0.029074
C51   C     C_R   0.676622 0.999788 0.528162 0.047830
C52   C     C_R   0.321448 0.994187 0.498884 0.048125
C53   C     C_R   0.531748 0.049660 0.504930 -0.004214
C54   C     C_R   0.465044 0.947339 0.506065 -0.007989
C55   C     C_R   0.505274 0.872166 0.524167 -0.288092
C56   C     C_R   0.492498 0.121366 0.505537 -0.254015
C57   C     C_R   0.610161 0.897517 0.535870 0.488583
C58   C     C_R   0.388593 0.094296 0.503178 0.473098
H5    H     H_    0.073278 0.840736 0.499939 0.195900
H6    H     H_    0.927762 0.146996 0.540712 0.228812
H7    H     H_    0.814082 0.970609 0.553735 0.199267
H8    H     H_    0.186942 0.016457 0.502829 0.203052
H9    H     H_    0.455133 0.793545 0.532523 0.163020
H10   H     H_    0.542586 0.197024 0.512248 0.198552
N3    N     N_R   0.795430 0.560780 0.467350 -0.203425
N4    N     N_R   0.204570 0.439220 0.532650 -0.207729
C59   C     C_R   0.710623 0.666119 0.413922 -0.146772
C60   C     C_R   0.287369 0.331025 0.585139 -0.144278
C61   C     C_R   0.795086 0.638809 0.428751 0.103594
C62   C     C_R   0.206593 0.363834 0.572609 0.109280
C63   C     C_R   0.715235 0.510111 0.493145 0.078475
C64   C     C_R   0.282523 0.485661 0.505189 0.053666
C65   C     C_R   0.626796 0.532969 0.479817 -0.046192
C66   C     C_R   0.368440 0.458684 0.516942 -0.057783
C67   C     C_R   0.624307 0.609738 0.438165 0.091088
C68   C     C_R   0.370720 0.381863 0.558569 0.108972
C69   C     C_R   0.540855 0.482117 0.506143 0.073767
C70   C     C_R   0.452695 0.506362 0.489416 0.070684
C71   C     C_R   0.451175 0.576647 0.445356 -0.238270
C72   C     C_R   0.540946 0.409142 0.549199 -0.239063
C73   C     C_R   0.534583 0.626832 0.420510 -0.155936
C74   C     C_R   0.458078 0.360086 0.574387 -0.087086
H11   H     H_    0.526652 0.678675 0.386519 0.193646
H12   H     H_    0.465435 0.306655 0.607770 0.179339
H13   H     H_    0.276589 0.544862 0.475001 0.163790
H14   H     H_    0.721923 0.451095 0.523328 0.137375
H15   H     H_    0.386060 0.594767 0.428709 0.160266
H16   H     H_    0.604695 0.388316 0.565130 0.129332
C75   C     C_2   0.317938 0.778770 0.449353 0.307865
H17   H     H_    0.396253 0.801413 0.445210 0.087608
O13   O     O_2   0.253763 0.717231 0.423954 -0.591041
C76   C     C_2   0.667149 0.236601 0.448485 0.339423
H18   H     H_    0.643948 0.209332 0.412878 0.084128
O14   O     O_2   0.656819 0.312858 0.451127 -0.555354
C77   C     C_2   0.125306 0.316243 0.604206 0.407635
H19   H     H_    0.123331 0.355530 0.631916 0.051214
O15   O     O_2   0.066634 0.228475 0.603374 -0.559868
C78   C     C_2   0.884433 0.697829 0.402781 0.403466
H20   H     H_    0.900857 0.666639 0.375970 0.075880
O16   O     O_2   0.936962 0.785084 0.408953 -0.543137
C79   C     C_2   0.715217 0.754411 0.373423 0.396094
H21   H     H_    0.747979 0.765005 0.340290 0.079747
O17   O     O_2   0.687755 0.818715 0.378047 -0.534830
C80   C     C_2   0.282826 0.243657 0.626233 0.406562
H22   H     H_    0.258209 0.238672 0.661031 0.068580
O18   O     O_2   0.301303 0.174163 0.620424 -0.485196
C81   C     C_2   0.801160 0.439393 0.724812 0.429985
H23   H     H_    0.734656 0.414876 0.696759 0.049432
O19   O     O_2   0.788981 0.441435 0.766443 -0.525458
C82   C     C_2   0.786663 0.466375 0.241942 0.423954
H24   H     H_    0.728705 0.468097 0.259337 0.054626
O20   O     O_2   0.765291 0.452406 0.198476 -0.525883
C83   C     C_2   0.174180 0.510625 0.365248 0.507904
H25   H     H_    0.236824 0.583842 0.362207 0.076619
O21   O     O_2   0.186907 0.437904 0.393102 -0.523412
C84   C     C_2   0.194227 0.571775 0.662917 0.461909
H26   H     H_    0.251647 0.544594 0.684818 0.080841
O22   O     O_2   0.214447 0.635298 0.625402 -0.527168
C85   C     C_2   0.149043 0.503058 0.257858 0.379777
H27   H     H_    0.148054 0.525965 0.217662 0.068426
O23   O     O_2   0.219538 0.481354 0.282238 -0.521486
C86   C     C_2   0.181780 0.560120 0.768835 0.347958
H28   H     H_    0.178424 0.525542 0.807893 0.062777
O24   O     O_2   0.261578 0.626845 0.757679 -0.525113
O25   O     O_3   0.865801 0.207540 0.145663 -0.511584
C87   C     C_3   0.939184 0.165025 0.155644 -0.152398
H29   H     H_    0.014035 0.216881 0.172555 0.141078
H30   H     H_    0.947040 0.144608 0.121262 0.175631
H31   H     H_    0.914268 0.094359 0.183172 0.194613
O26   O     O_3   0.104047 0.766796 0.854412 -0.547743
C88   C     C_3   0.206156 0.778005 0.861633 -0.213551
H32   H     H_    0.213618 0.716499 0.848373 0.165661
H33   H     H_    0.241066 0.780781 0.901619 0.155085
H34   H     H_    0.249440 0.850777 0.839256 0.201037
O27   O     O_3   0.833477 0.210838 0.044627 -0.516045
C89   C     C_3   0.737140 0.211473 0.022870 -0.211911
H35   H     H_    0.742060 0.271505 0.989341 0.142622
H36   H     H_    0.699095 0.220691 0.050567 0.161642
H37   H     H_    0.689076 0.137604 0.010264 0.191993
O28   O     O_3   0.094232 0.762997 0.955212 -0.573356
C90   C     C_3   0.077724 0.849324 0.926298 -0.084287
H38   H     H_    0.003777 0.830596 0.900875 0.163913
H39   H     H_    0.141422 0.897465 0.904883 0.171193
H40   H     H_    0.077714 0.895835 0.952229 0.183008
O29   O     O_3   0.971848 0.234188 0.000232 -0.529489
C91   C     C_3   0.074892 0.264208 0.021507 -0.311303
H41   H     H_    0.098526 0.326239 0.043549 0.148210
H42   H     H_    0.124457 0.287419 0.992261 0.159360
H43   H     H_    0.085738 0.198642 0.047702 0.195738
O30   O     O_3   0.938059 0.730484 0.993365 -0.572438
C92   C     C_3   0.834712 0.688817 0.973049 -0.330142
H44   H     H_    0.785380 0.657004 0.002922 0.174721
H45   H     H_    0.819528 0.630065 0.950316 0.163072
H46   H     H_    0.814294 0.750077 0.947689 0.201811
O31   O     O_3   0.648270 0.823556 0.557965 -0.575395
C93   C     C_3   0.627219 0.758572 0.523521 -0.280459
H47   H     H_    0.651127 0.801443 0.486621 0.189038
H48   H     H_    0.545671 0.708109 0.518674 0.162939
H49   H     H_    0.670683 0.709615 0.538768 0.201728
O32   O     O_3   0.353141 0.164256 0.508052 -0.562888
C94   C     C_3   0.357480 0.234006 0.463036 -0.238958
H50   H     H_    0.316908 0.195080 0.429966 0.160962
H51   H     H_    0.437191 0.283814 0.457838 0.183212
H52   H     H_    0.319130 0.283095 0.465068 0.220008

loop_
_geom_bond_atom_site_label_1
_geom_bond_atom_site_label_2
_geom_bond_distance
_ccdc_geom_bond_type
C92   H44   1.113798 S    
C43   C45   1.391555 A    
O29   C91   1.410362 S    
C68   C74   1.404097 A    
C13   C15   1.394402 A    
C53   C54   1.409080 A    
C82   O20   1.220275 D    
C60   C80   1.491764 S    
N1    C17   1.438294 S    
C56   H10   1.080312 S    
C8    O11   1.348759 S    
C76   O14   1.219938 D    
C69   C70   1.436383 A    
N3    C63   1.361945 A    
C94   H50   1.114112 S    
C19   C34   1.416714 A    
C5    N1    1.365307 A    
C46   H5    1.083157 S    
C92   H45   1.112344 S    
C20   C33   1.419254 A    
C19   C25   1.405513 A    
C31   C40   1.423092 A    
C43   H7    1.083179 S    
O1    C1    1.309249 A    
C32   C39   1.426207 A    
C89   H35   1.112616 S    
N1    C7    1.367027 A    
C56   C58   1.397833 A    
C75   O13   1.220804 D    
O25   C87   1.411015 S    
C74   H12   1.080541 S    
C37   O25   1.383650 S    
O30   C92   1.410514 S    
C66   C70   1.435922 A    
C77   H19   1.082175 S    
C88   H34   1.109115 S    
C14   C28   1.403390 A    
O4    Cu1   1.942490 S    
C49   C51   1.416985 A    
C11   C84   1.485789 S    
C13   C27   1.400035 A    
C78   H20   1.081525 S    
C4    C28   1.487858 S    
C59   C61   1.409449 A    
C93   H49   1.109292 S    
C25   C38   1.408616 A    
C14   C16   1.393491 A    
C77   O15   1.218722 D    
C59   C67   1.412181 A    
Cu1   N4    2.021226 S    
C50   C54   1.418089 A    
C32   C34   1.423905 A    
C88   H32   1.112962 S    
C9    C86   1.492310 S    
C49   C53   1.418050 A    
C39   O29   1.382396 S    
O6    C4    1.303705 A    
C29   C35   1.422650 A    
C44   C52   1.402801 A    
C65   C67   1.417415 A    
C45   H6    1.078069 S    
Cu1   Cu2   2.690832 S    
C91   H42   1.113567 S    
C63   H14   1.074557 S    
O2    C2    1.299328 A    
C81   O19   1.220282 D    
C5    C21   1.402264 A    
C76   H18   1.084809 S    
C90   H39   1.109146 S    
C90   H38   1.115074 S    
C29   C32   1.422977 A    
C87   H30   1.112290 S    
C35   C37   1.403759 A    
C10   C85   1.495789 S    
C92   H46   1.109163 S    
C36   C38   1.419862 A    
C72   H16   1.076047 S    
C79   O17   1.221155 D    
C54   C55   1.409476 A    
C42   C46   1.401619 A    
C84   O22   1.221246 D    
N4    C62   1.374755 A    
C94   H51   1.112055 S    
C11   C27   1.419247 A    
C59   C79   1.491499 S    
N3    C61   1.372925 A    
C29   C33   1.413196 A    
C31   C33   1.419180 A    
C16   C82   1.488039 S    
C14   H2    1.084366 S    
C60   C68   1.410314 A    
C47   C49   1.413818 A    
C44   C46   1.390192 A    
C30   C36   1.429881 A    
O7    Cu2   1.948309 S    
C10   C18   1.416204 A    
C41   C45   1.401346 A    
C63   C65   1.426774 A    
C87   H31   1.109191 S    
O7    C3    1.301092 A    
C41   C47   1.417042 A    
O5    C3    1.300323 A    
O31   C93   1.409866 S    
C7    C25   1.410894 A    
C30   C34   1.421245 A    
C6    N2    1.366029 A    
C26   C37   1.409452 A    
C8    C26   1.411920 A    
C72   C74   1.381229 A    
C1    C41   1.479804 S    
C47   C76   1.489181 S    
C62   C77   1.475208 S    
C66   C68   1.416928 A    
C55   C57   1.402787 A    
C44   H8    1.083223 S    
C79   H21   1.085280 S    
C23   C39   1.391519 A    
O3    Cu2   1.942490 S    
O8    C4    1.303418 A    
C24   C40   1.392887 A    
O4    C2    1.299268 A    
C93   H47   1.114399 S    
C71   C73   1.382460 A    
C60   C62   1.409177 A    
C35   O27   1.383706 S    
C15   C81   1.487475 S    
C83   H25   1.084265 S    
C53   C56   1.410164 A    
C20   C26   1.411152 A    
O1    Cu1   1.954602 S    
C23   H3    1.083710 S    
C81   H23   1.085955 S    
C65   C69   1.435766 A    
C51   C57   1.405745 A    
C69   C72   1.404101 A    
O32   C94   1.410576 S    
C12   C28   1.419910 A    
C90   H40   1.109342 S    
C80   O18   1.221223 D    
C87   H29   1.114034 S    
N2    C18   1.438230 S    
C94   H52   1.108897 S    
C5    O9    1.349614 S    
C30   C31   1.426235 A    
O6    Cu2   1.949753 S    
C21   C23   1.394334 A    
O26   C88   1.412166 S    
C89   H37   1.109129 S    
C10   C12   1.420614 A    
Cu2   N3    2.021224 S    
N2    C8    1.368177 A    
C84   H26   1.084988 S    
O3    C1    1.295164 A    
O8    Cu1   1.948307 S    
C85   H27   1.084601 S    
C71   H15   1.075540 S    
C57   O31   1.386112 S    
C73   H11   1.080568 S    
C42   C48   1.413041 A    
C58   O32   1.384484 S    
C40   O30   1.380408 S    
O28   C90   1.417197 S    
C2    C42   1.469974 S    
C89   H36   1.113748 S    
C82   H24   1.085811 S    
C7    O12   1.349405 S    
C15   C17   1.413202 A    
C12   C83   1.476434 S    
N4    C64   1.363257 A    
C75   H17   1.082573 S    
C6    C22   1.400387 A    
C22   C24   1.395606 A    
C16   C18   1.411783 A    
C85   O23   1.220602 D    
C55   H9    1.082484 S    
C64   C66   1.427885 A    
C91   H41   1.112708 S    
C93   H48   1.109797 S    
C19   C21   1.409149 A    
C3    C27   1.477106 S    
C20   C22   1.407089 A    
C48   C75   1.498522 S    
C88   H33   1.113171 S    
O2    Cu2   1.954602 S    
C78   O16   1.220898 D    
C24   H4    1.083674 S    
C36   O28   1.395850 S    
C13   H1    1.084979 S    
C64   H13   1.073666 S    
O5    Cu1   1.949753 S    
C9    C11   1.419133 A    
C61   C78   1.476029 S    
C91   H43   1.109197 S    
C6    O10   1.349615 S    
C70   C71   1.403891 A    
C52   C58   1.404236 A    
O27   C89   1.410191 S    
C83   O21   1.220759 D    
C48   C50   1.416535 A    
C86   H28   1.084967 S    
C50   C52   1.419712 A    
C38   O26   1.383939 S    
C43   C51   1.402719 A    
C86   O24   1.220655 D    
C67   C73   1.404343 A    
C9    C17   1.416366 A    
C80   H22   1.085228 S    
