data_mof_unit_12283.cif
_audit_creation_date              2012-12-10T19:50:46-0500
_audit_creation_method            fapswitch 2.2
_symmetry_space_group_name_H-M    P1
_symmetry_Int_Tables_number       1
_space_group_crystal_system       triclinic
_cell_length_a                    18.271965
_cell_length_b                    18.267587
_cell_length_c                    18.220385
_cell_angle_alpha                 119.817938
_cell_angle_beta                  90.33819
_cell_angle_gamma                 119.838489
_cell_volume                      4309.97442414

loop_
_atom_site_label
_atom_site_type_symbol
_atom_type_description
_atom_site_fract_x
_atom_site_fract_y
_atom_site_fract_z
_atom_type_partial_charge
C1    C     C_R   0.639952 0.780061 0.641017 0.532048
C2    C     C_R   0.253115 0.946573 0.158640 0.234380
C3    C     C_R   0.206547 0.891692 0.195626 0.029108
C4    C     C_R   0.360743 0.219863 0.359896 0.510485
C5    C     C_R   0.227374 0.946838 0.288677 -0.062323
C6    C     C_3   0.167779 0.939931 0.344331 -0.271238
C7    C     C_3   0.225772 0.057687 0.403307 -0.092813
C8    C     C_R   0.787352 0.571330 0.340892 -0.024802
C9    C     C_R   0.696232 0.491563 0.304379 0.017852
C10   C     C_R   0.662511 0.402950 0.215488 0.237583
C11   C     C_R   0.716621 0.405895 0.161427 -0.144060
C12   C     C_3   0.803693 0.595146 0.827024 -0.101675
C13   C     C_R   0.805027 0.493515 0.196618 -0.032783
C14   C     C_R   0.841188 0.571958 0.288302 0.081741
C15   C     C_3   0.892540 0.686621 0.335430 -0.093991
C16   C     C_R   0.362169 0.502146 0.642167 0.493486
C17   C     C_3   0.833058 0.685464 0.393696 -0.275443
C18   C     C_R   0.784555 0.946878 0.707359 -0.044736
C19   C     C_R   0.696124 0.891899 0.703649 -0.000195
C20   C     C_R   0.665635 0.946101 0.765573 0.235525
C21   C     C_R   0.722916 0.055022 0.824432 0.242683
C22   C     C_R   0.805405 0.108571 0.813276 -0.022416
C23   C     C_3   0.700371 0.526949 0.793091 0.002347
C24   C     C_R   0.837803 0.053059 0.760486 -0.051310
C25   C     C_3   0.880523 0.058834 0.692151 -0.099665
C26   C     C_3   0.821919 0.941040 0.633309 -0.276661
C27   C     C_R   0.285543 0.571384 0.338679 -0.060225
C28   C     C_R   0.639977 0.499018 0.359824 0.506239
C29   C     C_R   0.294900 0.490555 0.301964 0.003327
C30   C     C_R   0.235536 0.398273 0.215268 0.271928
C31   C     C_R   0.169461 0.391945 0.167211 -0.023400
C32   C     C_R   0.178657 0.484935 0.197987 -0.025647
C33   C     C_R   0.230212 0.569682 0.286519 0.042859
C34   C     C_3   0.697508 0.431484 0.768762 -0.180577
C35   C     C_3   0.293033 0.682257 0.326369 0.156039
C36   C     C_3   0.355444 0.684506 0.384374 -0.230885
C37   C     C_R   0.262204 0.545786 0.709128 -0.008811
C38   C     C_R   0.316895 0.513338 0.708457 -0.011697
C39   C     C_R   0.330630 0.498641 0.775693 -0.005635
C40   C     C_R   0.358252 0.499220 0.358154 0.519760
C41   C     C_R   0.273814 0.496286 0.829193 0.001997
C42   C     C_R   0.207514 0.512091 0.815868 -0.008260
C43   C     C_R   0.209108 0.545517 0.761692 -0.007252
C44   C     C_3   0.134845 0.513557 0.692554 -0.255014
C45   C     C_3   0.697430 0.405871 0.674263 0.008419
C46   C     C_3   0.193925 0.513863 0.634109 -0.254470
C47   C     C_R   0.860044 0.499562 0.140121 0.497749
C48   C     C_R   0.141809 0.501719 0.861769 0.492954
C49   C     C_R   0.141602 0.780088 0.139975 0.509610
C50   C     C_R   0.860054 0.219988 0.860860 0.505788
C51   C     C_R   0.136786 0.495949 0.141236 0.523255
C52   C     C_R   0.641644 0.499972 0.641584 0.559380
C53   C     C_R   0.858282 0.499839 0.858264 0.511133
C54   C     C_3   0.802413 0.567631 0.731331 -0.119426
C55   C     C_3   0.800732 0.472073 0.706250 -0.111068
C56   C     C_3   0.699080 0.500054 0.698771 0.070189
C57   C     C_3   0.800789 0.499431 0.800938 0.024756
C58   C     C_2   0.278773 0.104754 0.496430 0.265930
C59   C     C_3   0.567779 0.258672 0.212156 0.036410
C60   C     C_3   0.568606 0.166447 0.143237 -0.282038
C61   C     C_3   0.573076 0.111855 0.183043 -0.491779
C62   C     C_2   0.989626 0.746150 0.388007 0.234676
C63   C     C_3   0.520900 0.895944 0.733935 0.040114
C64   C     C_3   0.430639 0.833161 0.741620 -0.255714
C65   C     C_3   0.357044 0.826372 0.692757 -0.487736
C66   C     C_3   0.742707 0.146083 0.974883 0.031359
C67   C     C_R   0.280165 0.053208 0.342226 -0.021600
C68   C     C_3   0.696560 0.064810 0.995043 -0.262742
C69   C     C_3   0.747074 0.106559 0.088638 -0.487513
C70   C     C_2   0.978799 0.106042 0.724674 0.279151
C71   C     C_3   0.306383 0.328852 0.133592 0.050738
C72   C     C_3   0.262552 0.272993 0.033074 -0.258738
C73   C     C_3   0.330904 0.279089 0.984467 -0.453383
C74   C     C_2   0.090563 0.290362 0.089268 0.244486
C75   C     C_3   0.362482 0.799787 0.290679 0.009171
C76   C     C_3   0.399942 0.815104 0.221009 -0.252270
C77   C     C_3   0.442074 0.924979 0.248836 -0.492726
C78   C     C_R   0.313229 0.108427 0.304443 -0.018980
C79   C     C_2   0.407823 0.494252 0.792841 0.286251
C80   C     C_2   0.285509 0.483311 0.901550 0.322871
C81   C     C_2   0.644375 0.557905 0.841498 0.229380
C82   C     C_2   0.637741 0.300219 0.588719 0.228877
C83   C     C_3   0.310048 0.877632 0.056658 0.016011
C84   C     C_3   0.302705 0.824713 0.957809 -0.244126
C85   C     C_3   0.372793 0.801355 0.942001 -0.487862
C86   C     C_R   0.304625 0.054791 0.213143 -0.134842
H1    H     H_    0.842578 0.448915 0.671058 0.129180
H2    H     H_    0.771004 0.906849 0.571392 0.118060
H3    H     H_    0.859104 0.905391 0.622302 0.140387
H4    H     H_    0.264018 0.725182 0.363729 0.113545
H5    H     H_    0.418713 0.701000 0.369540 0.148331
H6    H     H_    0.847962 0.673077 0.891013 0.143313
H7    H     H_    0.364291 0.730360 0.456883 0.096491
H8    H     H_    0.073543 0.435327 0.665127 0.148888
H9    H     H_    0.123758 0.574953 0.715224 0.141879
H10   H     H_    0.167040 0.435799 0.572676 0.150215
H11   H     H_    0.216849 0.575418 0.623127 0.141852
H12   H     H_    0.172672 0.904353 0.377332 0.149085
H13   H     H_    0.654862 0.375642 0.784518 0.124311
H14   H     H_    0.335116 0.095948 0.183041 0.149718
H15   H     H_    0.098205 0.905234 0.307220 0.133813
H16   H     H_    0.317110 0.078303 0.506388 0.099466
H17   H     H_    0.502534 0.229025 0.223758 0.162238
H18   H     H_    0.620234 0.305070 0.278254 0.123134
H19   H     H_    0.506938 0.111137 0.083410 0.167388
H20   H     H_    0.627555 0.193227 0.121390 0.163981
H21   H     H_    0.639068 0.162351 0.236194 0.169599
H22   H     H_    0.564454 0.039449 0.129672 0.139606
H23   H     H_    0.189874 0.091387 0.400889 0.157051
H24   H     H_    0.519459 0.092871 0.212908 0.146381
H25   H     H_    0.027996 0.829455 0.435310 0.097572
H26   H     H_    0.513182 0.862216 0.661536 0.135645
H27   H     H_    0.541166 0.976620 0.768021 0.169644
H28   H     H_    0.411520 0.753776 0.712528 0.204583
H29   H     H_    0.436868 0.870301 0.813743 0.161831
H30   H     H_    0.374407 0.904886 0.720995 0.154300
H31   H     H_    0.293023 0.781754 0.701145 0.149654
H32   H     H_    0.347694 0.786463 0.619892 0.149897
H33   H     H_    0.743057 0.213966 0.024709 0.145418
H34   H     H_    0.688837 0.340553 0.091862 0.155715
H35   H     H_    0.814409 0.174607 0.984828 0.107646
H36   H     H_    0.626767 0.041448 0.990137 0.174820
H37   H     H_    0.694028 0.995341 0.945116 0.201871
H38   H     H_    0.815525 0.125258 0.092961 0.167812
H39   H     H_    0.710817 0.047290 0.102418 0.160144
H40   H     H_    0.752340 0.177286 0.140514 0.145422
H41   H     H_    0.002227 0.078812 0.753639 0.121980
H42   H     H_    0.339348 0.294565 0.141216 0.181220
H43   H     H_    0.360969 0.411668 0.163982 0.117207
H44   H     H_    0.208723 0.190491 0.002803 0.214581
H45   H     H_    0.882581 0.708552 0.291134 0.092251
H46   H     H_    0.232722 0.309060 0.023478 0.197824
H47   H     H_    0.384802 0.360950 0.012695 0.176331
H48   H     H_    0.297250 0.238378 0.912007 0.195248
H49   H     H_    0.360983 0.241831 0.991165 0.154703
H50   H     H_    0.038445 0.285890 0.054748 0.113258
H51   H     H_    0.417514 0.856134 0.356724 0.124327
H52   H     H_    0.309227 0.813699 0.296366 0.145642
H53   H     H_    0.451533 0.798823 0.212751 0.177516
H54   H     H_    0.345023 0.759952 0.155257 0.153602
H55   H     H_    0.391482 0.942662 0.255963 0.145266
H56   H     H_    0.868203 0.724674 0.465517 0.149920
H57   H     H_    0.468269 0.932480 0.196418 0.136731
H58   H     H_    0.498457 0.981441 0.313524 0.170511
H59   H     H_    0.467700 0.535482 0.780025 0.131809
H60   H     H_    0.299507 0.542721 0.970214 0.068182
H61   H     H_    0.594660 0.509334 0.858241 0.139986
H62   H     H_    0.589725 0.235481 0.590535 0.098476
H63   H     H_    0.301444 0.826251 0.076982 0.128348
H64   H     H_    0.377933 0.951603 0.096995 0.117602
H65   H     H_    0.234806 0.751361 0.916021 0.203666
H66   H     H_    0.312585 0.875702 0.936766 0.165428
H67   H     H_    0.788163 0.706105 0.382646 0.116230
H68   H     H_    0.441343 0.874029 0.981248 0.144305
H69   H     H_    0.365464 0.762198 0.869718 0.153881
H70   H     H_    0.363731 0.749686 0.961876 0.140175
H71   H     H_    0.844819 0.623400 0.715450 0.141930
H72   H     H_    0.864038 0.093081 0.664353 0.142257
O1    O     O_3   0.500000 0.500000 0.500000 -0.456174
O2    O     O_R   0.945260 0.268310 0.884540 -0.534862
O3    O     O_R   0.117230 0.560570 0.177940 -0.519464
O4    O     O_R   0.676910 0.731570 0.616180 -0.539705
O5    O     O_R   0.821960 0.439250 0.882690 -0.541683
O6    O     O_R   0.117230 0.439140 0.056500 -0.562101
O7    O     O_R   0.943400 0.560680 0.882690 -0.538445
O8    O     O_R   0.115380 0.731510 0.054650 -0.497664
O9    O     O_R   0.823040 0.268340 0.883770 -0.511537
O10   O     O_R   0.945260 0.560610 0.176860 -0.500724
O11   O     O_R   0.116150 0.439180 0.884540 -0.499768
O12   O     O_R   0.384580 0.439270 0.616180 -0.519402
O13   O     O_R   0.384580 0.268400 0.445300 -0.512239
O14   O     O_R   0.383810 0.560730 0.615410 -0.549280
O15   O     O_R   0.554700 0.439300 0.323100 -0.520204
O16   O     O_R   0.382730 0.560770 0.443450 -0.552590
O17   O     O_R   0.678000 0.560660 0.617260 -0.537317
O18   O     O_R   0.382730 0.439340 0.322020 -0.526372
O19   O     O_R   0.556550 0.439230 0.617260 -0.530318
O20   O     O_2   0.279323 0.173437 0.561559 -0.445873
O21   O     O_3   0.575299 0.316185 0.178207 -0.551253
O22   O     O_2   0.026148 0.702721 0.377949 -0.477711
O23   O     O_R   0.676910 0.560700 0.445300 -0.549375
O24   O     O_3   0.584160 0.892622 0.774722 -0.549691
O25   O     O_3   0.694884 0.107407 0.888373 -0.550422
O26   O     O_2   0.033043 0.175785 0.719099 -0.450965
O27   O     O_3   0.241613 0.315083 0.177592 -0.496472
O28   O     O_2   0.079781 0.209270 0.065360 -0.471865
O29   O     O_3   0.326599 0.697802 0.262014 -0.559798
O30   O     O_2   0.405551 0.443840 0.819323 -0.445116
O31   O     O_2   0.273284 0.403534 0.884144 -0.410803
O32   O     O_2   0.653942 0.637334 0.861602 -0.514267
O33   O     O_2   0.642597 0.286643 0.516755 -0.520231
O34   O     O_R   0.554700 0.731600 0.615410 -0.528754
O35   O     O_3   0.243206 0.896138 0.068341 -0.534807
O36   O     O_R   0.383810 0.268430 0.323100 -0.552479
O37   O     O_3   0.999960 0.499910 0.999960 -0.459734
O38   O     O_R   0.823040 0.439210 0.054650 -0.552852
O39   O     O_R   0.115380 0.560640 0.883770 -0.559132
O40   O     O_R   0.116150 0.731480 0.176860 -0.548638
Zn1   Zn    Zn3+2 0.457170 0.413230 0.543930 1.000142
Zn2   Zn    Zn3+2 0.456070 0.586770 0.542830 0.927657
Zn3   Zn    Zn3+2 0.456070 0.413270 0.369320 0.943831
Zn4   Zn    Zn3+2 0.630690 0.586730 0.543930 0.946346
Zn5   Zn    Zn3+2 0.042790 0.586680 0.956030 0.939343
Zn6   Zn    Zn3+2 0.043880 0.586640 0.130630 0.955376
Zn7   Zn    Zn3+2 0.043880 0.413140 0.957130 0.961080
Zn8   Zn    Zn3+2 0.869270 0.413190 0.956030 0.936516

loop_
_geom_bond_atom_site_label_1
_geom_bond_atom_site_label_2
_ccdc_geom_bond_type
C70   H41   S    
C66   C68   S    
C66   O25   S    
C37   C43   A    
C47   O10   A    
C4    O13   A    
C82   O33   D    
C27   C29   A    
C80   O31   D    
O3    Zn6   S    
C35   C36   S    
C18   C26   S    
C5    C67   A    
C17   H67   S    
C41   C80   S    
C3    C49   S    
O39   Zn5   S    
C23   C56   S    
C39   C41   A    
C27   C33   A    
C26   H3    S    
C4    O36   A    
C12   C23   S    
C29   C30   A    
O4    Zn4   S    
C18   C24   A    
C59   H18   S    
C6    H12   S    
O6    Zn7   S    
C62   O22   D    
C30   C31   A    
C28   O15   A    
O1    Zn3   S    
C45   C82   S    
O37   Zn5   S    
C61   H24   S    
O15   Zn3   S    
C18   C19   A    
C41   C42   A    
C6    H15   S    
C63   H26   S    
C61   H22   S    
C52   O19   A    
O13   Zn1   S    
C73   H48   S    
O2    Zn7   S    
C13   C47   S    
C36   H7    S    
C62   H25   S    
O23   Zn4   S    
C45   C56   S    
C8    C9    A    
C81   H61   S    
C74   H50   S    
C34   C57   S    
C65   H32   S    
C51   O3    A    
C58   H16   S    
C86   H14   S    
C9    C10   A    
C7    C58   S    
C22   C50   S    
C83   H64   S    
C85   H68   S    
C78   C86   A    
C80   H60   S    
C69   H39   S    
C59   C60   S    
C64   H29   S    
C13   C14   A    
O38   Zn8   S    
C67   C78   A    
C71   O27   S    
C11   H34   S    
C68   H37   S    
O12   Zn1   S    
C44   C46   S    
O9    Zn8   S    
C72   H46   S    
C49   O40   A    
C76   H54   S    
C38   C39   A    
C54   C56   S    
C1    C19   S    
C64   H28   S    
C79   O30   D    
C30   O27   S    
C73   H49   S    
C47   O38   A    
C84   C85   S    
C79   H59   S    
C75   H51   S    
C68   H36   S    
C40   O18   A    
C53   C57   S    
C68   C69   S    
O1    Zn4   S    
C42   C48   S    
O37   Zn6   S    
C69   H38   S    
C50   O2    A    
C25   C26   S    
C63   C64   S    
O36   Zn3   S    
C75   O29   S    
O10   Zn6   S    
C60   C61   S    
C85   H70   S    
C39   C79   S    
C83   O35   S    
C75   C76   S    
C77   H57   S    
C32   C51   S    
C4    C78   S    
C37   C38   A    
C71   H43   S    
C16   O14   A    
C83   C84   S    
O37   Zn7   S    
C23   C34   S    
C34   H13   S    
C66   H35   S    
C15   H45   S    
C51   O6    A    
C58   O20   D    
C34   C45   S    
C85   H69   S    
C24   C25   S    
C52   O17   A    
C12   C57   S    
C84   H66   S    
C36   H5    S    
C70   O26   D    
O1    Zn2   S    
C46   H11   S    
C73   H47   S    
C69   H40   S    
O14   Zn2   S    
C66   H33   S    
C55   C57   S    
C43   C44   S    
O40   Zn6   S    
C65   H30   S    
C22   C24   A    
C71   H42   S    
C42   C43   A    
C10   O21   S    
C3    C5    A    
C25   H72   S    
C60   H20   S    
C20   O24   S    
C76   H53   S    
C53   O7    A    
C15   C17   S    
C54   C55   S    
C8    C14   A    
C23   C81   S    
O18   Zn3   S    
C12   H6    S    
C31   C32   A    
C53   O5    A    
O17   Zn4   S    
C72   C73   S    
C31   C74   S    
C75   H52   S    
C1    O4    A    
C82   H62   S    
C72   H44   S    
C6    C7    S    
C26   H2    S    
C27   C36   S    
O5    Zn8   S    
O16   Zn2   S    
C8    C17   S    
C21   O25   S    
C48   O39   A    
C2    O35   S    
C59   H17   S    
C64   C65   S    
C19   C20   A    
C59   O21   S    
C2    C3    A    
O7    Zn5   S    
C77   H58   S    
C71   C72   S    
C44   H9    S    
C32   C33   A    
C54   H71   S    
O11   Zn7   S    
C76   C77   S    
C11   C13   A    
C5    C6    S    
O37   Zn8   S    
C28   O23   A    
C84   H65   S    
C29   C40   S    
O1    Zn1   S    
C33   C35   S    
C15   C62   S    
C2    C86   A    
O8    Zn5   S    
O34   Zn2   S    
C55   H1    S    
C35   H4    S    
C61   H21   S    
C77   H55   S    
C81   O32   D    
C44   H8    S    
C10   C11   A    
C7    C67   S    
C48   O11   A    
C63   H27   S    
C1    O34   A    
C16   O12   A    
C49   O8    A    
C46   H10   S    
C20   C21   A    
C45   C55   S    
C35   O29   S    
C40   O16   A    
O19   Zn1   S    
C50   O9    A    
C63   O24   S    
C65   H31   S    
C14   C15   S    
C17   H56   S    
C7    H23   S    
C25   C70   S    
C83   H63   S    
C37   C46   S    
C21   C22   A    
C12   C54   S    
C60   H19   S    
C52   C56   S    
C9    C28   S    
C16   C38   S    
C74   O28   D    
