data_mof_unit_23875.cif
_audit_creation_date              2012-12-10T20:34:57-0500
_audit_creation_method            fapswitch 2.2
_symmetry_space_group_name_H-M    P1
_symmetry_Int_Tables_number       1
_space_group_crystal_system       triclinic
_cell_length_a                    10.651705
_cell_length_b                    10.669022
_cell_length_c                    9.852874
_cell_angle_alpha                 90.144179
_cell_angle_beta                  89.623268
_cell_angle_gamma                 89.778425
_cell_volume                      1119.676675

loop_
_atom_site_label
_atom_site_type_symbol
_atom_type_description
_atom_site_fract_x
_atom_site_fract_y
_atom_site_fract_z
_atom_type_partial_charge
C1    C     C_R   0.495805 0.259951 0.499974 0.872727
C2    C     C_3   0.878044 0.498434 0.498331 0.089903
C3    C     C_3   0.921710 0.629788 0.543769 -0.429319
C4    C     C_3   0.930002 0.470793 0.353961 -0.391197
C5    C     C_R   0.475163 0.064424 0.623498 0.122921
C6    C     C_R   0.474950 0.128753 0.500761 -0.113097
C7    C     C_R   0.450161 0.064686 0.379481 -0.224784
C8    C     C_R   0.450128 0.935079 0.379627 -0.228734
C9    C     C_R   0.475065 0.871523 0.501037 -0.102638
C10   C     C_R   0.475151 0.936608 0.623656 0.228807
C11   C     C_3   0.564179 0.929552 0.740102 -0.492751
C12   C     C_R   0.257405 0.502972 0.500511 0.870360
C13   C     C_3   0.564483 0.071620 0.739698 -0.486422
C14   C     C_R   0.454028 0.399675 0.071285 0.217098
C15   C     C_R   0.556344 0.593318 0.071853 -0.135331
C16   C     C_R   0.556482 0.593230 0.927792 -0.093862
C17   C     C_R   0.454316 0.399567 0.928656 0.202601
C18   C     C_3   0.323950 0.350038 0.923260 -0.499313
C19   C     C_3   0.323244 0.350736 0.077314 -0.510455
C20   C     C_R   0.496094 0.740134 0.500136 0.901886
C21   C     C_R   0.742127 0.496992 0.499358 0.849962
C22   C     C_3   0.071974 0.397275 0.595058 -0.361517
C23   C     C_3   0.928287 0.397878 0.597701 -0.378295
C24   C     C_3   0.066313 0.635266 0.545851 0.349600
C25   C     C_3   0.072711 0.475160 0.355579 -0.483151
C26   C     C_3   0.120576 0.503776 0.501795 0.024418
H1    H     H_    0.107895 0.406415 0.699772 0.229121
H2    H     H_    0.894891 0.541384 0.280068 0.194247
H3    H     H_    0.096850 0.704811 0.468386 0.062019
H4    H     H_    0.885218 0.702345 0.472962 0.129135
H5    H     H_    0.440083 0.113455 0.283884 0.167769
H6    H     H_    0.439840 0.885805 0.284086 0.174353
H7    H     H_    0.519236 0.889505 0.832349 0.216278
H8    H     H_    0.656342 0.887382 0.711534 0.202213
H9    H     H_    0.520233 0.113315 0.831878 0.206290
H10   H     H_    0.656762 0.112304 0.710494 0.207684
H11   H     H_    0.599913 0.669752 0.126075 0.148962
H12   H     H_    0.106181 0.304976 0.556458 0.158492
H13   H     H_    0.600559 0.669265 0.873326 0.144323
H14   H     H_    0.257073 0.418308 0.878991 0.250459
H15   H     H_    0.320441 0.254285 0.878786 0.199927
H16   H     H_    0.255910 0.419683 0.121357 0.219303
H17   H     H_    0.318773 0.255337 0.121995 0.195086
H18   H     H_    0.892764 0.303511 0.568948 0.156815
H19   H     H_    0.895346 0.417862 0.703066 0.212398
H20   H     H_    0.880729 0.651353 0.645474 0.224968
H21   H     H_    0.105065 0.548592 0.283283 0.187374
H22   H     H_    0.110395 0.383447 0.319041 0.199624
H23   H     H_    0.898596 0.376682 0.319059 0.188607
N1    N     N_R   0.499150 0.499140 0.142800 -0.107817
N2    N     N_R   0.499150 0.499180 0.857150 -0.098155
O1    O     O_R   0.500020 0.316790 0.614690 -0.623964
O2    O     O_R   0.500000 0.316760 0.385350 -0.623253
O3    O     O_R   0.314800 0.500000 0.614670 -0.563532
O4    O     O_R   0.314790 0.499960 0.385330 -0.639121
O5    O     O_R   0.500000 0.683240 0.614650 -0.586312
O6    O     O_R   0.499980 0.683210 0.385310 -0.636583
O7    O     O_R   0.685210 0.500040 0.614670 -0.632310
O8    O     O_R   0.685200 0.500000 0.385330 -0.624963
Zn1   Zn    Zn3+2 0.500010 0.500020 0.653130 0.984615
Zn2   Zn    Zn3+2 0.499990 0.499980 0.346870 0.937500
S1    S     S_3+6 0.116867 0.698556 0.707265 -0.015485
O9    O     O_2   0.254347 0.728482 0.703807 -0.304302
O10   O     O_2   0.045716 0.818222 0.733701 -0.316499
O11   O     O_3   0.086523 0.598439 0.834638 -0.601317
H24   H     H_    0.120966 0.639257 0.916789 0.376631

loop_
_geom_bond_atom_site_label_1
_geom_bond_atom_site_label_2
_ccdc_geom_bond_type
C3    H4    S    
C2    C4    S    
C16   N2    A    
O6    Zn2   S    
C6    C7    A    
C23   H19   S    
O1    Zn1   S    
C9    C10   A    
C25   H21   S    
C9    C20   S    
C5    C13   S    
C14   C17   A    
C19   H16   S    
S1    O10   D    
C4    H23   S    
C20   O5    A    
C17   N2    A    
C2    C21   S    
C17   C18   S    
C20   O6    A    
C21   O7    A    
C21   O8    A    
O3    Zn1   S    
C11   C13   S    
C25   H22   S    
C3    C24   S    
S1    O9    D    
O4    Zn2   S    
C5    C10   A    
C4    H2    S    
C19   H17   S    
C4    C25   S    
C2    C3    S    
C22   H1    S    
C11   H8    S    
C5    C6    A    
C1    O1    A    
C12   O3    A    
O8    Zn2   S    
C12   O4    A    
C7    C8    A    
C10   C11   S    
C14   N1    A    
C16   H13   S    
O7    Zn1   S    
C1    C6    S    
C8    H6    S    
O5    Zn1   S    
C11   H7    S    
C7    H5    S    
C18   H15   S    
C13   H10   S    
O11   H24   S    
C22   C26   S    
C15   N1    A    
C12   C26   S    
C2    C23   S    
N1    Zn2   S    
C1    O2    A    
C22   C23   S    
C18   C19   S    
C24   S1    S    
N2    Zn1   S    
C3    H20   S    
S1    O11   S    
C18   H14   S    
C25   C26   S    
C24   H3    S    
O2    Zn2   S    
C14   C19   S    
C13   H9    S    
C15   H11   S    
C23   H18   S    
C15   C16   A    
C24   C26   S    
C8    C9    A    
C22   H12   S    
