data_mof_unit_6731.cif
_audit_creation_date              2012-12-10T20:28:47-0500
_audit_creation_method            fapswitch 2.2
_symmetry_space_group_name_H-M    P1
_symmetry_Int_Tables_number       1
_space_group_crystal_system       triclinic
_cell_length_a                    10.62155
_cell_length_b                    10.67511
_cell_length_c                    9.873081
_cell_angle_alpha                 91.047008
_cell_angle_beta                  90.233951
_cell_angle_gamma                 90.335574
_cell_volume                      1119.25534722

loop_
_atom_site_label
_atom_site_type_symbol
_atom_type_description
_atom_site_fract_x
_atom_site_fract_y
_atom_site_fract_z
_atom_type_partial_charge
C1    C     C_R   0.504407 0.259663 0.498594 0.895757
C2    C     C_R   0.067218 0.615236 0.555836 0.096867
C3    C     C_R   0.128515 0.510029 0.499328 -0.099081
C4    C     C_R   0.063633 0.409642 0.439938 -0.222120
C5    C     C_R   0.934920 0.409504 0.440554 -0.216724
C6    C     C_R   0.871923 0.510088 0.499874 -0.094478
C7    C     C_R   0.529663 0.066946 0.619709 0.049347
C8    C     C_R   0.528049 0.128105 0.496779 -0.115396
C9    C     C_R   0.559841 0.060694 0.377518 0.078352
C10   C     C_R   0.564264 0.930763 0.382685 -0.237018
C11   C     C_R   0.539613 0.870649 0.505086 -0.176606
C12   C     C_R   0.260576 0.502199 0.499826 0.875435
C13   C     C_R   0.544423 0.940508 0.626603 0.005498
C14   C     C_3   0.467698 0.935911 0.755485 0.304046
C15   C     C_3   0.442694 0.074592 0.737349 -0.451541
C16   C     C_R   0.389791 0.506723 0.070831 0.224869
C17   C     C_R   0.607378 0.476299 0.071898 -0.125761
C18   C     C_R   0.607394 0.476334 0.928047 -0.160447
C19   C     C_R   0.389593 0.506033 0.928570 0.221751
C20   C     C_3   0.294930 0.608587 0.924295 -0.513751
C21   C     C_3   0.296602 0.610378 0.078299 -0.497563
C22   C     C_R   0.508746 0.740020 0.501634 0.859737
C23   C     C_R   0.739554 0.502501 0.500137 0.868091
C24   C     C_R   0.133522 0.720601 0.609029 -0.203817
C25   C     C_R   0.068709 0.824138 0.660484 -0.138270
C26   C     C_R   0.937660 0.825134 0.658179 -0.132505
C27   C     C_R   0.871098 0.722122 0.605462 -0.195979
C28   C     C_R   0.935352 0.615639 0.555106 0.096928
H1    H     H_    0.112991 0.330309 0.395650 0.148388
H2    H     H_    0.344115 0.094405 0.706257 0.143617
H3    H     H_    0.480287 0.136399 0.820191 0.233681
H4    H     H_    0.694696 0.461350 0.125638 0.160086
H5    H     H_    0.694728 0.461689 0.874411 0.163970
H6    H     H_    0.332107 0.695895 0.879908 0.206205
H7    H     H_    0.203627 0.575711 0.880721 0.215577
H8    H     H_    0.337228 0.697994 0.123337 0.218761
H9    H     H_    0.205902 0.579757 0.123097 0.210409
H10   H     H_    0.235241 0.724741 0.609639 0.138831
H11   H     H_    0.120342 0.904380 0.700662 0.128679
H12   H     H_    0.887502 0.906372 0.696179 0.139910
H13   H     H_    0.769655 0.727300 0.602204 0.129160
H14   H     H_    0.884097 0.330071 0.396717 0.149434
H15   H     H_    0.576524 0.877982 0.289345 0.175032
H16   H     H_    0.381472 0.876511 0.750053 0.073480
N1    N     N_R   0.499160 0.499140 0.142800 -0.109221
N2    N     N_R   0.499160 0.499180 0.857150 -0.123172
O1    O     O_R   0.500020 0.316790 0.614690 -0.613461
O2    O     O_R   0.500000 0.316760 0.385350 -0.589263
O3    O     O_R   0.316770 0.500020 0.614690 -0.618881
O4    O     O_R   0.316760 0.499980 0.385350 -0.614579
O5    O     O_R   0.500000 0.683240 0.614650 -0.664623
O6    O     O_R   0.499980 0.683210 0.385310 -0.613055
O7    O     O_R   0.683240 0.500020 0.614650 -0.632538
O8    O     O_R   0.683230 0.499980 0.385310 -0.622682
Zn1   Zn    Zn3+2 0.500010 0.500020 0.653130 0.919147
Zn2   Zn    Zn3+2 0.499990 0.499980 0.346870 0.948113
O9    O     O_3   0.539220 0.923075 0.876200 -0.606532
C29   C     C_3   0.609605 0.811897 0.874564 0.140700
H17   H     H_    0.687271 0.818334 0.800415 0.147679
H18   H     H_    0.549167 0.730134 0.850631 0.178210
C30   C     C_3   0.667345 0.793122 0.013676 -0.848811
H19   H     H_    0.592189 0.768533 0.086360 0.250722
H20   H     H_    0.736426 0.715551 0.008932 0.215394
H21   H     H_    0.716542 0.879851 0.049132 0.256697
N3    N     N_3   0.579080 0.121200 0.250746 -0.422490
H22   H     H_    0.513133 0.085381 0.181034 0.209142
H23   H     H_    0.668732 0.097484 0.215644 0.182663

loop_
_geom_bond_atom_site_label_1
_geom_bond_atom_site_label_2
_ccdc_geom_bond_type
C16   N1    A    
N2    Zn1   S    
C30   H21   S    
C24   H10   S    
C5    H14   S    
C14   O9    S    
C1    O2    A    
C15   H3    S    
C16   C21   S    
C1    C8    S    
C2    C28   A    
C9    C10   A    
C27   H13   S    
C11   C22   S    
C12   O4    A    
C19   C20   S    
C20   H6    S    
C29   C30   S    
C7    C15   S    
C12   O3    A    
C26   C27   A    
C19   N2    A    
C7    C8    A    
C21   H8    S    
C13   C14   S    
C25   H11   S    
C4    C5    A    
C11   C13   A    
C22   O5    A    
C26   H12   S    
O9    C29   S    
C5    C6    A    
C23   O8    A    
C16   C19   A    
C6    C23   S    
C18   N2    A    
C23   O7    A    
C22   O6    A    
C17   N1    A    
C2    C3    A    
C14   H16   S    
O5    Zn1   S    
O7    Zn1   S    
C2    C24   A    
C30   H19   S    
C18   H5    S    
O8    Zn2   S    
C24   C25   A    
C29   H17   S    
C10   C11   A    
C29   H18   S    
C3    C4    A    
O4    Zn2   S    
O1    Zn1   S    
C7    C13   A    
C21   H9    S    
C20   C21   S    
C15   H2    S    
C17   C18   A    
N3    H22   S    
C27   C28   A    
O2    Zn2   S    
C17   H4    S    
C14   C15   S    
C1    O1    A    
C9    N3    S    
C3    C12   S    
C25   C26   A    
O3    Zn1   S    
C20   H7    S    
C30   H20   S    
C6    C28   A    
C4    H1    S    
O6    Zn2   S    
N1    Zn2   S    
C10   H15   S    
C8    C9    A    
N3    H23   S    
