data_mof_unit_45758.cif
_audit_creation_date              2012-12-11T14:47:59-0500
_audit_creation_method            fapswitch 2.2
_symmetry_space_group_name_H-M    P1
_symmetry_Int_Tables_number       1
_space_group_crystal_system       triclinic
_cell_length_a                    11.534094
_cell_length_b                    11.528064
_cell_length_c                    19.526255
_cell_angle_alpha                 90.424031
_cell_angle_beta                  89.792773
_cell_angle_gamma                 59.776378
_cell_volume                      2243.25601031

loop_
_atom_site_label
_atom_site_type_symbol
_atom_type_description
_atom_site_fract_x
_atom_site_fract_y
_atom_site_fract_z
_atom_type_partial_charge
C1    C     C_R   0.640420 0.117731 0.599209 0.559602
C2    C     C_1   0.641110 0.703770 0.667943 0.002182
C3    C     C_1   0.127342 0.198504 0.859370 0.002307
C4    C     C_1   0.171111 0.170467 0.727677 -0.031420
C5    C     C_1   0.150439 0.182111 0.798943 -0.032184
C6    C     C_1   0.194556 0.161332 0.667271 0.004650
C7    C     C_1   0.678513 0.191016 0.860890 0.002542
C8    C     C_1   0.658091 0.167601 0.729070 -0.031788
C9    C     C_1   0.665441 0.180866 0.800428 -0.031496
C10   C     C_1   0.652515 0.150251 0.668620 0.001718
C11   C     C_R   0.500487 0.809128 0.279236 -0.141257
C12   C     C_R   0.612529 0.745792 0.598569 0.558720
C13   C     C_R   0.523925 0.770974 0.210933 -0.145521
C14   C     C_R   0.655725 0.688176 0.187887 0.020585
C15   C     C_R   0.764123 0.655943 0.231017 -0.146805
C16   C     C_R   0.740456 0.696282 0.298631 -0.145957
C17   C     C_R   0.608570 0.768375 0.323516 0.031397
C18   C     C_R   0.183849 0.280286 0.296502 0.248570
C19   C     C_R   0.160894 0.290653 0.227554 -0.121040
C20   C     C_R   0.134152 0.201045 0.193529 -0.011687
C21   C     C_R   0.131618 0.096767 0.229110 -0.157523
C22   C     C_R   0.157971 0.082375 0.298829 -0.201107
C23   C     C_R   0.240361 0.145668 0.598052 0.547833
C24   C     C_R   0.188519 0.170928 0.332586 0.031045
C25   C     C_R   0.720917 0.007912 0.279785 -0.132509
C26   C     C_R   0.734444 0.032393 0.211218 -0.003232
C27   C     C_R   0.656429 0.167175 0.185994 0.028312
C28   C     C_R   0.547702 0.263788 0.226699 -0.031013
C29   C     C_R   0.538939 0.234404 0.295062 -0.103075
C30   C     C_R   0.629300 0.109548 0.322577 -0.005510
C31   C     C_R   0.082332 0.230965 0.928697 0.547561
C32   C     C_R   0.683746 0.605041 0.929578 0.540350
C33   C     C_R   0.708165 0.206598 0.930206 0.538863
C34   C     C_R   0.619858 0.080979 0.394611 0.540058
C35   C     C_R   0.081891 0.236209 0.125267 0.549990
C36   C     C_R   0.681093 0.615838 0.124075 0.537964
C37   C     C_R   0.704253 0.207640 0.124956 0.533899
C38   C     C_R   0.582689 0.801296 0.395408 0.544668
C39   C     C_R   0.244687 0.141524 0.401077 0.540147
C40   C     C_1   0.670494 0.647101 0.860206 0.001320
C41   C     C_1   0.654727 0.683780 0.728416 -0.032017
C42   C     C_1   0.663542 0.667127 0.799716 -0.031988
Cr1   Cr    Cr6+3 0.404720 0.198220 0.499960 1.030063
Cr2   Cr    Cr6+3 0.698290 0.897110 0.500380 1.002155
Cr3   Cr    Cr6+3 0.396970 0.904720 0.499610 1.015222
Cr4   Cr    Cr6+3 0.926180 0.152240 0.028110 1.007936
Cr5   Cr    Cr6+3 0.921340 0.452070 0.027460 0.995195
Cr6   Cr    Cr6+3 0.626260 0.447120 0.028700 1.010902
H1    H     H_    0.398835 0.865884 0.298207 0.122450
H2    H     H_    0.460576 0.310588 0.327084 0.187947
H3    H     H_    0.439838 0.798847 0.177175 0.124909
H4    H     H_    0.866897 0.592252 0.213836 0.122350
H5    H     H_    0.825120 0.666161 0.331920 0.113678
H6    H     H_    0.160219 0.372961 0.200963 0.121994
H7    H     H_    0.106731 0.028483 0.203562 0.136158
H8    H     H_    0.158851 0.000026 0.325677 0.127947
H9    H     H_    0.783816 0.909020 0.300627 0.117273
O1    O     O_R   0.267740 0.231990 0.575440 -0.508754
O2    O     O_R   0.685970 0.784630 0.430010 -0.529973
O3    O     O_R   0.502530 0.766960 0.423990 -0.504419
O4    O     O_R   0.288330 0.026310 0.429250 -0.533772
O5    O     O_3   0.499990 0.000020 0.499980 -0.290950
O6    O     O_R   0.821500 0.119550 0.952820 -0.513286
O7    O     O_R   0.037130 0.162750 0.957360 -0.493668
O8    O     O_R   0.056440 0.344950 0.951330 -0.506061
O9    O     O_R   0.797900 0.560570 0.957460 -0.503359
O10   O     O_R   0.596140 0.579600 0.952720 -0.504788
O11   O     O_R   0.639070 0.321380 0.958660 -0.494953
O12   O     O_R   0.527280 0.186680 0.570530 -0.487930
O13   O     O_R   0.821240 0.124490 0.104360 -0.528011
O14   O     O_R   0.036900 0.167320 0.097830 -0.502575
O15   O     O_R   0.056190 0.349890 0.102870 -0.534787
O16   O     O_R   0.797670 0.565150 0.097930 -0.513054
O17   O     O_R   0.595880 0.584540 0.104260 -0.527555
O18   O     O_R   0.638830 0.325960 0.099140 -0.505641
O19   O     O_3   0.824590 0.350480 0.028090 -0.237843
O20   O     O_R   0.728090 0.003480 0.576380 -0.500091
O21   O     O_R   0.682970 0.789220 0.570490 -0.489802
O22   O     O_R   0.499290 0.771920 0.575530 -0.497583
O23   O     O_R   0.285330 0.030900 0.569730 -0.490768
O24   O     O_R   0.270980 0.227040 0.423900 -0.468294
O25   O     O_R   0.530280 0.182090 0.430050 -0.495186
O26   O     O_R   0.731330 0.998530 0.424830 -0.521256
C43   C     C_3   0.836573 0.911548 0.168915 -0.230743
C44   C     C_3   0.775804 0.889741 0.103494 -0.278215
C45   C     C_3   0.884523 0.780007 0.058346 -0.410616
H10   H     H_    0.955185 0.812053 0.039851 0.143640
H11   H     H_    0.941478 0.685383 0.087386 0.159209
H12   H     H_    0.837675 0.761153 0.013297 0.161530
H13   H     H_    0.700397 0.861302 0.117547 0.157797
H14   H     H_    0.722902 0.982447 0.072871 0.175272
H15   H     H_    0.926595 0.919481 0.157522 0.166916
H16   H     H_    0.877090 0.817882 0.199133 0.111334
C46   C     C_3   0.432342 0.393534 0.199707 -0.246908
C47   C     C_3   0.430511 0.517926 0.229335 -0.270899
C48   C     C_3   0.303467 0.646033 0.207963 -0.454787
H17   H     H_    0.305244 0.660884 0.151916 0.157324
H18   H     H_    0.212582 0.640647 0.221346 0.138841
H19   H     H_    0.296478 0.733908 0.235416 0.136836
H20   H     H_    0.433280 0.514373 0.286116 0.154455
H21   H     H_    0.520665 0.520169 0.211676 0.209939
H22   H     H_    0.427781 0.396766 0.143138 0.162086
H23   H     H_    0.338311 0.397535 0.215483 0.161726
O27   O     O_3   0.222551 0.365380 0.325485 -0.573677
C49   C     C_3   0.108924 0.492233 0.338640 0.005594
H24   H     H_    0.031628 0.482360 0.368362 0.140929
H25   H     H_    0.065830 0.544687 0.289605 0.105631
C50   C     C_3   0.152572 0.575356 0.381143 -0.259517
H26   H     H_    0.187832 0.528040 0.431980 0.178254
H27   H     H_    0.237258 0.577025 0.354938 0.167282
C51   C     C_3   0.038488 0.719446 0.391276 -0.464992
H28   H     H_    0.005805 0.769503 0.340976 0.134272
H29   H     H_    0.073657 0.775936 0.422942 0.155050
H30   H     H_    0.952477 0.721143 0.417920 0.177465

loop_
_geom_bond_atom_site_label_1
_geom_bond_atom_site_label_2
_ccdc_geom_bond_type
C23   O1    A    
C48   H19   S    
Cr3   O3    S    
C1    O20   A    
C41   C42   S    
Cr6   O19   S    
C47   C48   S    
Cr2   O26   S    
C2    C12   S    
Cr4   O19   S    
C44   H14   S    
C51   H29   S    
C44   C45   S    
C49   H25   S    
C26   C27   A    
C18   C24   A    
C28   C29   A    
Cr5   O19   S    
C14   C36   S    
C45   H11   S    
Cr2   O2    S    
C15   C16   A    
C12   O22   A    
Cr3   O5    S    
C24   C39   S    
C50   H26   S    
C28   C46   S    
C18   C19   A    
C16   H5    S    
Cr1   O1    S    
C13   H3    S    
C20   C35   S    
C19   C20   A    
C48   H18   S    
C8    C9    S    
C12   O21   A    
Cr1   O5    S    
C13   C14   A    
C23   O23   A    
Cr3   O23   S    
Cr5   O9    S    
C17   C38   S    
C40   C42   T    
C37   O18   A    
C35   O14   A    
Cr1   O12   S    
C21   C22   A    
C7    C33   S    
Cr6   O18   S    
C25   H9    S    
O27   C49   S    
C29   H2    S    
C39   O4    A    
C49   C50   S    
C30   C34   S    
Cr6   O17   S    
C43   C44   S    
C39   O24   A    
C4    C6    T    
C21   H7    S    
C31   O8    A    
C45   H10   S    
C16   C17   A    
C22   H8    S    
Cr2   O5    S    
C25   C26   A    
C1    O12   A    
Cr4   O7    S    
C29   C30   A    
C11   H1    S    
C33   O6    A    
C48   H17   S    
Cr3   O22   S    
C18   O27   S    
C15   H4    S    
Cr6   O11   S    
C3    C31   S    
Cr5   O16   S    
Cr4   O14   S    
C36   O17   A    
C32   O10   A    
C38   O3    A    
C19   H6    S    
C46   H23   S    
Cr1   O24   S    
C22   C24   A    
C34   O26   A    
C32   O9    A    
C25   C30   A    
C7    C9    T    
C11   C17   A    
C26   C43   S    
C51   H28   S    
C47   H20   S    
C31   O7    A    
C1    C10   S    
C4    C5    S    
C3    C5    T    
C45   H12   S    
C35   O15   A    
C44   H13   S    
C34   O25   A    
C49   H24   S    
C50   C51   S    
Cr4   O6    S    
Cr2   O21   S    
C2    C41   T    
C11   C13   A    
Cr2   O20   S    
C27   C37   S    
C6    C23   S    
Cr3   O4    S    
C50   H27   S    
C51   H30   S    
C43   H16   S    
C32   C40   S    
Cr6   O10   S    
C46   C47   S    
Cr5   O15   S    
Cr4   O13   S    
C36   O16   A    
C38   O2    A    
C20   C21   A    
C46   H22   S    
C8    C10   T    
C27   C28   A    
Cr1   O25   S    
C14   C15   A    
C43   H15   S    
C37   O13   A    
Cr5   O8    S    
C47   H21   S    
C33   O11   A    
