data_mof_unit_57014.cif
_audit_creation_date              2012-12-11T15:21:43-0500
_audit_creation_method            fapswitch 2.2
_symmetry_space_group_name_H-M    P1
_symmetry_Int_Tables_number       1
_space_group_crystal_system       triclinic
_cell_length_a                    19.295542
_cell_length_b                    7.146843
_cell_length_c                    17.862182
_cell_angle_alpha                 89.576358
_cell_angle_beta                  108.792287
_cell_angle_gamma                 90.415513
_cell_volume                      2331.83122342

loop_
_atom_site_label
_atom_site_type_symbol
_atom_type_description
_atom_site_fract_x
_atom_site_fract_y
_atom_site_fract_z
_atom_type_partial_charge
O1    O     O_R   0.562310 0.505770 0.439670 -0.513252
O2    O     O_R   0.437690 0.005770 0.560330 -0.512940
O3    O     O_R   0.411650 0.169150 0.405330 -0.528007
O4    O     O_R   0.588350 0.669150 0.594670 -0.525819
C1    C     C_R   0.386135 0.345382 0.380880 0.779716
C2    C     C_R   0.614090 0.845203 0.618924 0.788290
O5    O     O_R   0.560140 0.175610 0.430010 -0.509149
O6    O     O_R   0.439860 0.675610 0.569990 -0.512448
O7    O     O_R   0.587240 0.012100 0.585200 -0.540728
O8    O     O_R   0.412760 0.512100 0.414800 -0.540357
C3    C     C_R   0.582047 0.346832 0.416238 0.807177
C4    C     C_R   0.417454 0.845052 0.583411 0.803783
O9    O     O_3   0.508720 0.341420 0.550890 -0.358027
O10   O     O_3   0.491280 0.841420 0.449110 -0.355254
V1    V     V_3+5 0.498380 0.063930 0.490560 1.729579
V2    V     V_3+5 0.501620 0.563930 0.509440 1.726981
C5    C     C_R   0.206154 0.908391 0.899245 -0.175537
C6    C     C_R   0.797493 0.441983 0.105504 -0.165785
C7    C     C_R   0.129637 0.917392 0.863128 -0.202779
C8    C     C_R   0.872946 0.406223 0.139591 -0.211097
C9    C     C_R   0.101118 0.910465 0.779253 0.432266
C10   C     C_R   0.898551 0.343131 0.219898 0.389292
C11   C     C_R   0.148363 0.871904 0.734316 -0.024852
C12   C     C_R   0.851845 0.355581 0.267209 -0.018257
C13   C     C_R   0.224912 0.875630 0.771079 -0.028629
C14   C     C_R   0.776338 0.387525 0.231310 -0.030429
C15   C     C_R   0.254713 0.893724 0.854303 -0.012786
C16   C     C_R   0.747932 0.421003 0.148969 -0.018344
C17   C     C_R   0.120947 0.834540 0.652526 -0.090741
C18   C     C_R   0.879059 0.339519 0.350365 -0.081705
C19   C     C_R   0.166898 0.816619 0.606568 0.180079
C20   C     C_R   0.832666 0.333743 0.396224 0.168350
C21   C     C_R   0.243362 0.833278 0.641731 0.068660
C22   C     C_R   0.756458 0.346264 0.359963 0.065390
C23   C     C_R   0.271849 0.867450 0.723807 0.008187
C24   C     C_R   0.728969 0.384817 0.278140 0.013369
C25   C     C_R   0.346969 0.905856 0.757962 -0.090368
C26   C     C_R   0.654526 0.429518 0.243823 -0.104224
C27   C     C_R   0.376467 0.913129 0.840137 -0.118598
C28   C     C_R   0.626007 0.446738 0.161815 -0.174810
C29   C     C_R   0.332313 0.897196 0.888689 0.436972
C30   C     C_R   0.670766 0.435183 0.114009 0.438166
C31   C     C_R   0.292527 0.816051 0.598075 -0.186579
C32   C     C_R   0.706740 0.323727 0.402640 -0.189539
C33   C     C_R   0.367469 0.858746 0.632184 -0.142795
C34   C     C_R   0.632159 0.365972 0.367957 -0.129748
C35   C     C_R   0.390853 0.936674 0.709010 0.442063
C36   C     C_R   0.610025 0.452586 0.292333 0.413024
H1    H     H_    0.226733 0.922371 0.962516 0.207981
H2    H     H_    0.778169 0.484963 0.044440 0.210455
H3    H     H_    0.063023 0.817300 0.622621 0.205883
H4    H     H_    0.937192 0.337277 0.381490 0.229809
H5    H     H_    0.272462 0.781980 0.536251 0.184627
H6    H     H_    0.726006 0.283547 0.464061 0.187720
H7    H     H_    0.435142 0.923044 0.867134 0.214800
H8    H     H_    0.567502 0.459002 0.134076 0.222968
C37   C     C_3   0.758246 0.767465 0.836651 0.004155
C38   C     C_3   0.240042 0.258310 0.165481 0.007458
H9    H     H_    0.786791 0.630354 0.849785 0.096363
H10   H     H_    0.209774 0.122771 0.157574 0.090798
C39   C     C_3   0.685689 0.732706 0.764419 0.306891
C40   C     C_3   0.313401 0.228152 0.237115 0.293582
H11   H     H_    0.688326 0.585827 0.746103 0.082954
H12   H     H_    0.311083 0.082624 0.257967 0.078723
H13   H     H_    0.857285 0.705345 0.754447 0.206853
H14   H     H_    0.141067 0.223095 0.249856 0.238122
C41   C     C_3   0.825004 0.836366 0.739343 -0.334645
C42   C     C_3   0.175176 0.350756 0.261645 -0.301490
C43   C     C_3   0.769287 0.097303 0.791085 -0.342283
C44   C     C_3   0.234486 0.595128 0.203434 -0.355803
C45   C     C_3   0.810493 0.910391 0.814266 -0.103594
C46   C     C_3   0.190218 0.410972 0.184868 -0.116450
H15   H     H_    0.803909 0.199511 0.771667 0.204486
H16   H     H_    0.201282 0.706332 0.218666 0.183072
H17   H     H_    0.758369 0.160164 0.842896 0.196206
H18   H     H_    0.247593 0.645508 0.150477 0.207031
C47   C     C_3   0.684643 0.860813 0.691913 -0.152998
C48   C     C_3   0.315762 0.361483 0.307693 -0.165004
C49   C     C_3   0.753535 0.805142 0.668400 0.187526
C50   C     C_3   0.246402 0.312287 0.331984 0.196747
C51   C     C_3   0.696119 0.067463 0.723319 -0.289286
C52   C     C_3   0.306166 0.566950 0.273535 -0.280607
H19   H     H_    0.650720 0.107837 0.744997 0.255211
H20   H     H_    0.352377 0.605015 0.252687 0.258161
H21   H     H_    0.694698 0.166120 0.674786 0.196739
H22   H     H_    0.306792 0.668639 0.320378 0.190001
H23   H     H_    0.858423 0.941184 0.721081 0.265404
H24   H     H_    0.143707 0.464401 0.277310 0.236577
O11   O     O_R   0.087220 0.271820 0.085230 -0.531052
O12   O     O_R   0.912780 0.771820 0.914770 -0.549882
O13   O     O_R   0.939860 0.595540 0.069990 -0.544321
O14   O     O_R   0.060140 0.095540 0.930010 -0.508945
C53   C     C_R   0.921240 0.424172 0.088005 0.772472
C54   C     C_R   0.081176 0.927143 0.914566 0.796064
O15   O     O_R   0.088340 0.601930 0.094680 -0.547760
O16   O     O_R   0.911660 0.101930 0.905320 -0.523656
O17   O     O_R   0.062310 0.765410 0.939660 -0.537355
O18   O     O_R   0.937690 0.265410 0.060340 -0.519051
C55   C     C_R   0.116680 0.431899 0.116884 0.755665
C56   C     C_R   0.883732 0.931647 0.882564 0.785671
O19   O     O_3   0.991270 0.429630 0.949130 -0.368119
O20   O     O_3   0.008730 0.929630 0.050870 -0.388360
V3    V     V_3+5 0.001620 0.707150 0.009440 1.511702
V4    V     V_3+5 0.998380 0.207150 0.990560 1.595406
I1    I     I_    0.749131 0.842164 0.951139 -0.237117
I2    I     I_    0.247859 0.306683 0.047866 -0.212754
S1    S     S_3+6 0.602618 0.728219 0.789932 0.070341
O21   O     O_2   0.536435 0.711090 0.718214 -0.344247
O22   O     O_2   0.605204 0.556160 0.838928 -0.267430
O23   O     O_3   0.594143 0.919181 0.840499 -0.452620
H25   H     H_    0.557769 0.884102 0.866575 0.409351
S2    S     S_3+6 0.395751 0.220974 0.210125 0.091501
O24   O     O_2   0.462675 0.207876 0.281301 -0.330644
O25   O     O_2   0.391957 0.045855 0.163507 -0.253936
O26   O     O_3   0.403999 0.408194 0.156201 -0.453782
H26   H     H_    0.443053 0.375008 0.133906 0.410063
I3    I     I_    0.751625 0.520052 0.628429 -0.397973
I4    I     I_    0.243880 0.026213 0.372304 -0.365738
S3    S     S_3+6 0.008897 0.970275 0.728622 -0.018156
O27   O     O_2   0.975267 0.075603 0.780344 -0.348281
O28   O     O_2   0.006042 0.093693 0.659211 -0.305638
O29   O     O_3   0.962588 0.770380 0.696493 -0.516733
H27   H     H_    0.933769 0.793521 0.640375 0.386691
S4    S     S_3+6 0.984665 0.231925 0.261806 -0.014845
O30   O     O_2   0.037790 0.374323 0.309530 -0.321272
O31   O     O_2   0.978012 0.076686 0.316526 -0.311990
O32   O     O_3   0.016464 0.137322 0.193913 -0.514254
H28   H     H_    0.997825 0.006942 0.187994 0.360198
I5    I     I_    0.759674 0.957314 0.566536 -0.310038
I6    I     I_    0.243846 0.463484 0.433950 -0.267897
I7    I     I_    0.112624 0.787925 0.483312 -0.113418
I8    I     I_    0.884659 0.332806 0.520190 -0.139411
S5    S     S_3+6 0.447575 0.140736 0.726411 0.057150
O33   O     O_2   0.516440 0.106936 0.707183 -0.307476
O34   O     O_2   0.405210 0.292007 0.672215 -0.323402
O35   O     O_3   0.469647 0.217153 0.820080 -0.471516
H29   H     H_    0.479479 0.352769 0.817298 0.424097
S6    S     S_3+6 0.551389 0.651179 0.275622 0.065298
O36   O     O_2   0.481997 0.602887 0.291716 -0.303000
O37   O     O_2   0.590088 0.800784 0.332958 -0.319746
O38   O     O_3   0.530033 0.739833 0.183511 -0.445432
H30   H     H_    0.571176 0.824588 0.184512 0.375331
S7    S     S_3+6 0.379266 0.893432 0.991178 0.116200
O39   O     O_2   0.453031 0.804675 0.006378 -0.275113
O40   O     O_2   0.390329 0.093066 0.017985 -0.246928
O41   O     O_3   0.333111 0.772824 0.041340 -0.493377
H31   H     H_    0.370745 0.730579 0.090508 0.432305
S8    S     S_3+6 0.624935 0.432427 0.011506 0.097404
O42   O     O_2   0.552434 0.333929 0.995398 -0.282700
O43   O     O_2   0.610818 0.632017 0.984696 -0.254719
O44   O     O_3   0.674018 0.323026 0.962312 -0.491295
H32   H     H_    0.639984 0.232243 0.927216 0.415565

loop_
_geom_bond_atom_site_label_1
_geom_bond_atom_site_label_2
_ccdc_geom_bond_type
C38   C40   S    
S7    O41   S    
C37   I1    S    
C8    C53   S    
C42   C50   S    
H14   C42   S    
O1    C3    A    
S8    O44   S    
C30   S8    S    
C2    O7    A    
S2    O25   D    
C27   C29   A    
O5    C3    A    
O11   C55   A    
C11   C17   A    
C23   C25   A    
C12   C14   A    
C29   S7    S    
O15   C55   A    
C37   H9    S    
C38   H10   S    
S7    O39   D    
C49   I5    S    
O16   C56   A    
C6    C8    A    
C39   H11   S    
C43   C45   S    
C15   C29   A    
O23   H25   S    
C19   I7    S    
C5    C7    A    
C31   H5    S    
C27   H7    S    
C39   C47   S    
H13   C41   S    
C44   H16   S    
S5    O35   S    
C40   H12   S    
S1    O21   D    
C19   C21   A    
C43   H15   S    
C25   C35   A    
C5    C15   A    
C26   C36   A    
C42   C46   S    
C33   C35   A    
O44   H32   S    
O2    C4    A    
O6    V2    S    
C35   S5    S    
S1    O22   D    
C44   C52   S    
O12   C56   A    
S2    O24   D    
C51   H19   S    
O15   V3    S    
C34   C36   A    
O29   H27   S    
S3    O28   D    
C50   I4    S    
C50   I6    S    
C21   C31   A    
C6    C16   A    
S8    O42   D    
O4    C2    A    
C5    H1    S    
C4    C33   S    
C2    C47   S    
O5    V1    S    
C32   C34   A    
C54   O17   A    
C28   H8    S    
C52   H22   S    
C38   I2    S    
C20   C22   A    
O4    V2    S    
C18   C20   A    
O13   C53   A    
C48   C52   S    
C28   C30   A    
C47   C51   S    
O6    C4    A    
O14   C54   A    
C48   C50   S    
C41   C49   S    
O1    V2    S    
C37   C45   S    
C10   S4    S    
O2    V1    S    
C31   C33   A    
O17   V3    S    
C7    C54   S    
S6    O37   D    
C13   C23   A    
S4    O32   S    
S8    O43   D    
C14   C24   A    
C8    C10   A    
O19   V4    S    
C52   H20   S    
O16   V4    S    
O11   V4    S    
C44   H18   S    
S5    O33   D    
C42   H24   S    
S1    O23   S    
C10   C12   A    
O32   H28   S    
C20   I8    S    
O3    V1    S    
C6    H2    S    
S4    O31   D    
O41   H31   S    
C17   H3    S    
S3    O29   S    
S7    O40   D    
C22   C32   A    
C18   H4    S    
C9    S3    S    
C7    C9    A    
C14   C16   A    
C40   C48   S    
O13   V3    S    
O35   H29   S    
O3    C1    A    
S6    O38   S    
S3    O27   D    
C37   C39   S    
C13   C15   A    
C45   C56   S    
C41   H23   S    
C36   S6    S    
C9    C11   A    
O7    V1    S    
C1    O8    A    
C25   C27   A    
O8    V2    S    
O38   H30   S    
C24   C26   A    
C26   C28   A    
C38   C46   S    
O18   V4    S    
C49   I3    S    
C16   C30   A    
C21   C23   A    
C22   C24   A    
C43   H17   S    
C41   C45   S    
C11   C13   A    
O20   V3    S    
C39   S1    S    
C12   C18   A    
O12   V3    S    
C43   C51   S    
S6    O36   D    
O14   V4    S    
C47   C49   S    
C32   H6    S    
C40   S2    S    
C17   C19   A    
O9    V2    S    
S5    O34   D    
O10   V1    S    
C3    C34   S    
C44   C46   S    
C1    C48   S    
C53   O18   A    
S2    O26   S    
C51   H21   S    
O26   H26   S    
S4    O30   D    
C46   C55   S    
