data_mof_unit_38410.cif
_audit_creation_date              2013-03-05T15:40:13-0500
_audit_creation_method            fapswitch 2.2
_symmetry_space_group_name_H-M    P1
_symmetry_Int_Tables_number       1
_space_group_crystal_system       triclinic
_cell_length_a                    12.104402
_cell_length_b                    12.111945
_cell_length_c                    24.672856
_cell_angle_alpha                 89.970884
_cell_angle_beta                  90.017121
_cell_angle_gamma                 89.948956
_cell_volume                      3617.23233865

loop_
_atom_site_label
_atom_site_type_symbol
_atom_site_description
_atom_site_fract_x
_atom_site_fract_y
_atom_site_fract_z
_atom_type_partial_charge
O1    O     O_R   0.907020 0.615090 0.941240 -0.532215
O2    O     O_R   0.092980 0.384910 0.058760 -0.531023
O3    O     O_R   0.384910 0.907020 0.441240 -0.531564
O4    O     O_R   0.615090 0.092980 0.558760 -0.533290
O5    O     O_R   0.092980 0.384910 0.941240 -0.532042
O6    O     O_R   0.907020 0.615090 0.058760 -0.531034
O7    O     O_R   0.615090 0.092980 0.441240 -0.531293
O8    O     O_R   0.384910 0.907020 0.558760 -0.532516
O9    O     O_R   0.907020 0.384910 0.058760 -0.519867
O10   O     O_R   0.092980 0.615090 0.941240 -0.526728
O11   O     O_R   0.384910 0.092980 0.558760 -0.525730
O12   O     O_R   0.615090 0.907020 0.441240 -0.518999
O13   O     O_R   0.092980 0.615090 0.058760 -0.519863
O14   O     O_R   0.907020 0.384910 0.941240 -0.526789
O15   O     O_R   0.615090 0.907020 0.558760 -0.524747
O16   O     O_R   0.384910 0.092980 0.441240 -0.519640
C1    C     C_3   0.999938 0.999889 0.249966 0.069564
C2    C     C_3   0.000150 0.000307 0.750015 0.077192
C3    C     C_R   0.993381 0.105567 0.210330 -0.161615
C4    C     C_R   0.001397 0.897687 0.791169 -0.157405
C5    C     C_R   0.897592 0.998594 0.708843 -0.157394
C6    C     C_R   0.105583 0.006447 0.289623 -0.162052
C7    C     C_R   0.006535 0.894302 0.210315 -0.161639
C8    C     C_R   0.998690 0.103209 0.790922 -0.163174
C9    C     C_R   0.102925 0.001782 0.709019 -0.161179
C10   C     C_R   0.894294 0.993296 0.289624 -0.161925
Cu1   Cu    Cu3+1 0.889520 0.500000 0.000000 1.292053
Cu2   Cu    Cu3+1 0.110480 0.500000 0.000000 1.292110
Cu3   Cu    Cu3+1 0.500000 0.889520 0.500000 1.290984
Cu4   Cu    Cu3+1 0.500000 0.110480 0.500000 1.289191
C11   C     C_R   0.999906 0.652219 0.922410 0.866993
C12   C     C_R   0.999110 0.350437 0.078788 0.912136
C13   C     C_R   0.350485 0.000944 0.421195 0.911466
C14   C     C_R   0.652423 0.999982 0.577478 0.867000
C15   C     C_R   0.000085 0.348003 0.922327 0.867341
C16   C     C_R   0.000903 0.649557 0.078786 0.912197
C17   C     C_R   0.649562 0.999076 0.421225 0.912056
C18   C     C_R   0.347900 0.999979 0.577618 0.868700
C19   C     C_R   0.068236 0.200480 0.211757 0.320381
C20   C     C_R   0.910470 0.820949 0.799782 0.293516
C21   C     C_R   0.820669 0.089279 0.699990 0.299939
C22   C     C_R   0.200729 0.931754 0.288210 0.320659
C23   C     C_R   0.931803 0.799315 0.211759 0.320430
C24   C     C_R   0.089660 0.179893 0.799585 0.296486
C25   C     C_R   0.180090 0.911185 0.700535 0.309453
C26   C     C_R   0.799175 0.068039 0.288188 0.320439
C27   C     C_R   0.087287 0.889780 0.832034 0.236147
C28   C     C_R   0.920221 0.101277 0.163624 0.251501
C29   C     C_R   0.898856 0.920189 0.336350 0.251362
C30   C     C_R   0.110677 0.087737 0.668198 0.217682
C31   C     C_R   0.912532 0.111365 0.831591 0.236439
C32   C     C_R   0.079648 0.898738 0.163609 0.251422
C33   C     C_R   0.101058 0.079587 0.336294 0.251213
C34   C     C_R   0.890033 0.912374 0.668167 0.225871
C35   C     C_R   0.074164 0.276604 0.167893 0.312666
C36   C     C_R   0.901372 0.764055 0.849629 0.287369
C37   C     C_R   0.764440 0.098311 0.649996 0.301970
C38   C     C_R   0.276938 0.925959 0.332063 0.312811
C39   C     C_R   0.925941 0.723205 0.167915 0.312376
C40   C     C_R   0.098679 0.236759 0.849420 0.289378
C41   C     C_R   0.236823 0.901913 0.650679 0.308460
C42   C     C_R   0.723095 0.073978 0.332065 0.312642
C43   C     C_R   0.097416 0.795239 0.864570 0.349593
C44   C     C_R   0.908667 0.191705 0.128593 0.335780
C45   C     C_R   0.808557 0.908719 0.371470 0.336993
C46   C     C_R   0.205103 0.097684 0.635570 0.351158
C47   C     C_R   0.902492 0.205871 0.864078 0.348881
C48   C     C_R   0.091203 0.808423 0.128541 0.335705
C49   C     C_R   0.191442 0.091202 0.371361 0.335941
C50   C     C_R   0.795791 0.902280 0.635355 0.328887
C51   C     C_R   0.994322 0.271965 0.125705 -0.320876
C52   C     C_R   0.999586 0.737584 0.878681 -0.352740
C53   C     C_R   0.738047 0.000118 0.621086 -0.350846
C54   C     C_R   0.272050 0.005749 0.374240 -0.320525
C55   C     C_R   0.005689 0.728004 0.125698 -0.320940
C56   C     C_R   0.000406 0.263125 0.878419 -0.353360
C57   C     C_R   0.262816 0.999869 0.621452 -0.359566
C58   C     C_R   0.728014 0.994250 0.374302 -0.320611
S1    S     S_3+6 0.183465 0.378991 0.165495 0.153762
O17   O     O_2   0.260994 0.348696 0.120269 -0.196936
O18   O     O_2   0.132787 0.489748 0.153946 -0.275888
O19   O     O_3   0.261818 0.393826 0.221281 -0.385929
H1    H     H_    0.314105 0.454162 0.212567 0.394584
S2    S     S_3+6 0.764960 0.727775 0.872939 0.165690
O20   O     O_2   0.748094 0.605630 0.866523 -0.157653
O21   O     O_2   0.753470 0.757847 0.931868 -0.233818
O22   O     O_3   0.662762 0.792118 0.839184 -0.387103
H2    H     H_    0.629980 0.845199 0.865142 0.396622
S3    S     S_3+6 0.728791 0.234696 0.626450 0.165303
O23   O     O_2   0.758735 0.245745 0.567526 -0.211826
O24   O     O_2   0.606766 0.252590 0.633487 -0.192443
O25   O     O_3   0.795549 0.335803 0.659492 -0.370152
H3    H     H_    0.767195 0.405373 0.643562 0.403090
S4    S     S_3+6 0.379638 0.816788 0.334496 0.153622
O26   O     O_2   0.490326 0.867436 0.346102 -0.274819
O27   O     O_2   0.349366 0.739202 0.379698 -0.198777
O28   O     O_3   0.394809 0.738633 0.278702 -0.385494
H4    H     H_    0.453677 0.684841 0.287857 0.394416
S5    S     S_3+6 0.816800 0.620659 0.165558 0.153807
O29   O     O_2   0.739121 0.650897 0.120347 -0.196759
O30   O     O_2   0.867626 0.510000 0.154011 -0.276014
O31   O     O_3   0.738603 0.605629 0.221368 -0.385772
H5    H     H_    0.686438 0.545175 0.212692 0.394772
S6    S     S_3+6 0.235074 0.273256 0.872758 0.165200
O32   O     O_2   0.251522 0.395518 0.866537 -0.159662
O33   O     O_2   0.246777 0.242712 0.931639 -0.233232
O34   O     O_3   0.337491 0.209591 0.838919 -0.387421
H6    H     H_    0.370446 0.156357 0.864785 0.396715
S7    S     S_3+6 0.273826 0.765584 0.627739 0.157764
O35   O     O_2   0.243547 0.752668 0.568958 -0.204348
O36   O     O_2   0.396201 0.749714 0.634611 -0.203907
O37   O     O_3   0.208582 0.664357 0.661434 -0.385723
H7    H     H_    0.253786 0.597375 0.655246 0.385532
S8    S     S_3+6 0.620476 0.183228 0.334445 0.153725
O38   O     O_2   0.509762 0.132643 0.346054 -0.275122
O39   O     O_2   0.650825 0.260764 0.379625 -0.197936
O40   O     O_3   0.605327 0.261439 0.278625 -0.385692
H8    H     H_    0.545959 0.314754 0.287617 0.394420
S9    S     S_3+6 0.235015 0.749697 0.882352 0.167579
O41   O     O_2   0.252428 0.750500 0.942411 -0.198399
O42   O     O_2   0.249322 0.633779 0.861830 -0.186078
O43   O     O_3   0.336638 0.826868 0.855999 -0.391005
H9    H     H_    0.405805 0.787163 0.865078 0.396123
S10   S     S_3+6 0.791735 0.191746 0.083497 0.166710
O44   O     O_2   0.729980 0.299282 0.087115 -0.193666
O45   O     O_2   0.837120 0.175517 0.027544 -0.233380
O46   O     O_3   0.698323 0.091923 0.095466 -0.371903
H10   H     H_    0.647935 0.093662 0.063832 0.398185
S11   S     S_3+6 0.809181 0.792249 0.416837 0.164861
O47   O     O_2   0.825700 0.838172 0.472661 -0.237947
O48   O     O_2   0.701784 0.730294 0.413516 -0.192798
O49   O     O_3   0.909246 0.698886 0.404954 -0.372359
H11   H     H_    0.908075 0.648998 0.436777 0.396587
S12   S     S_3+6 0.250375 0.235078 0.617658 0.164540
O50   O     O_2   0.366506 0.249648 0.637946 -0.185738
O51   O     O_2   0.248906 0.252192 0.557574 -0.203302
O52   O     O_3   0.173054 0.336484 0.644139 -0.383894
H12   H     H_    0.205684 0.405706 0.630039 0.381740
S13   S     S_3+6 0.764980 0.251527 0.881796 0.168082
O53   O     O_2   0.747278 0.249223 0.941823 -0.198581
O54   O     O_2   0.751214 0.367994 0.861886 -0.184535
O55   O     O_3   0.663278 0.175408 0.854805 -0.390864
H13   H     H_    0.594175 0.215007 0.864069 0.396274
S14   S     S_3+6 0.207721 0.808906 0.083221 0.166796
O56   O     O_2   0.269754 0.701482 0.086526 -0.193390
O57   O     O_2   0.161663 0.825563 0.027407 -0.233953
O58   O     O_3   0.301116 0.908764 0.095135 -0.371849
H14   H     H_    0.350969 0.907599 0.063307 0.398239
S15   S     S_3+6 0.190825 0.207706 0.416631 0.166964
O59   O     O_2   0.174251 0.161745 0.472455 -0.233532
O60   O     O_2   0.298235 0.269641 0.413330 -0.194035
O61   O     O_3   0.090773 0.301078 0.404663 -0.371419
H15   H     H_    0.091921 0.350952 0.436466 0.398809
S16   S     S_3+6 0.750328 0.764725 0.617711 0.168275
O62   O     O_2   0.634528 0.750280 0.638366 -0.149161
O63   O     O_2   0.749683 0.747389 0.557601 -0.220887
O64   O     O_3   0.827084 0.662594 0.644303 -0.392009
H16   H     H_    0.874532 0.635459 0.614417 0.396543
N1    N     N_R   0.145225 0.219371 0.254836 0.134922
O65   O     O_R   0.129129 0.303285 0.286835 -0.183551
O66   O     O_R   0.244898 0.179506 0.251335 -0.263290
N2    N     N_R   0.833098 0.786501 0.758960 0.175959
O67   O     O_R   0.826181 0.680911 0.749818 -0.178277
O68   O     O_R   0.746643 0.845905 0.747694 -0.257353
N3    N     N_R   0.784813 0.166034 0.740756 0.173758
O69   O     O_R   0.678916 0.171970 0.749428 -0.199015
O70   O     O_R   0.843019 0.253087 0.752113 -0.255971
N4    N     N_R   0.219789 0.854854 0.245140 0.135078
O71   O     O_R   0.303710 0.870996 0.213123 -0.182699
O72   O     O_R   0.180127 0.755223 0.248667 -0.264049
N5    N     N_R   0.854873 0.780354 0.254846 0.135084
O73   O     O_R   0.871079 0.696469 0.286897 -0.183349
O74   O     O_R   0.755158 0.820118 0.251315 -0.262974
N6    N     N_R   0.167210 0.214259 0.758831 0.175588
O75   O     O_R   0.174309 0.319853 0.749676 -0.196330
O76   O     O_R   0.253637 0.154757 0.747691 -0.259549
N7    N     N_R   0.215484 0.834674 0.741552 0.171993
O77   O     O_R   0.321277 0.828712 0.750553 -0.203111
O78   O     O_R   0.157032 0.747800 0.752964 -0.260574
N8    N     N_R   0.779984 0.144836 0.245050 0.135290
O79   O     O_R   0.695900 0.128649 0.213126 -0.182505
O80   O     O_R   0.819658 0.244475 0.248464 -0.264077
N9    N     N_R   0.160859 0.978130 0.844947 0.109510
O81   O     O_R   0.162942 0.013857 0.894681 -0.299248
O82   O     O_R   0.245189 0.998287 0.814233 -0.246219
N10   N     N_R   0.866131 0.000991 0.146408 0.126706
O83   O     O_R   0.783559 0.960004 0.173116 -0.238069
O84   O     O_R   0.887342 0.961070 0.098493 -0.290890
N11   N     N_R   0.999342 0.866062 0.353487 0.126901
O85   O     O_R   0.039649 0.887423 0.401318 -0.292411
O86   O     O_R   0.040179 0.783371 0.326810 -0.237692
N12   N     N_R   0.022500 0.162015 0.655639 0.118573
O87   O     O_R   0.002244 0.245450 0.686911 -0.211462
O88   O     O_R   0.987119 0.165729 0.605848 -0.277331
N13   N     N_R   0.838794 0.023118 0.844492 0.109593
O89   O     O_R   0.836600 0.987360 0.894237 -0.299943
O90   O     O_R   0.754457 0.003114 0.813744 -0.245607
N14   N     N_R   0.133697 0.999099 0.146436 0.126596
O91   O     O_R   0.216430 0.039876 0.173107 -0.237895
O92   O     O_R   0.112289 0.039300 0.098572 -0.291448
N15   N     N_R   0.000602 0.133770 0.353373 0.126718
O93   O     O_R   0.960341 0.112512 0.401224 -0.291451
O94   O     O_R   0.959789 0.216448 0.326622 -0.237826
N16   N     N_R   0.978395 0.838188 0.655863 0.099925
O95   O     O_R   0.998588 0.754827 0.687244 -0.233247
O96   O     O_R   0.014473 0.834706 0.606200 -0.302345

loop_
_geom_bond_atom_site_label_1
_geom_bond_atom_site_label_2
_geom_bond_distance
_ccdc_geom_bond_type
N5    O73   1.301859 A    
N3    O69   1.301558 A    
C9    C25   1.455630 A    
O12   Cu3   2.022109 S    
C2    C5    1.603982 S    
C39   S5    1.815010 S    
N15   O93   1.303022 A    
O58   H14   0.990599 S    
S2    O22   1.681721 S    
O22   H2    0.990511 S    
C33   C49   1.401819 A    
C22   C38   1.423288 A    
S12   O52   1.676444 S    
S6    O33   1.505533 D    
O28   H4    0.991053 S    
C37   S3    1.802791 S    
C6    C22   1.464315 A    
C48   C55   1.423701 A    
C20   N2    1.437434 S    
N5    O74   1.302013 A    
O9    Cu1   2.021657 S    
C35   S1    1.815122 S    
C1    C7    1.612477 S    
C29   C45   1.401980 A    
C26   C42   1.423303 A    
C2    C8    1.604247 S    
O8    Cu3   2.022002 S    
S2    O21   1.505521 D    
N2    O67   1.301517 A    
S15   O60   1.503819 D    
C27   C43   1.403350 A    
C5    C34   1.451651 A    
N6    O75   1.301551 A    
S13   O55   1.676626 S    
C34   N16   1.429090 S    
C28   C44   1.401732 A    
C29   N11   1.444300 S    
O3    C13   1.307982 A    
O16   Cu4   2.021667 S    
O1    C11   1.297375 A    
C7    C23   1.464568 A    
O2    C12   1.307877 A    
C44   C51   1.423665 A    
C37   C53   1.423624 A    
O12   C17   1.289008 A    
O3    Cu3   2.021252 S    
C9    C30   1.451277 A    
S6    O32   1.502128 D    
O9    C12   1.288288 A    
C46   S12   1.807168 S    
O10   C11   1.298416 A    
O64   H16   0.990830 S    
C19   C35   1.423243 A    
N1    O65   1.301865 A    
O11   Cu4   2.022108 S    
C41   C57   1.423566 A    
O49   H11   0.990626 S    
N7    O78   1.299301 A    
C21   N3    1.436924 S    
O34   H6    0.990511 S    
N1    O66   1.302023 A    
O13   Cu2   2.022763 S    
C36   S2    1.803296 S    
N14   O91   1.296397 A    
O14   Cu1   2.022766 S    
S3    O24   1.502789 D    
C30   N12   1.429126 S    
O15   C14   1.298688 A    
S16   O63   1.498006 D    
C32   C48   1.401983 A    
C25   N7    1.436845 S    
S11   O49   1.682219 S    
C19   N1    1.431977 S    
C8    C31   1.450782 A    
N4    O72   1.301998 A    
N10   O83   1.296386 A    
C41   S7    1.802007 S    
N3    O70   1.299283 A    
O7    Cu4   2.022003 S    
N16   O95   1.295099 A    
N15   O94   1.296432 A    
O31   H5    0.990746 S    
C2    C9    1.603697 S    
O8    C18   1.297930 A    
S14   O58   1.682215 S    
O37   H7    0.990092 S    
C22   N4    1.432050 S    
O15   Cu3   2.021664 S    
C6    C33   1.454207 A    
N2    O68   1.299360 A    
S9    O42   1.502638 D    
O4    C14   1.297951 A    
C15   C56   1.493867 S    
S8    O40   1.681077 S    
C26   N8    1.431922 S    
S2    O20   1.502057 D    
S16   O64   1.679473 S    
C27   N9    1.428829 S    
C10   C29   1.454318 A    
O14   C15   1.298527 A    
S1    O18   1.501703 D    
C23   N5    1.432028 S    
C3    C28   1.454103 A    
S12   O51   1.496874 D    
S4    O28   1.681059 S    
C20   C36   1.413828 A    
C44   S10   1.800110 S    
C40   C56   1.424420 A    
C33   N15   1.444294 S    
S1    O17   1.503612 D    
N12   O88   1.301618 A    
C35   C51   1.421343 A    
O11   C18   1.298655 A    
N9    O81   1.301605 A    
C28   N10   1.444390 S    
Cu3   Cu4   2.676254 S    
C16   C55   1.499012 S    
O16   C13   1.289238 A    
O5    Cu2   2.022935 S    
C43   S9    1.807900 S    
S8    O39   1.503634 D    
O6    Cu1   2.022932 S    
C34   C50   1.404077 A    
S13   O53   1.496770 D    
C50   C53   1.419386 A    
O7    C17   1.308211 A    
C40   S6    1.803795 S    
C49   C54   1.423514 A    
C12   C51   1.498561 S    
O61   H15   0.990598 S    
S3    O25   1.679167 S    
S4    O27   1.503646 D    
C30   C46   1.403452 A    
S16   O62   1.501937 D    
C3    C19   1.464802 A    
O13   C16   1.288524 A    
S10   O46   1.682192 S    
C5    C21   1.455647 A    
S15   O61   1.682217 S    
S14   O57   1.498960 D    
N4    O71   1.301852 A    
S5    O30   1.501688 D    
N16   O96   1.301617 A    
O19   H1    0.990744 S    
S4    O26   1.501596 D    
C8    C24   1.456954 A    
N13   O90   1.294800 A    
S7    O37   1.679015 S    
C32   N14   1.444365 S    
C1    C10   1.612398 S    
N10   O84   1.303010 A    
O46   H10   0.990596 S    
C39   C55   1.421537 A    
C47   S13   1.807348 S    
N8    O79   1.301844 A    
C38   C54   1.421730 A    
S10   O45   1.498927 D    
S11   O47   1.499063 D    
C17   C58   1.498715 S    
S9    O43   1.676726 S    
O10   Cu2   2.021658 S    
C46   C57   1.418457 A    
C11   C52   1.493984 S    
C45   C58   1.423668 A    
N8    O80   1.302022 A    
C36   C52   1.424243 A    
C50   S16   1.808409 S    
C42   C58   1.421566 A    
C24   N6    1.437470 S    
S14   O56   1.503819 D    
S1    O19   1.681084 S    
C45   S11   1.800386 S    
S9    O41   1.496712 D    
C42   S8    1.815070 S    
S12   O50   1.502597 D    
C18   C57   1.493652 S    
C23   C39   1.423426 A    
O52   H12   0.990121 S    
C1    C6    1.611980 S    
S5    O29   1.503606 D    
C49   S15   1.800112 S    
N12   O87   1.295041 A    
S7    O36   1.503061 D    
O43   H9    0.990686 S    
C21   C37   1.412781 A    
C31   N13   1.428966 S    
S15   O59   1.498927 D    
S13   O54   1.502599 D    
C7    C32   1.454196 A    
C31   C47   1.402919 A    
C24   C40   1.413879 A    
C4    C20   1.456756 A    
O5    C15   1.297197 A    
C25   C41   1.413450 A    
O25   H3    0.990641 S    
C1    C3    1.612285 S    
O6    C16   1.307868 A    
C48   S14   1.800128 S    
C2    C4    1.604605 S    
S8    O38   1.501630 D    
C38   S4    1.815020 S    
N11   O85   1.303030 A    
N6    O76   1.299381 A    
C4    C27   1.451117 A    
O2    Cu2   2.022008 S    
C10   C26   1.464414 A    
C14   C53   1.493691 S    
N13   O89   1.301610 A    
C13   C54   1.498693 S    
S5    O31   1.681071 S    
C43   C52   1.418658 A    
N9    O82   1.294808 A    
N7    O77   1.301547 A    
S7    O35   1.504054 D    
Cu1   Cu2   2.674587 S    
O1    Cu1   2.022009 S    
O55   H13   0.990680 S    
N14   O92   1.303022 A    
C47   C56   1.418541 A    
N11   O86   1.296401 A    
S3    O23   1.504369 D    
O40   H8    0.990972 S    
S6    O34   1.681705 S    
O4    Cu4   2.021250 S    
S10   O44   1.503848 D    
S11   O48   1.503820 D    
