data_mof_unit_28131.cif
_audit_creation_date              2013-03-05T16:44:35-0500
_audit_creation_method            fapswitch 2.2
_symmetry_space_group_name_H-M    P1
_symmetry_Int_Tables_number       1
_space_group_crystal_system       triclinic
_cell_length_a                    27.710428
_cell_length_b                    10.674238
_cell_length_c                    9.853761
_cell_angle_alpha                 89.904503
_cell_angle_beta                  90.488236
_cell_angle_gamma                 90.116467
_cell_volume                      2914.50553225

loop_
_atom_site_label
_atom_site_type_symbol
_atom_site_description
_atom_site_fract_x
_atom_site_fract_y
_atom_site_fract_z
_atom_type_partial_charge
O1    O     O_R   0.500010 0.316790 0.614690 -0.577590
O2    O     O_R   0.500000 0.316760 0.385350 -0.615481
C1    C     C_R   0.498681 0.259958 0.500231 0.904268
O3    O     O_R   0.428760 0.500040 0.614660 -0.637505
O4    O     O_R   0.428750 0.500000 0.385310 -0.570815
C2    C     C_R   0.406202 0.501293 0.499628 0.905448
Zn1   Zn    Zn3+2 0.500000 0.500020 0.653130 1.029366
Zn2   Zn    Zn3+2 0.500000 0.499980 0.346870 1.116316
O5    O     O_R   0.500000 0.683240 0.614650 -0.628572
O6    O     O_R   0.499990 0.683210 0.385310 -0.522269
O7    O     O_R   0.571250 0.500000 0.614690 -0.570021
O8    O     O_R   0.571240 0.499960 0.385340 -0.545665
C3    C     C_R   0.498138 0.739990 0.499764 0.983972
C4    C     C_R   0.594089 0.500655 0.500615 0.980855
C5    C     C_R   0.178241 0.424452 0.449291 0.550402
O9    O     O_2   0.202969 0.323926 0.404735 -0.526325
N1    N     N_R   0.202487 0.527746 0.494797 -0.350419
C6    C     C_R   0.179013 0.632553 0.538014 0.634069
C7    C     C_R   0.280271 0.589669 0.400265 0.687550
C8    C     C_R   0.330326 0.582045 0.401082 -0.302554
C9    C     C_R   0.327483 0.446518 0.599225 -0.184749
C10   C     C_R   0.277456 0.454124 0.598429 -0.170010
C11   C     C_R   0.253858 0.524983 0.498537 0.163786
C12   C     C_R   0.102623 0.528502 0.495135 -0.141069
C13   C     C_R   0.127878 0.422587 0.449010 0.005426
C14   C     C_R   0.102422 0.318197 0.401602 -0.134423
C15   C     C_R   0.128373 0.635707 0.538166 -0.190992
C16   C     C_R   0.353951 0.509100 0.499328 -0.113079
H1    H     H_    0.345411 0.390224 0.675946 0.189030
H2    H     H_    0.256910 0.404205 0.674371 0.179611
H3    H     H_    0.120985 0.238089 0.359579 0.207959
C17   C     C_R   0.647045 0.504848 0.502238 -0.370243
C18   C     C_R   0.975837 0.409616 0.483328 -0.133671
C19   C     C_R   0.975243 0.637363 0.523621 0.038803
C20   C     C_R   0.950146 0.522756 0.502763 0.022205
C21   C     C_R   0.950072 0.294450 0.487499 0.362000
C22   C     C_R   0.899589 0.293385 0.481108 0.442727
C23   C     C_R   0.873750 0.406770 0.489926 -0.208083
C24   C     C_R   0.899073 0.521379 0.502627 -0.196535
C25   C     C_R   0.873295 0.635011 0.514803 -0.141334
C26   C     C_R   0.822759 0.631734 0.513230 0.562836
N2    N     N_R   0.799149 0.520116 0.501925 -0.327708
C27   C     C_R   0.823027 0.409153 0.489973 0.650321
C28   C     C_R   0.723729 0.480004 0.621749 0.473259
C29   C     C_R   0.673354 0.468169 0.619473 0.323125
C30   C     C_R   0.671933 0.547009 0.386682 0.610216
C31   C     C_R   0.721948 0.552687 0.387963 -0.274522
C32   C     C_R   0.747739 0.518673 0.504294 0.038176
O10   O     O_2   0.797352 0.302088 0.478198 -0.484648
C33   C     C_R   0.026394 0.415516 0.464222 0.093158
C34   C     C_R   0.051604 0.526920 0.498011 0.078039
C35   C     C_R   0.026225 0.636691 0.533794 -0.006443
C36   C     C_R   0.052471 0.315358 0.407350 -0.164133
H4    H     H_    0.034851 0.235521 0.361599 0.205497
O11   O     O_2   0.204784 0.732383 0.581317 -0.428532
C37   C     C_R   0.102902 0.741714 0.581305 0.707696
H5    H     H_    0.350666 0.633205 0.325590 0.219013
C38   C     C_R   0.948527 0.749290 0.532467 -0.309019
C39   C     C_R   0.898552 0.748460 0.527998 0.677834
O12   O     O_2   0.797114 0.738565 0.524050 -0.467125
C40   C     C_R   0.052779 0.742163 0.578447 -0.308092
H6    H     H_    0.965437 0.840195 0.538786 0.183497
H7    H     H_    0.740908 0.583314 0.298098 0.197533
H8    H     H_    0.035654 0.825609 0.616177 0.170838
C41   C     C_R   0.494343 0.063489 0.623715 0.084967
C42   C     C_R   0.491138 0.128636 0.501592 -0.248637
C43   C     C_R   0.478370 0.065676 0.381871 -0.202164
H9    H     H_    0.472103 0.115463 0.287657 0.259459
C44   C     C_R   0.477632 0.936186 0.381037 0.658637
C45   C     C_R   0.490343 0.871355 0.500464 -0.216815
C46   C     C_R   0.494211 0.935683 0.622939 -0.141595
C47   C     C_3   0.531632 0.927628 0.733010 0.400412
C48   C     C_3   0.532005 0.069475 0.733167 0.453670
H10   H     H_    0.518037 0.884178 0.827918 0.151360
H11   H     H_    0.566450 0.112624 0.700229 0.061675
C49   C     C_R   0.478027 0.405179 0.070336 -0.049268
N3    N     N_R   0.499670 0.499140 0.142800 -0.175577
C50   C     C_R   0.525578 0.586752 0.072368 0.745683
C51   C     C_R   0.525458 0.586866 0.928317 -0.201489
H12   H     H_    0.545316 0.658149 0.874087 0.208261
N4    N     N_R   0.499670 0.499180 0.857150 -0.170157
C52   C     C_R   0.478849 0.404096 0.927767 0.095825
C53   C     C_3   0.427621 0.364251 0.916040 0.368665
C54   C     C_3   0.425809 0.367607 0.070509 0.910453
H13   H     H_    0.404337 0.434289 0.863908 0.048627
F1    F     F_    0.257385 0.658242 0.303251 -0.630565
F2    F     F_    0.126048 0.846207 0.626159 -0.598703
F3    F     F_    0.648100 0.584165 0.272617 -0.584110
F4    F     F_    0.875307 0.859978 0.537339 -0.606428
F5    F     F_    0.468126 0.876112 0.262347 -0.594270
F6    F     F_    0.574722 0.878037 0.687499 -0.658339
F7    F     F_    0.513896 0.118471 0.852181 -0.591876
F8    F     F_    0.550752 0.676016 0.140383 -0.565270
F9    F     F_    0.423470 0.244289 0.864161 -0.560046
O13   O     O_3   0.395414 0.463132 0.119942 -0.670178
C55   C     C_3   0.346908 0.422193 0.115609 -0.187323
H14   H     H_    0.339529 0.358438 0.202316 0.224545
H15   H     H_    0.337103 0.375452 0.018237 0.155635
H16   H     H_    0.323043 0.504888 0.124735 0.203507
F10   F     F_    0.419049 0.251603 0.131426 -0.617708
O14   O     O_3   0.650088 0.424651 0.733896 -0.565511
C56   C     C_3   0.648100 0.292840 0.727477 -0.126172
H17   H     H_    0.684844 0.251214 0.733180 0.199865
H18   H     H_    0.629030 0.260456 0.633940 0.110873
H19   H     H_    0.627549 0.258007 0.816031 0.197384
O15   O     O_3   0.749951 0.444015 0.735191 -0.587032
C57   C     C_3   0.752289 0.546172 0.825481 -0.188447
H20   H     H_    0.715801 0.573003 0.861581 0.209745
H21   H     H_    0.770552 0.628240 0.778525 0.173164
H22   H     H_    0.773942 0.518043 0.915653 0.183286
O16   O     O_3   0.875792 0.179223 0.479463 -0.513254
C58   C     C_3   0.875753 0.132620 0.345526 -0.050151
H23   H     H_    0.912749 0.106432 0.313273 0.148684
H24   H     H_    0.859680 0.201015 0.272564 0.111230
H25   H     H_    0.853235 0.046626 0.342010 0.227401
O17   O     O_3   0.973311 0.180762 0.504003 -0.618897
C59   C     C_3   0.981775 0.160953 0.643686 -0.194994
H26   H     H_    0.947327 0.157067 0.700890 0.186770
H27   H     H_    0.006029 0.234190 0.686989 0.154376
H28   H     H_    0.000015 0.069267 0.656871 0.187614

loop_
_geom_bond_atom_site_label_1
_geom_bond_atom_site_label_2
_geom_bond_distance
_ccdc_geom_bond_type
C38   H6    1.078365 S    
O14   C56   1.409457 S    
C57   H21   1.112857 S    
C26   N2    1.362355 A    
C20   C24   1.415282 A    
O13   C55   1.412843 S    
C12   C15   1.411226 A    
C7    F1    1.356851 S    
C49   C54   1.500745 S    
C58   H24   1.114619 S    
N4    C52   1.359889 A    
N3    C50   1.369395 A    
Zn1   O7    2.013542 S    
N1    C11   1.424020 S    
C53   C54   1.523837 S    
C21   C22   1.399796 A    
C35   C40   1.412565 A    
C59   H27   1.113106 S    
C31   H7    1.083188 S    
C23   C24   1.414292 A    
O7    C4    1.294681 A    
C5    C13   1.395686 A    
O15   C57   1.409532 S    
C50   F8    1.354678 S    
C5    O9    1.350318 S    
C55   H16   1.108264 S    
C18   C21   1.421060 A    
C41   C48   1.495729 S    
O17   C59   1.409934 S    
C56   H19   1.109290 S    
C5    N1    1.364426 A    
C19   C20   1.420368 A    
C17   C29   1.415834 A    
O5    C3    1.283751 A    
C18   C33   1.416388 A    
C2    C16   1.450440 S    
C7    C8    1.389550 A    
C55   H15   1.113534 S    
C57   H20   1.112889 S    
C45   C46   1.392734 A    
C12   C34   1.414358 A    
C42   C43   1.401101 A    
C14   H3    1.083445 S    
C25   C39   1.403118 A    
C9    C10   1.388754 A    
C48   H11   1.109752 S    
C44   C45   1.406780 A    
O3    Zn1   2.006983 S    
C58   H23   1.112268 S    
C33   C34   1.416656 A    
C30   F3    1.357820 S    
C10   C11   1.398970 A    
C33   C36   1.411124 A    
C34   C35   1.414492 A    
C54   F10   1.388232 S    
C12   C13   1.408836 A    
C26   O12   1.349726 S    
C47   H10   1.111521 S    
C59   H28   1.109335 S    
C49   C52   1.405285 A    
C24   C25   1.414681 A    
C51   N4    1.367260 A    
C47   F6    1.385479 S    
C15   C37   1.403293 A    
C27   O10   1.349606 S    
C37   F2    1.358203 S    
C8    C16   1.400290 A    
C38   C39   1.385162 A    
C41   C46   1.364257 A    
C53   F9    1.383775 S    
C9    H1    1.082915 S    
C43   H9    1.081859 S    
C39   F4    1.358248 S    
O1    C1    1.281754 A    
C54   O13   1.413690 S    
C40   H8    1.078252 S    
C7    C11   1.399272 A    
C22   C23   1.410673 A    
C31   C32   1.393663 A    
Zn2   O8    2.006983 S    
C55   H14   1.111481 S    
N1    C6    1.365762 A    
N2    C32   1.425038 S    
C49   N3    1.366794 A    
C56   H18   1.113675 S    
C29   O14   1.382788 S    
C6    O11   1.349370 S    
O3    C2    1.289820 A    
C25   C26   1.400683 A    
Zn1   N4    2.010468 S    
C9    C16   1.400454 A    
O8    C4    1.295747 A    
C52   C53   1.484670 S    
Zn2   N3    2.010835 S    
C57   H22   1.109244 S    
C1    C42   1.416889 S    
N2    C27   1.363662 A    
C44   F5    1.358311 S    
C21   O17   1.383667 S    
C14   C36   1.386069 A    
C28   C29   1.401333 A    
Zn1   O5    1.991530 S    
C30   C31   1.387089 A    
C10   H2    1.082942 S    
O16   C58   1.411189 S    
C53   H13   1.110923 S    
O1    Zn1   1.992803 S    
C17   C30   1.408941 A    
O2    Zn2   1.991531 S    
C6    C15   1.403753 A    
C48   F7    1.383397 S    
C4    C17   1.467974 S    
C47   C48   1.514132 S    
O6    C3    1.282692 A    
O4    Zn2   2.013544 S    
C36   H4    1.078752 S    
C28   O15   1.382384 S    
C19   C35   1.415443 A    
O2    C1    1.284035 A    
C13   C14   1.396549 A    
C23   C27   1.405831 A    
C59   H26   1.113361 S    
C50   C51   1.419416 A    
O4    C2    1.292900 A    
C18   C20   1.417256 A    
C56   H17   1.112678 S    
C22   O16   1.384437 S    
C51   H12   1.081328 S    
C46   C47   1.496635 S    
Zn2   O6    1.992802 S    
C41   C42   1.391118 A    
C3    C45   1.419232 S    
C19   C38   1.410001 A    
C37   C40   1.388977 A    
C43   C44   1.382354 A    
C8    H5    1.083419 S    
C58   H25   1.109311 S    
C28   C32   1.401061 A    
