data_mof_unit_58402.cif
_audit_creation_date              2012-12-10T19:06:30-0500
_audit_creation_method            fapswitch 2.2
_symmetry_space_group_name_H-M    P1
_symmetry_Int_Tables_number       1
_space_group_crystal_system       triclinic
_cell_length_a                    23.592013
_cell_length_b                    10.836484
_cell_length_c                    9.559045
_cell_angle_alpha                 90.811138
_cell_angle_beta                  90.128988
_cell_angle_gamma                 90.715065
_cell_volume                      2443.37020202

loop_
_atom_site_label
_atom_site_type_symbol
_atom_type_description
_atom_site_fract_x
_atom_site_fract_y
_atom_site_fract_z
_atom_type_partial_charge
C1    C     C_R   0.499899 0.262554 0.498983 0.805872
C2    C     C_R   0.969910 0.257969 0.461262 -0.159731
C3    C     C_R   0.028926 0.258505 0.451969 0.309935
C4    C     C_R   0.060278 0.369114 0.479214 -0.082661
C5    C     C_R   0.030584 0.480674 0.500536 -0.089034
C6    C     C_R   0.060398 0.593298 0.525342 -0.081571
C7    C     C_R   0.029153 0.702664 0.549858 0.313328
C8    C     C_R   0.970377 0.701189 0.533989 -0.170724
C9    C     C_R   0.119975 0.373111 0.486761 0.578598
C10   C     C_R   0.120122 0.591811 0.522837 0.577073
C11   C     C_R   0.239781 0.524441 0.622206 -0.087626
C12   C     C_R   0.391006 0.496987 0.499710 0.813572
C13   C     C_R   0.298819 0.527584 0.619749 -0.275077
C14   C     C_R   0.328435 0.490067 0.499286 -0.066823
C15   C     C_R   0.297517 0.446497 0.380731 0.222379
C16   C     C_R   0.238186 0.446764 0.383582 -0.157696
C17   C     C_R   0.209200 0.484874 0.503891 0.301941
C18   C     C_R   0.758630 0.417042 0.391929 0.228756
C19   C     C_R   0.699154 0.411186 0.404778 0.122069
C20   C     C_R   0.671757 0.489159 0.502636 -0.206767
C21   C     C_R   0.704633 0.554388 0.603749 0.125633
C22   C     C_R   0.763759 0.539820 0.607282 0.220892
C23   C     C_R   0.497834 0.737389 0.500639 0.849204
C24   C     C_R   0.791203 0.477560 0.496687 0.175500
C25   C     C_R   0.530664 0.064859 0.596210 0.055294
C26   C     C_R   0.501260 0.129447 0.494904 -0.129842
C27   C     C_R   0.473401 0.063665 0.387098 -0.280164
C28   C     C_R   0.470233 0.934441 0.389437 0.246664
C29   C     C_R   0.496747 0.870916 0.499870 -0.183349
C30   C     C_R   0.528130 0.937871 0.599650 0.091830
C31   C     C_3   0.525155 0.938657 0.756605 0.051008
C32   C     C_3   0.530436 0.078889 0.751246 -0.452549
C33   C     C_R   0.549680 0.502707 0.073445 0.250528
C34   C     C_R   0.609071 0.498545 0.500576 0.910540
C35   C     C_R   0.451074 0.514515 0.074135 -0.081607
C36   C     C_R   0.451057 0.514462 0.925826 -0.106073
C37   C     C_R   0.549650 0.501546 0.926257 0.296649
C38   C     C_3   0.593946 0.405158 0.919363 -0.489596
C39   C     C_3   0.594953 0.408652 0.077622 -0.482055
C40   C     C_R   0.881592 0.588080 0.494290 0.634096
C41   C     C_R   0.881020 0.368113 0.492244 0.623357
C42   C     C_R   0.940432 0.367523 0.484153 -0.072069
C43   C     C_R   0.970653 0.479628 0.497102 -0.020603
C44   C     C_R   0.940825 0.590688 0.507127 -0.079957
Cu1   Cu    Cu3+1 0.500000 0.499980 0.640670 0.946889
Cu2   Cu    Cu3+1 0.500000 0.500020 0.359330 0.969873
H1    H     H_    0.946966 0.171858 0.443819 0.218991
H2    H     H_    0.451027 0.112394 0.306098 0.161226
H3    H     H_    0.483884 0.904446 0.798199 0.124966
H4    H     H_    0.492231 0.126597 0.791603 0.181905
H5    H     H_    0.571503 0.117783 0.788613 0.201730
H6    H     H_    0.411266 0.523780 0.128154 0.178417
H7    H     H_    0.411139 0.523003 0.871764 0.148582
H8    H     H_    0.577456 0.316747 0.874949 0.198566
H9    H     H_    0.634172 0.438615 0.872455 0.238678
H10   H     H_    0.580672 0.320806 0.125812 0.224026
H11   H     H_    0.634952 0.450018 0.119084 0.227024
H12   H     H_    0.947569 0.786430 0.549676 0.216046
H13   H     H_    0.217701 0.553398 0.716047 0.160226
H14   H     H_    0.321316 0.560590 0.712081 0.161152
H15   H     H_    0.214367 0.415167 0.292596 0.153706
N1    N     N_R   0.852464 0.477619 0.491832 -0.430983
N2    N     N_R   0.148234 0.483119 0.505455 -0.475281
N3    N     N_R   0.500360 0.500930 0.147930 -0.188576
N4    N     N_R   0.500360 0.500890 0.852020 -0.190931
O1    O     O_R   0.500000 0.319640 0.618810 -0.583421
O2    O     O_2   0.852152 0.260245 0.501440 -0.495649
O3    O     O_2   0.150023 0.268335 0.479124 -0.463658
O4    O     O_2   0.150353 0.697867 0.533037 -0.462768
O5    O     O_R   0.500010 0.319680 0.381230 -0.578055
O6    O     O_R   0.417880 0.499940 0.618820 -0.603167
O7    O     O_R   0.417880 0.499980 0.381240 -0.554471
O8    O     O_R   0.499990 0.680320 0.618770 -0.595052
O9    O     O_R   0.500000 0.680360 0.381190 -0.552328
O10   O     O_R   0.582120 0.500020 0.618760 -0.561558
O11   O     O_R   0.582120 0.500060 0.381180 -0.563382
O12   O     O_2   0.853289 0.695212 0.485650 -0.504695
N5    N     N_2   0.667021 0.321204 0.327190 -0.424990
H16   H     H_    0.683880 0.294982 0.232309 0.291030
C45   C     C_3   0.649451 0.215202 0.407474 -0.604811
H17   H     H_    0.687074 0.161327 0.438835 0.256445
H18   H     H_    0.621018 0.155052 0.342743 0.218248
H19   H     H_    0.625936 0.244138 0.502653 0.207950
Br1   Br    Br    0.670651 0.666804 0.735745 -0.561200
N6    N     N_2   0.796725 0.589123 0.720517 -0.401163
H20   H     H_    0.785319 0.675319 0.756489 0.316037
C46   C     C_3   0.806742 0.502737 0.831478 -0.571393
H21   H     H_    0.835434 0.545785 0.910951 0.247649
H22   H     H_    0.827275 0.418319 0.789397 0.240530
H23   H     H_    0.766094 0.477087 0.882699 0.245333
N7    N     N_2   0.433946 0.870523 0.292972 -0.411218
H24   H     H_    0.393298 0.904535 0.292972 0.252972
C47   C     C_3   0.456183 0.858552 0.152754 -0.653857
H25   H     H_    0.460008 0.950702 0.103868 0.201518
H26   H     H_    0.426894 0.800233 0.088294 0.219349
H27   H     H_    0.498128 0.813248 0.154455 0.248593
N8    N     N_2   0.573672 0.877708 0.817004 -0.355370
H28   H     H_    0.568588 0.783186 0.812150 0.297310
C48   C     C_3   0.592393 0.920652 0.953988 -0.610375
H29   H     H_    0.615973 0.846558 0.007262 0.237937
H30   H     H_    0.555978 0.947796 0.020019 0.200401
H31   H     H_    0.621613 0.000921 0.943165 0.242987
Br2   Br    Br    0.061541 0.106586 0.386692 -0.324893
Br3   Br    Br    0.061371 0.855225 0.620157 -0.326129
N9    N     N_2   0.325425 0.399914 0.259550 -0.432043
H32   H     H_    0.303755 0.414481 0.167480 0.244499
C49   C     C_3   0.343749 0.273532 0.270971 -0.636615
H33   H     H_    0.306406 0.210418 0.278285 0.239216
H34   H     H_    0.371036 0.262406 0.364672 0.220402
H35   H     H_    0.368740 0.247741 0.176938 0.215755
Br4   Br    Br    0.795050 0.347805 0.228430 -0.487270

loop_
_geom_bond_atom_site_label_1
_geom_bond_atom_site_label_2
_ccdc_geom_bond_type
C27   H2    S    
C46   H21   S    
C47   H25   S    
Cu1   O6    S    
C41   C42   A    
C19   C20   A    
C10   N2    A    
Cu2   O11   S    
N8    H28   S    
C7    C8    A    
C41   O2    S    
C13   H14   S    
N6    H20   S    
N9    C49   S    
C26   C27   A    
C33   C39   S    
C35   H6    S    
C18   C24   A    
C23   C29   S    
C28   C29   A    
C37   C38   S    
C23   O8    A    
C30   C31   S    
N5    C45   S    
C15   C16   A    
C39   H11   S    
C40   N1    A    
Cu1   O8    S    
C18   C19   A    
C22   N6    S    
C36   H7    S    
C8    H12   S    
C38   H9    S    
C31   C32   S    
C16   C17   A    
C37   N4    A    
C49   H33   S    
C35   N3    A    
Cu2   O7    S    
C34   O10   A    
C20   C34   S    
C25   C32   S    
C5    C43   A    
C47   H26   S    
C9    N2    A    
C21   C22   A    
C49   H34   S    
C41   N1    A    
C31   H3    S    
C45   H19   S    
C11   H13   S    
N8    C48   S    
N6    C46   S    
C38   C39   S    
C18   Br4   S    
C45   H18   S    
N7    H24   S    
N5    H16   S    
C4    C5    A    
C25   C26   A    
Cu1   Cu2   S    
C33   C37   A    
Cu2   N3    S    
C35   C36   A    
C19   N5    S    
C43   C44   A    
C32   H5    S    
C29   C30   A    
N7    C47   S    
C39   H10   S    
C38   H8    S    
C21   Br1   S    
C14   C15   A    
C1    O1    A    
C32   H4    S    
C48   H30   S    
C12   O6    A    
C12   C14   S    
C47   H27   S    
C7    Br3   S    
C46   H22   S    
Cu1   N4    S    
C1    C26   S    
C49   H35   S    
C22   C24   A    
C16   H15   S    
C23   O9    A    
C3    C4    A    
Cu2   O9    S    
C3    Br2   S    
C25   C30   A    
C11   C17   A    
C24   N1    S    
C36   N4    A    
C8    C44   A    
C45   H17   S    
C6    C10   A    
C6    C7    A    
C2    H1    S    
N9    H32   S    
C1    O5    A    
C48   H29   S    
Cu1   O10   S    
C15   N9    S    
C2    C3    A    
C9    O3    S    
C17   N2    S    
C11   C13   A    
C5    C6    A    
C2    C42   A    
C33   N3    A    
C28   N7    S    
C31   N8    S    
C12   O7    A    
Cu2   O5    S    
C10   O4    S    
C40   C44   A    
C48   H31   S    
C20   C21   A    
C42   C43   A    
C46   H23   S    
Cu1   O1    S    
C40   O12   S    
C4    C9    A    
C13   C14   A    
C34   O11   A    
C27   C28   A    
