data_mof_unit_21597.cif
_audit_creation_date              2012-10-26T18:26:13-0400
_audit_creation_method            fapswitch 2.2
_symmetry_space_group_name_H-M    P1
_symmetry_Int_Tables_number       1
_space_group_crystal_system       triclinic
_cell_length_a                    13.909368
_cell_length_b                    8.803232
_cell_length_c                    7.623011
_cell_angle_alpha                 103.055577
_cell_angle_beta                  91.077125
_cell_angle_gamma                 95.94124
_cell_volume                      903.548693247

loop_
_atom_site_label
_atom_site_type_symbol
_atom_type_description
_atom_site_fract_x
_atom_site_fract_y
_atom_site_fract_z
_atom_type_partial_charge
C1    C     C_R   0.495100 0.200922 0.455301 0.545782
C2    C     C_1   0.867628 0.497799 0.444277 -0.001482
C3    C     C_2   0.477691 0.033849 0.439849 -0.024023
C4    C     C_2   0.524506 0.967037 0.558573 -0.027808
C5    C     C_2   0.000123 0.604372 0.760957 0.564131
C6    C     C_2   0.003042 0.448208 0.240652 0.554556
C7    C     C_3   0.392631 0.951406 0.310773 -0.260048
C8    C     C_3   0.302812 0.915525 0.414643 -0.318812
C9    C     C_3   0.214675 0.853397 0.287055 -0.391635
C10   C     C_3   0.605986 0.054059 0.694282 -0.257238
C11   C     C_3   0.697499 0.104954 0.603261 -0.311459
C12   C     C_R   0.506047 0.799508 0.544423 0.541516
C13   C     C_3   0.770454 0.212770 0.739778 -0.385212
C14   C     C_3   0.398360 0.334813 0.950175 -0.042992
C15   C     C_3   0.294133 0.369002 0.996231 -0.261247
C16   C     C_3   0.240499 0.238019 0.071361 -0.433587
C17   C     C_3   0.616326 0.628454 0.045798 -0.048339
C18   C     C_3   0.646650 0.778903 0.984339 -0.307028
C19   C     C_3   0.733382 0.874628 0.097315 -0.486516
C20   C     C_R   0.319490 0.503683 0.528256 0.528106
C21   C     C_R   0.680487 0.498933 0.472024 0.531878
C22   C     C_1   0.782002 0.498551 0.457073 0.001749
C23   C     C_1   0.218581 0.515957 0.544090 -0.013753
C24   C     C_2   0.970158 0.496059 0.427567 0.025160
C25   C     C_2   0.031931 0.542782 0.574895 0.022876
C26   C     C_1   0.133798 0.528621 0.557543 -0.010185
Cu1   Cu    Cu3+1 0.510540 0.517220 0.682700 0.895683
Cu2   Cu    Cu3+1 0.489460 0.482780 0.317300 0.897795
H1    H     H_    0.896720 0.606136 0.943423 0.345505
H2    H     H_    0.739041 0.321413 0.804804 0.196088
H3    H     H_    0.792012 0.152466 0.844939 0.170196
H4    H     H_    0.836148 0.245229 0.670012 0.188282
H5    H     H_    0.731986 0.998817 0.540442 0.145609
H6    H     H_    0.680293 0.166292 0.496532 0.178310
H7    H     H_    0.580898 0.151995 0.794817 0.178611
H8    H     H_    0.628955 0.976880 0.777971 0.132296
H9    H     H_    0.239631 0.123732 0.972506 0.134094
H10   H     H_    0.275774 0.228830 0.199385 0.173548
H11   H     H_    0.164580 0.260050 0.096683 0.186988
H12   H     H_    0.099668 0.485449 0.057184 0.351241
H13   H     H_    0.291562 0.486387 0.085262 0.210469
H14   H     H_    0.252798 0.373083 0.871271 0.128683
H15   H     H_    0.396994 0.313572 0.806691 0.178605
H16   H     H_    0.414074 0.222108 0.980753 0.114546
H17   H     H_    0.713660 0.912655 0.239069 0.141390
H18   H     H_    0.795492 0.804242 0.091034 0.166071
H19   H     H_    0.755398 0.980778 0.046091 0.164079
H20   H     H_    0.668552 0.752193 0.843507 0.213307
H21   H     H_    0.585297 0.851737 0.000391 0.169612
H22   H     H_    0.608315 0.672574 0.188189 0.200355
H23   H     H_    0.195746 0.943994 0.215971 0.160044
H24   H     H_    0.675083 0.550642 0.022697 0.138848
H25   H     H_    0.229718 0.747282 0.185992 0.200669
H26   H     H_    0.151986 0.822708 0.365305 0.192791
H27   H     H_    0.315743 0.827113 0.492921 0.184464
H28   H     H_    0.286870 0.024359 0.510845 0.148076
H29   H     H_    0.372529 0.028078 0.221945 0.140000
H30   H     H_    0.411202 0.845907 0.213521 0.182921
N1    N     N_2   0.473570 0.456830 0.042740 -0.147732
N2    N     N_2   0.526430 0.543170 0.957260 -0.148302
O1    O     O_R   0.506850 0.286020 0.618680 -0.537391
O2    O     O_R   0.907431 0.559240 0.812061 -0.711572
O3    O     O_2   0.952140 0.350662 0.127702 -0.529201
O4    O     O_R   0.088910 0.520665 0.190638 -0.723832
O5    O     O_R   0.493150 0.713980 0.381320 -0.531690
O6    O     O_R   0.489050 0.256940 0.310110 -0.510347
O7    O     O_R   0.510950 0.743060 0.689890 -0.519169
O8    O     O_R   0.372320 0.516630 0.676100 -0.515660
O9    O     O_R   0.627680 0.483370 0.323900 -0.533656
O10   O     O_R   0.354510 0.487550 0.367530 -0.499621
O11   O     O_R   0.645490 0.512450 0.632470 -0.505555
O12   O     O_2   0.056798 0.693542 0.871618 -0.529836

loop_
_geom_bond_atom_site_label_1
_geom_bond_atom_site_label_2
_ccdc_geom_bond_type
C17   H22   S    
C6    O3    D    
Cu2   O6    S    
C19   H17   S    
C2    C22   T    
C10   H7    S    
C9    H26   S    
C4    C12   S    
Cu1   O1    S    
C12   O5    A    
C7    H30   S    
Cu2   O9    S    
H12   O4    S    
C20   C23   S    
C16   H9    S    
C6    C24   S    
C9    H23   S    
C8    H28   S    
C17   C18   S    
C18   H21   S    
C19   H18   S    
Cu1   O11   S    
N1    N2    D    
C21   C22   S    
C7    H29   S    
C14   N1    S    
C11   C13   S    
C20   O10   A    
C21   O11   A    
C5    C25   S    
C17   H24   S    
C13   H3    S    
C5    O2    S    
C1    O6    A    
C5    O12   D    
C3    C7    S    
Cu1   N2    S    
C11   H6    S    
C2    C24   S    
C12   O7    A    
C19   H19   S    
Cu2   N1    S    
C9    H25   S    
C10   C11   S    
C16   H11   S    
C4    C10   S    
C3    C4    D    
C13   H2    S    
C11   H5    S    
Cu1   O7    S    
C24   C25   D    
C8    H27   S    
C8    C9    S    
C14   H16   S    
C7    C8    S    
C23   C26   T    
C6    O4    S    
Cu1   Cu2   S    
C14   C15   S    
C18   C19   S    
C10   H8    S    
Cu1   O8    S    
C17   N2    S    
C16   H10   S    
C25   C26   S    
H1    O2    S    
C13   H4    S    
Cu2   O5    S    
C18   H20   S    
C20   O8    A    
C15   H13   S    
Cu2   O10   S    
C15   C16   S    
C15   H14   S    
C21   O9    A    
C14   H15   S    
C1    C3    S    
C1    O1    A    
