data_mof_unit_48598.cif
_audit_creation_date              2012-12-10T20:02:20-0500
_audit_creation_method            fapswitch 2.2
_symmetry_space_group_name_H-M    P1
_symmetry_Int_Tables_number       1
_space_group_crystal_system       triclinic
_cell_length_a                    10.681156
_cell_length_b                    14.99358
_cell_length_c                    14.165634
_cell_angle_alpha                 90.150941
_cell_angle_beta                  90.593921
_cell_angle_gamma                 89.756851
_cell_volume                      2268.45889801

loop_
_atom_site_label
_atom_site_type_symbol
_atom_type_description
_atom_site_fract_x
_atom_site_fract_y
_atom_site_fract_z
_atom_type_partial_charge
C1    C     C_R   0.499347 0.327630 0.499961 0.849133
C2    C     C_R   0.501322 0.672034 0.500183 0.897909
C3    C     C_R   0.872372 0.497694 0.501689 -0.092237
C4    C     C_R   0.127810 0.503525 0.499233 -0.089876
C5    C     C_R   0.940504 0.445322 0.566592 0.194271
C6    C     C_R   0.059917 0.555680 0.434086 0.178628
C7    C     C_R   0.529131 0.094215 0.584740 -0.091889
C8    C     C_R   0.570544 0.904362 0.430059 -0.099525
C9    C     C_R   0.524410 0.186131 0.584696 -0.166810
C10   C     C_R   0.567999 0.812278 0.429473 -0.130371
C11   C     C_R   0.500261 0.231588 0.500199 -0.068462
C12   C     C_R   0.504878 0.767427 0.500931 0.014249
C13   C     C_R   0.479210 0.184773 0.415944 -0.198888
C14   C     C_R   0.444963 0.813965 0.573231 -0.107008
C15   C     C_R   0.482245 0.092697 0.416299 -0.153511
C16   C     C_R   0.445763 0.905943 0.572985 -0.153620
C17   C     C_R   0.507538 0.047452 0.500658 0.078782
C18   C     C_R   0.508578 0.951188 0.501434 0.126677
C19   C     C_R   0.413538 0.447371 0.104361 0.428738
C20   C     C_R   0.505954 0.581168 0.895233 0.442067
C21   C     C_R   0.416699 0.448173 0.203990 -0.076548
C22   C     C_R   0.507513 0.578735 0.795634 -0.038023
C23   C     C_R   0.260144 0.502244 0.499556 0.943852
C24   C     C_R   0.739938 0.497733 0.500579 0.862350
C25   C     C_R   0.583144 0.551493 0.205206 0.003046
C26   C     C_R   0.493148 0.421684 0.795804 -0.021436
C27   C     C_R   0.585007 0.551994 0.106027 -0.243504
C28   C     C_R   0.494649 0.420494 0.894973 -0.291522
C29   C     C_R   0.499894 0.499708 0.053468 0.019453
C30   C     C_R   0.501089 0.500579 0.946835 0.030347
C31   C     C_R   0.237870 0.749228 0.328034 0.518139
C32   C     C_R   0.824565 0.229501 0.672312 0.521500
C33   C     C_R   0.181829 0.693628 0.395037 0.270540
C34   C     C_R   0.872900 0.290663 0.607243 0.267439
C35   C     C_R   0.119571 0.615688 0.364987 -0.197924
C36   C     C_R   0.881943 0.381390 0.632033 -0.234408
C37   C     C_R   0.111051 0.595813 0.268245 0.550327
C38   C     C_R   0.841671 0.410098 0.721032 0.618643
C39   C     C_R   0.167138 0.651401 0.202149 -0.475210
C40   C     C_R   0.791336 0.349316 0.784548 -0.495381
C41   C     C_R   0.229122 0.729195 0.231600 0.383232
C42   C     C_R   0.783649 0.257708 0.761305 0.349626
C43   C     C_R   0.931276 0.551946 0.436000 -0.212726
C44   C     C_R   0.068944 0.449206 0.564812 -0.189044
H1    H     H_    0.463407 0.056832 0.351226 0.161618
H2    H     H_    0.395948 0.941714 0.627621 0.131501
H3    H     H_    0.351839 0.407261 0.242748 0.168043
H4    H     H_    0.513709 0.640603 0.757056 0.151351
H5    H     H_    0.649068 0.592054 0.244583 0.145380
H6    H     H_    0.487977 0.359292 0.757713 0.154239
H7    H     H_    0.654095 0.592215 0.070709 0.206055
H8    H     H_    0.492151 0.356887 0.930797 0.202653
H9    H     H_    0.162437 0.634109 0.127979 0.191952
H10   H     H_    0.758652 0.374451 0.851525 0.209932
H11   H     H_    0.876830 0.592716 0.387279 0.153714
H12   H     H_    0.123322 0.407921 0.613094 0.159799
H13   H     H_    0.550334 0.059673 0.650100 0.168864
H14   H     H_    0.620732 0.938983 0.375210 0.123257
H15   H     H_    0.541530 0.221408 0.650333 0.164244
H16   H     H_    0.615659 0.776159 0.373960 0.134950
H17   H     H_    0.459618 0.219096 0.350196 0.168466
H18   H     H_    0.395261 0.779262 0.628324 0.150907
N1    N     N_R   0.500000 0.499980 0.252470 -0.127274
N2    N     N_R   0.500000 0.500020 0.747530 -0.111185
O1    O     O_R   0.500010 0.369070 0.579480 -0.645764
O2    O     O_R   0.499990 0.630930 0.420520 -0.622403
O3    O     O_R   0.500010 0.369060 0.420520 -0.624844
O4    O     O_R   0.499990 0.630940 0.579480 -0.633835
O5    O     O_R   0.316760 0.500010 0.579480 -0.613490
O6    O     O_R   0.683240 0.499990 0.420520 -0.627762
O7    O     O_R   0.316760 0.500000 0.420520 -0.620590
O8    O     O_R   0.683240 0.500000 0.579480 -0.579036
Zn1   Zn    Zn3+2 0.500000 0.500010 0.606140 0.977519
Zn2   Zn    Zn3+2 0.500000 0.499990 0.393860 0.959543
O9    O     O_3   0.288253 0.783576 0.167462 -0.555068
C45   C     C_3   0.196696 0.829744 0.114088 -0.281227
H19   H     H_    0.130161 0.866543 0.160258 0.171458
H20   H     H_    0.244336 0.879754 0.069616 0.188288
H21   H     H_    0.145160 0.783840 0.065862 0.149133
O10   O     O_3   0.730958 0.193913 0.819885 -0.555576
C46   C     C_3   0.757269 0.210210 0.916236 -0.240518
H22   H     H_    0.691784 0.260927 0.944975 0.150566
H23   H     H_    0.856510 0.230035 0.928652 0.160527
H24   H     H_    0.741829 0.147603 0.955918 0.191573
O11   O     O_3   0.330288 0.391690 0.058098 -0.623480
C47   C     C_3   0.220453 0.440356 0.037122 -0.268277
H25   H     H_    0.239746 0.498683 0.991175 0.145617
H26   H     H_    0.173327 0.462175 0.102737 0.223512
H27   H     H_    0.154775 0.396202 0.998074 0.202990
O12   O     O_3   0.513451 0.662385 0.941095 -0.612680
C48   C     C_3   0.391710 0.698154 0.948177 -0.274944
H28   H     H_    0.347492 0.708023 0.877422 0.138325
H29   H     H_    0.331692 0.655463 0.993017 0.164899
H30   H     H_    0.398204 0.764532 0.982485 0.229130
F1    F     F_    0.298450 0.824091 0.356425 -0.636444
F2    F     F_    0.820589 0.141462 0.649942 -0.626217
O13   O     O_3   0.193359 0.712982 0.490142 -0.594858
C49   C     C_3   0.097734 0.773460 0.514821 -0.234329
H31   H     H_    0.003290 0.744797 0.500947 0.144488
H32   H     H_    0.107927 0.838061 0.477239 0.197210
H33   H     H_    0.105259 0.787375 0.591609 0.189036
O14   O     O_3   0.923260 0.260786 0.523282 -0.556740
C50   C     C_3   0.825249 0.246769 0.457658 -0.188386
H34   H     H_    0.766885 0.307774 0.447945 0.128198
H35   H     H_    0.766304 0.189374 0.478563 0.197860
H36   H     H_    0.866656 0.230320 0.388251 0.185642
F3    F     F_    0.049084 0.521987 0.238281 -0.669513
F4    F     F_    0.851190 0.497231 0.746326 -0.639027

loop_
_geom_bond_atom_site_label_1
_geom_bond_atom_site_label_2
_ccdc_geom_bond_type
C22   H4    S    
C42   O10   S    
C27   C29   A    
C11   C13   A    
C23   O5    A    
C1    C11   S    
C45   H21   S    
C2    C12   S    
O13   C49   S    
C24   O6    A    
C39   C41   A    
C20   C30   A    
O11   C47   S    
C3    C43   A    
C34   O14   S    
C19   C21   A    
C45   H20   S    
C37   F3    S    
C2    O4    A    
C26   H6    S    
C33   C35   A    
C47   H26   S    
C48   H29   S    
C14   H18   S    
C5    C36   S    
O1    Zn1   S    
C6    C35   S    
C15   C17   A    
C25   N1    A    
C26   N2    A    
C8    H14   S    
C7    C17   A    
O6    Zn2   S    
C1    O1    A    
N2    Zn1   S    
C31   C33   A    
O5    Zn1   S    
C33   O13   S    
C40   C42   A    
C3    C24   S    
C46   H23   S    
C27   H7    S    
C46   H22   S    
C23   O7    A    
C45   H19   S    
C4    C6    A    
C16   H2    S    
C48   H28   S    
C4    C23   S    
C47   H25   S    
O10   C46   S    
C4    C44   A    
C19   O11   S    
O4    Zn1   S    
C20   O12   S    
C8    C18   A    
C9    H15   S    
C32   C34   A    
C10   H16   S    
O9    C45   S    
C29   C30   S    
C41   O9    S    
C44   H12   S    
C17   C18   S    
C50   H35   S    
O3    Zn2   S    
C9    C11   A    
C10   C12   A    
C43   H11   S    
C32   F2    S    
C5    C44   A    
C20   C22   A    
C40   H10   S    
C6    C43   A    
C13   C15   A    
C14   C16   A    
C15   H1    S    
C19   C29   A    
C3    C5    A    
C46   H24   S    
C24   O8    A    
C7    C9    A    
C31   C41   A    
C35   C37   A    
C16   C18   A    
C12   C14   A    
O8    Zn1   S    
C2    O2    A    
C47   H27   S    
O7    Zn2   S    
N1    Zn2   S    
C25   C27   A    
C49   H33   S    
C26   C28   A    
C28   C30   A    
C37   C39   A    
C48   H30   S    
C38   C40   A    
C28   H8    S    
O12   C48   S    
C39   H9    S    
C31   F1    S    
C36   C38   A    
C1    O3    A    
C50   H36   S    
C34   C36   A    
C38   F4    S    
O14   C50   S    
C49   H32   S    
C25   H5    S    
C21   N1    A    
C22   N2    A    
C13   H17   S    
C8    C10   A    
C49   H31   S    
C50   H34   S    
C32   C42   A    
C7    H13   S    
C21   H3    S    
O2    Zn2   S    
