data_mof_unit_37515.cif
_audit_creation_date              2012-12-10T17:32:19-0500
_audit_creation_method            fapswitch 2.2
_symmetry_space_group_name_H-M    P1
_symmetry_Int_Tables_number       1
_space_group_crystal_system       triclinic
_cell_length_a                    15.527159
_cell_length_b                    15.447188
_cell_length_c                    15.558256
_cell_angle_alpha                 92.643219
_cell_angle_beta                  70.915086
_cell_angle_gamma                 111.214786
_cell_volume                      3276.49943102

loop_
_atom_site_label
_atom_site_type_symbol
_atom_type_description
_atom_site_fract_x
_atom_site_fract_y
_atom_site_fract_z
_atom_type_partial_charge
C1    C     C_R   0.463468 0.258244 0.462596 0.836874
C2    C     C_R   0.506783 0.526985 0.120974 -0.264585
C3    C     C_R   0.676375 0.612189 0.107424 -0.198605
C4    C     C_R   0.536410 0.741966 0.534895 0.826123
C5    C     C_R   0.426164 0.427298 0.840992 -0.205141
C6    C     C_R   0.476875 0.057896 0.324968 0.531059
C7    C     C_R   0.453286 0.162860 0.443074 -0.111019
C8    C     C_R   0.554989 0.867524 0.639169 -0.409216
C9    C     C_R   0.559005 0.956586 0.664328 0.457704
C10   C     C_R   0.544995 0.015125 0.608262 0.443286
C11   C     C_R   0.525809 0.983968 0.525949 -0.093300
C12   C     C_R   0.299384 0.369574 0.988366 -0.260391
C13   C     C_R   0.539281 0.900173 0.494844 0.025554
C14   C     C_R   0.497405 0.033613 0.471436 0.061303
C15   C     C_R   0.500251 0.007668 0.381585 0.043858
C16   C     C_R   0.756717 0.550960 0.462341 0.782960
C17   C     C_R   0.528149 0.933036 0.348508 -0.202467
C18   C     C_R   0.547112 0.880197 0.404034 -0.164213
C19   C     C_R   0.465474 0.107615 0.502851 -0.249129
C20   C     C_R   0.458286 0.137809 0.354793 -0.286892
C21   C     C_R   0.546846 0.839068 0.554577 -0.134186
C22   C     C_R   0.017822 0.598990 0.327832 -0.200696
C23   C     C_R   0.364069 0.420916 0.032150 -0.269351
C24   C     C_R   0.859666 0.567299 0.443087 0.008426
C25   C     C_R   0.071133 0.386950 0.644952 0.483143
C26   C     C_R   0.976146 0.386807 0.674543 -0.238394
C27   C     C_R   0.945267 0.429715 0.620326 -0.281149
C28   C     C_R   0.242902 0.448658 0.535796 0.822585
C29   C     C_R   0.007797 0.471551 0.532164 0.093238
C30   C     C_R   0.102835 0.466669 0.499216 0.023526
C31   C     C_R   0.979058 0.517717 0.475321 0.100623
C32   C     C_R   0.044179 0.554016 0.385561 0.167335
C33   C     C_R   0.133280 0.541535 0.352339 -0.247893
C34   C     C_R   0.463665 0.471469 0.982424 0.095291
C35   C     C_R   0.161182 0.496790 0.407371 -0.171863
C36   C     C_R   0.886899 0.527171 0.503334 -0.270073
C37   C     C_R   0.925520 0.604319 0.356021 -0.194245
C38   C     C_R   0.137103 0.430832 0.558498 -0.206565
C39   C     C_R   0.553212 0.551330 0.258618 0.777251
C40   C     C_R   0.450621 0.447959 0.741770 0.827670
C41   C     C_R   0.703655 0.612000 0.013116 -0.197774
C42   C     C_R   0.578260 0.568893 0.161116 0.014161
C43   C     C_R   0.329644 0.369966 0.893488 0.511875
C44   C     C_3   0.388837 0.993378 0.231757 -0.337519
C45   C     C_R   0.495735 0.470214 0.885731 0.019898
C46   C     C_3   0.653576 0.163901 0.588309 -0.320246
C47   C     C_3   0.651912 0.980741 0.760026 0.072558
C48   C     C_3   0.621873 0.913886 0.843322 -0.321552
C49   C     C_3   0.711158 0.910875 0.862329 -0.954635
C50   C     C_3   0.071353 0.254087 0.704996 0.135568
C51   C     C_3   0.001816 0.209136 0.799923 -0.345753
C52   C     C_3   0.976220 0.103948 0.805880 -1.001314
C53   C     C_3   0.239067 0.223953 0.864677 0.049905
C54   C     C_3   0.299542 0.190797 0.780297 -0.306658
C55   C     C_3   0.273478 0.085726 0.789950 -0.938805
C56   C     C_R   0.532971 0.521545 0.025685 0.100423
C57   C     C_R   0.633454 0.565167 0.972010 0.166999
C58   C     C_R   0.664111 0.557628 0.878387 -0.248558
C59   C     C_R   0.596937 0.509304 0.836259 -0.168365
H1    H     H_    0.732147 0.643448 0.138835 0.132086
H2    H     H_    0.832192 0.499034 0.568987 0.123788
H3    H     H_    0.871552 0.428122 0.649667 0.152239
H4    H     H_    0.926619 0.355921 0.741936 0.156598
H5    H     H_    0.228381 0.484411 0.375824 0.161492
H6    H     H_    0.780370 0.644810 0.972549 0.140218
H7    H     H_    0.432715 0.494742 0.166667 0.122948
H8    H     H_    0.333699 0.417180 0.105330 0.151133
H9    H     H_    0.224016 0.329961 0.028580 0.155033
H10   H     H_    0.626629 0.499990 0.764863 0.168039
H11   H     H_    0.451274 0.182360 0.307690 0.158136
H12   H     H_    0.534257 0.914068 0.279440 0.191630
H13   H     H_    0.345191 0.930085 0.280394 0.162544
H14   H     H_    0.394563 0.971011 0.161974 0.201436
H15   H     H_    0.350159 0.043299 0.244333 0.162534
H16   H     H_    0.671427 0.166289 0.512886 0.165373
H17   H     H_    0.706376 0.142900 0.608130 0.158793
H18   H     H_    0.662414 0.235554 0.608703 0.187365
H19   H     H_    0.696057 0.051559 0.773038 0.164778
H20   H     H_    0.700997 0.960428 0.699252 0.114478
H21   H     H_    0.576196 0.936816 0.904142 0.238929
H22   H     H_    0.577424 0.842607 0.831841 0.218387
H23   H     H_    0.453360 0.126882 0.571876 0.214021
H24   H     H_    0.758203 0.888252 0.802413 0.265450
H25   H     H_    0.686846 0.860621 0.922038 0.272819
H26   H     H_    0.754388 0.980756 0.877908 0.268703
H27   H     H_    0.137604 0.235811 0.688648 0.180339
H28   H     H_    0.035537 0.223583 0.653104 0.091396
H29   H     H_    0.036770 0.239981 0.851722 0.248620
H30   H     H_    0.933275 0.223297 0.815691 0.209693
H31   H     H_    0.937038 0.071263 0.757481 0.268269
H32   H     H_    0.928043 0.073888 0.876195 0.271892
H33   H     H_    0.043665 0.087770 0.789645 0.264336
H34   H     H_    0.557885 0.820143 0.686329 0.197244
H35   H     H_    0.160286 0.187688 0.873443 0.166178
H36   H     H_    0.249180 0.202241 0.927056 0.120233
H37   H     H_    0.285583 0.208712 0.719030 0.247648
H38   H     H_    0.378794 0.226493 0.770429 0.223441
H39   H     H_    0.288542 0.066188 0.849849 0.274103
H40   H     H_    0.318461 0.064089 0.727765 0.279322
H41   H     H_    0.194867 0.048207 0.798333 0.252148
H42   H     H_    0.570756 0.824842 0.373517 0.159808
H43   H     H_    0.903728 0.633764 0.308483 0.133465
H44   H     H_    0.181283 0.565306 0.282659 0.147071
H45   H     H_    0.067080 0.626434 0.259307 0.138477
H46   H     H_    0.741092 0.587317 0.837596 0.148145
O1    O     O_3   0.500000 0.500000 0.500000 -0.483137
O2    O     O_R   0.588830 0.499590 0.285390 -0.639802
O3    O     O_R   0.395900 0.395880 0.699370 -0.598191
O4    O     O_R   0.493280 0.582590 0.315890 -0.647898
O5    O     O_R   0.521980 0.521940 0.699340 -0.650045
O6    O     O_3   0.484152 0.035582 0.236367 -0.610992
O7    O     O_3   0.556041 0.104366 0.633655 -0.603740
O8    O     O_3   0.566946 0.985472 0.748161 -0.604353
O9    O     O_3   0.101937 0.352372 0.705106 -0.613381
O10   O     O_3   0.261551 0.321082 0.852239 -0.611428
O11   O     O_R   0.708210 0.582550 0.530770 -0.645454
O12   O     O_R   0.270260 0.395900 0.573760 -0.613309
O13   O     O_R   0.537060 0.322180 0.411040 -0.628952
O14   O     O_R   0.484470 0.699370 0.484430 -0.638607
O15   O     O_R   0.404710 0.279110 0.530840 -0.669791
O16   O     O_R   0.573760 0.699350 0.573690 -0.641987
O17   O     O_R   0.714470 0.499570 0.411000 -0.637673
O18   O     O_R   0.307050 0.521980 0.484470 -0.639148
Zn1   Zn    Zn3+2 0.574690 0.574670 0.574650 0.960590
Zn2   Zn    Zn3+2 0.583640 0.456100 0.403530 0.966574
Zn3   Zn    Zn3+2 0.447120 0.574690 0.447120 0.961950
Zn4   Zn    Zn3+2 0.394550 0.394550 0.574700 0.979351

loop_
_geom_bond_atom_site_label_1
_geom_bond_atom_site_label_2
_ccdc_geom_bond_type
C3    C42   A    
C34   C56   A    
C46   O7    S    
C53   H36   S    
C6    O6    S    
C52   H31   S    
C47   H20   S    
C46   H17   S    
O15   Zn4   S    
C53   C54   S    
C48   H22   S    
C39   O2    A    
C12   H9    S    
O1    Zn2   S    
C26   C27   A    
C24   C36   A    
C22   C32   A    
C13   C18   A    
C49   H25   S    
C12   C43   A    
C28   O12   A    
C31   C36   A    
C37   H43   S    
C11   C14   A    
C27   C29   A    
C22   H45   S    
C56   C57   A    
C30   C38   A    
C15   C17   A    
C23   H8    S    
C16   O17   A    
O16   Zn1   S    
C43   O10   S    
C6    C15   A    
C3    C41   A    
C47   C48   S    
C8    C9    A    
C55   H41   S    
C4    O14   A    
C10   O7    S    
C35   H5    S    
O13   Zn2   S    
C19   H23   S    
C9    C10   A    
C54   H37   S    
C40   O3    A    
O5    Zn1   S    
C3    H1    S    
C5    C43   A    
C16   C24   S    
C33   H44   S    
C20   H11   S    
C16   O11   A    
C46   H16   S    
C24   C37   A    
C39   C42   S    
C28   O18   A    
C51   C52   S    
C49   H26   S    
O2    Zn2   S    
O18   Zn3   S    
C40   O5    A    
C50   C51   S    
C58   C59   A    
C22   C37   A    
C5    C45   A    
O1    Zn4   S    
C50   O9    S    
C1    O15   A    
C26   H4    S    
O14   Zn3   S    
C29   C30   A    
C27   H3    S    
C25   C38   A    
C31   C32   A    
C12   C23   A    
C28   C38   S    
C23   C34   A    
C8    C21   A    
C13   C21   A    
C54   H38   S    
C34   C45   A    
C44   H15   S    
O12   Zn4   S    
C50   H28   S    
C59   H10   S    
C30   C35   A    
C48   C49   S    
C17   H12   S    
C7    C19   A    
C52   H33   S    
C55   H40   S    
C36   H2    S    
C47   O8    S    
C54   C55   S    
C45   C59   A    
O11   Zn1   S    
C53   H35   S    
C1    C7    S    
C14   C19   A    
C8    H34   S    
C2    H7    S    
C51   H29   S    
C46   H18   S    
C41   H6    S    
C6    C20   A    
O1    Zn3   S    
C17   C18   A    
C58   H46   S    
C9    O8    S    
C32   C33   A    
C48   H21   S    
O17   Zn2   S    
C25   C26   A    
C41   C57   A    
C29   C31   A    
C2    C56   A    
C25   O9    S    
C51   H30   S    
C4    C21   S    
C11   C13   A    
C49   H24   S    
C57   C58   A    
C2    C42   A    
C55   H39   S    
C33   C35   A    
C4    O16   A    
C44   H13   S    
C1    O13   A    
O3    Zn4   S    
C44   H14   S    
C10   C11   A    
C50   H27   S    
C44   O6    S    
O4    Zn3   S    
C39   O4    A    
C7    C20   A    
C5    C40   S    
O1    Zn1   S    
C14   C15   A    
C52   H32   S    
C47   H19   S    
C18   H42   S    
C53   O10   S    
