data_mof_unit_26383.cif
_audit_creation_date              2012-10-26T19:40:08-0400
_audit_creation_method            fapswitch 2.2
_symmetry_space_group_name_H-M    P1
_symmetry_Int_Tables_number       1
_space_group_crystal_system       triclinic
_cell_length_a                    15.094585
_cell_length_b                    8.948799
_cell_length_c                    7.618166
_cell_angle_alpha                 101.950513
_cell_angle_beta                  95.521483
_cell_angle_gamma                 93.204201
_cell_volume                      999.03387858

loop_
_atom_site_label
_atom_site_type_symbol
_atom_type_description
_atom_site_fract_x
_atom_site_fract_y
_atom_site_fract_z
_atom_type_partial_charge
C1    C     C_R   0.495251 0.200532 0.453531 0.554697
C2    C     C_R   0.176477 0.350727 0.435426 0.179530
C3    C     C_R   0.769155 0.493889 0.514201 -0.011148
C4    C     C_R   0.230988 0.486669 0.509824 0.022878
C5    C     C_R   0.806045 0.352489 0.469581 0.191848
C6    C     C_R   0.194367 0.612409 0.611101 0.206424
C7    C     C_R   0.898839 0.345006 0.485018 -0.017583
C8    C     C_R   0.104229 0.603333 0.641665 -0.039019
C9    C     C_R   0.955113 0.477186 0.561722 -0.060274
C10   C     C_R   0.048438 0.471971 0.559193 -0.060928
C11   C     C_R   0.918139 0.615276 0.637561 0.048192
C12   C     C_R   0.503070 0.798425 0.544353 0.565469
C13   C     C_R   0.084922 0.339183 0.465676 0.043771
C14   C     C_R   0.936145 0.207023 0.423508 -0.039910
C15   C     C_R   0.068457 0.728706 0.745842 -0.069762
C16   C     C_3   0.731923 0.188401 0.230136 -0.038591
C17   C     C_3   0.661713 0.055449 0.174631 -0.303780
C18   C     C_3   0.208917 0.843787 0.533411 -0.009123
C19   C     C_3   0.280600 0.883130 0.423042 -0.344634
C20   C     C_3   0.409973 0.976820 0.133245 -0.020467
C21   C     C_3   0.360316 0.830639 0.020121 -0.327120
C22   C     C_3   0.639390 0.054969 0.731271 0.011951
C23   C     C_R   0.026956 0.202912 0.407262 0.293514
C24   C     C_3   0.681103 0.214171 0.814423 -0.342687
C25   C     C_3   0.345349 0.317511 0.975487 0.050112
C26   C     C_3   0.287889 0.200631 0.830985 -0.383896
C27   C     C_3   0.665759 0.646127 0.016033 0.040474
C28   C     C_3   0.739766 0.706933 0.168790 -0.362910
C29   C     C_R   0.976751 0.736959 0.744103 0.297189
C30   C     C_2   0.489036 0.031463 0.424231 0.194651
C31   C     C_2   0.508456 0.964828 0.565579 0.234187
C32   C     C_R   0.328764 0.495451 0.500855 0.587651
C33   C     C_R   0.671057 0.499348 0.501572 0.589479
C34   C     C_R   0.825046 0.624807 0.600873 0.185656
Cl1   Cl    Cl    0.777730 0.801282 0.635373 -0.677789
Cl2   Cl    Cl    0.223268 0.206636 0.289501 -0.703174
Cl3   Cl    Cl    0.059219 0.019033 0.319020 -0.562353
Cl4   Cl    Cl    0.942909 0.897252 0.892280 -0.507555
Cu1   Cu    Cu3+1 0.510010 0.517380 0.684380 1.054718
Cu2   Cu    Cu3+1 0.489990 0.482620 0.315620 1.047284
H1    H     H_    0.894140 0.101052 0.379810 0.209884
H2    H     H_    0.322458 0.785769 0.390370 0.172704
H3    H     H_    0.248569 0.905703 0.295251 0.193400
H4    H     H_    0.322285 0.985986 0.498910 0.144231
H5    H     H_    0.438723 0.042101 0.040385 0.203599
H6    H     H_    0.361408 0.045819 0.206536 0.163726
H7    H     H_    0.291347 0.854807 0.976613 0.155193
H8    H     H_    0.394485 0.788580 0.899706 0.221700
H9    H     H_    0.356834 0.738855 0.097660 0.167244
H10   H     H_    0.663843 0.022034 0.595987 0.183061
H11   H     H_    0.663689 0.973398 0.810481 0.193308
H12   H     H_    0.112114 0.824062 0.825256 0.190151
H13   H     H_    0.750693 0.209673 0.873579 0.123532
H14   H     H_    0.683830 0.279423 0.708220 0.203899
H15   H     H_    0.639554 0.273145 0.915285 0.166597
H16   H     H_    0.311663 0.426532 0.998242 0.152274
H17   H     H_    0.352264 0.270898 0.098183 0.208768
H18   H     H_    0.317402 0.088487 0.814426 0.156648
H19   H     H_    0.219477 0.187587 0.870746 0.167128
H20   H     H_    0.284044 0.237925 0.700719 0.178795
H21   H     H_    0.666805 0.719924 0.915867 0.193663
H22   H     H_    0.682212 0.528338 0.957649 0.135664
H23   H     H_    0.792681 0.157539 0.163106 0.159501
H24   H     H_    0.714086 0.785967 0.280712 0.214667
H25   H     H_    0.767909 0.610712 0.220348 0.138258
H26   H     H_    0.794944 0.767838 0.118584 0.176767
H27   H     H_    0.706729 0.289011 0.183807 0.141269
H28   H     H_    0.600769 0.089693 0.105019 0.193674
H29   H     H_    0.644478 0.010810 0.292451 0.203814
H30   H     H_    0.689045 0.961970 0.084246 0.114718
H31   H     H_    0.186767 0.950492 0.613386 0.189185
H32   H     H_    0.150191 0.788591 0.436077 0.190202
N1    N     N_2   0.474890 0.456420 0.038520 0.066534
N2    N     N_2   0.525110 0.543580 0.961480 0.076307
O1    O     O_R   0.506510 0.286130 0.619770 -0.435449
O2    O     O_3   0.243105 0.752813 0.652206 -0.614749
O3    O     O_3   0.479495 0.939332 0.249721 -0.571921
O4    O     O_3   0.545543 0.051784 0.729849 -0.576309
O5    O     O_3   0.429599 0.338721 0.919141 -0.455157
O6    O     O_3   0.581639 0.646569 0.081048 -0.436573
O7    O     O_R   0.493490 0.713870 0.380230 -0.445321
O8    O     O_R   0.489600 0.256770 0.308360 -0.541006
O9    O     O_R   0.510400 0.743230 0.691640 -0.510982
O10   O     O_R   0.378710 0.514640 0.655720 -0.492904
O11   O     O_R   0.621290 0.485360 0.344280 -0.485471
O12   O     O_R   0.361800 0.485290 0.344300 -0.544944
O13   O     O_R   0.638200 0.514710 0.655700 -0.561010
O14   O     O_3   0.750845 0.219926 0.418462 -0.595238

loop_
_geom_bond_atom_site_label_1
_geom_bond_atom_site_label_2
_ccdc_geom_bond_type
Cu2   O11   S    
C17   H29   S    
N1    N2    D    
C28   H26   S    
C25   H16   S    
Cu1   O13   S    
C21   H9    S    
C24   H15   S    
C20   O3    S    
Cu1   O10   S    
C18   C19   S    
C30   C31   D    
C3    C33   S    
C24   H14   S    
Cu2   N1    S    
C13   C23   A    
C34   Cl1   S    
Cu1   N2    S    
Cu2   O12   S    
C2    C13   A    
C33   O11   A    
C27   H21   S    
C5    O14   S    
C7    C14   A    
C16   C17   S    
C29   Cl4   S    
C16   H23   S    
Cu1   O1    S    
C9    C10   A    
C20   H5    S    
C19   H2    S    
C22   H10   S    
C21   H8    S    
C17   H30   S    
N2    O6    S    
C30   O3    S    
C25   H17   S    
C19   H3    S    
C15   C29   A    
C18   H32   S    
C32   O10   A    
C1    O1    A    
Cu2   O8    S    
C22   O4    S    
C4    C6    A    
C27   O6    S    
Cu1   Cu2   S    
C5    C7    A    
C6    C8    A    
C3    C34   A    
C1    O8    A    
C23   Cl3   S    
C12   O9    A    
C14   C23   A    
C2    C4    A    
C27   H22   S    
C9    C11   A    
C32   O12   A    
N1    O5    S    
C16   H27   S    
C15   H12   S    
C26   H18   S    
C4    C32   S    
C14   H1    S    
C28   H24   S    
C8    C15   A    
C12   C31   S    
C22   C24   S    
C19   H4    S    
C31   O4    S    
C26   H19   S    
C2    Cl2   S    
C18   H31   S    
C7    C9    A    
C17   H28   S    
C18   O2    S    
C25   O5    S    
Cu2   O7    S    
C11   C34   A    
C3    C5    A    
C10   C13   A    
C6    O2    S    
C24   H13   S    
C28   H25   S    
C25   C26   S    
Cu1   O9    S    
C1    C30   S    
C12   O7    A    
C33   O13   A    
C20   C21   S    
C11   C29   A    
C8    C10   A    
C27   C28   S    
C16   O14   S    
C26   H20   S    
C20   H6    S    
C22   H11   S    
C21   H7    S    
