data_mof_unit_34935.cif
_audit_creation_date              2012-12-10T16:56:33-0500
_audit_creation_method            fapswitch 2.2
_symmetry_space_group_name_H-M    P1
_symmetry_Int_Tables_number       1
_space_group_crystal_system       triclinic
_cell_length_a                    7.96232
_cell_length_b                    8.568844
_cell_length_c                    15.685754
_cell_angle_alpha                 93.243078
_cell_angle_beta                  87.681415
_cell_angle_gamma                 92.006385
_cell_volume                      1067.04254017

loop_
_atom_site_label
_atom_site_type_symbol
_atom_type_description
_atom_site_fract_x
_atom_site_fract_y
_atom_site_fract_z
_atom_type_partial_charge
C1    C     C_R   0.543757 0.793405 0.499075 0.955728
C2    C     C_R   0.456360 0.206655 0.502073 0.955088
C3    C     C_R   0.504464 0.500765 0.661465 0.888711
C4    C     C_R   0.495081 0.497939 0.338532 0.893935
C5    C     C_2   0.567105 0.956435 0.501083 -0.385481
C6    C     C_2   0.433165 0.043768 0.502513 -0.390101
C7    C     C_3   0.441929 0.622241 0.032380 -0.228008
C8    C     C_3   0.528124 0.336997 0.966408 -0.225577
C9    C     C_3   0.606082 0.587387 0.979196 -0.253498
C10   C     C_3   0.364947 0.371516 0.020870 -0.228140
C11   C     C_1   0.514395 0.496444 0.750255 -0.186153
C12   C     C_1   0.480497 0.489673 0.249638 -0.198733
C13   C     C_3   0.340107 0.516201 0.968833 0.178287
C14   C     C_3   0.630235 0.441524 0.030243 0.167216
C15   C     C_3   0.502609 0.482966 0.916698 0.166721
C16   C     C_3   0.469126 0.477047 0.082902 0.176948
C17   C     C_1   0.515686 0.490642 0.825581 -0.088830
C18   C     C_1   0.468746 0.482339 0.174369 -0.081942
H1    H     H_    0.705777 0.674685 0.961263 0.144720
H2    H     H_    0.266449 0.284182 0.039618 0.138194
H3    H     H_    0.403842 0.738048 0.060562 0.137792
H4    H     H_    0.565244 0.221705 0.937112 0.138755
H5    H     H_    0.694954 0.003954 0.501654 0.176765
H6    H     H_    0.305287 0.996034 0.502807 0.174932
N1    N     N_2   0.950320 0.457950 0.477300 -0.066046
N2    N     N_2   0.049680 0.542050 0.522700 -0.065135
O1    O     O_R   0.389250 0.738570 0.505570 -0.627537
O2    O     O_R   0.610750 0.261430 0.494430 -0.628847
O3    O     O_R   0.678390 0.711630 0.491020 -0.643556
O4    O     O_R   0.321610 0.288370 0.508980 -0.641958
O5    O     O_R   0.355460 0.513480 0.630490 -0.621772
O6    O     O_R   0.644540 0.486520 0.369510 -0.617982
O7    O     O_R   0.644600 0.486540 0.615950 -0.647499
O8    O     O_R   0.355400 0.513460 0.384050 -0.646180
Zn1   Zn    Zn3+2 0.306940 0.517990 0.509710 0.916938
Zn2   Zn    Zn3+2 0.693060 0.482010 0.490290 0.914925
C19   C     C_3   0.795534 0.392253 0.065567 -0.446671
C20   C     C_3   0.774985 0.236890 0.109791 -0.310974
C21   C     C_3   0.944458 0.163094 0.118046 -0.924119
H7    H     H_    0.000523 0.131008 0.053720 0.252802
H8    H     H_    0.031415 0.246167 0.152689 0.264983
H9    H     H_    0.926674 0.054908 0.153542 0.257258
H10   H     H_    0.715484 0.257179 0.174535 0.228640
H11   H     H_    0.693552 0.152250 0.072721 0.218863
H12   H     H_    0.887598 0.378325 0.011468 0.217975
H13   H     H_    0.843863 0.485735 0.111035 0.199080
C22   C     C_3   0.175660 0.555865 0.928958 -0.441529
C23   C     C_3   0.111934 0.420213 0.868757 -0.342066
C24   C     C_3   0.949658 0.458866 0.827874 -0.884256
H14   H     H_    0.845182 0.456644 0.875830 0.267345
H15   H     H_    0.960081 0.576402 0.801725 0.260995
H16   H     H_    0.920828 0.370228 0.775639 0.255744
H17   H     H_    0.205663 0.394285 0.816401 0.241738
H18   H     H_    0.091010 0.312134 0.904178 0.211476
H19   H     H_    0.080351 0.582125 0.980879 0.192188
H20   H     H_    0.198285 0.662702 0.892597 0.203483
C25   C     C_3   0.015574 0.364103 0.404323 -0.166657
C26   C     C_3   0.932400 0.200411 0.400841 -0.351149
C27   C     C_3   0.036828 0.082827 0.346658 -0.967184
H21   H     H_    0.069891 0.127992 0.283230 0.270364
H22   H     H_    0.154878 0.060920 0.378551 0.266631
H23   H     H_    0.964205 0.970384 0.338119 0.270939
H24   H     H_    0.919269 0.158825 0.466598 0.234169
H25   H     H_    0.807012 0.204609 0.372778 0.251634
H26   H     H_    0.992895 0.422667 0.344631 0.160487
H27   H     H_    0.147985 0.346614 0.407632 0.246869
C28   C     C_3   0.983208 0.627538 0.598326 -0.165756
C29   C     C_3   0.076946 0.784991 0.613290 -0.357394
C30   C     C_3   0.987427 0.889435 0.681722 -0.973426
H28   H     H_    0.859141 0.914763 0.662000 0.267285
H29   H     H_    0.978271 0.832156 0.743521 0.263541
H30   H     H_    0.059698 0.001990 0.690739 0.268559
H31   H     H_    0.205426 0.767076 0.634542 0.263283
H32   H     H_    0.083608 0.846394 0.552753 0.230373
H33   H     H_    0.853772 0.656554 0.591945 0.241748
H34   H     H_    0.993499 0.555640 0.654207 0.170049

loop_
_geom_bond_atom_site_label_1
_geom_bond_atom_site_label_2
_ccdc_geom_bond_type
C25   H27   S    
C21   H8    S    
C23   H18   S    
O3    Zn2   S    
O4    Zn1   S    
C1    C5    S    
N2    C28   S    
O6    Zn2   S    
C5    C6    D    
C3    O7    A    
C29   H32   S    
O7    Zn2   S    
C7    C9    S    
O8    Zn1   S    
C30   H29   S    
C9    H1    S    
C10   H2    S    
C29   C30   S    
C24   H15   S    
C8    H4    S    
C4    C12   S    
C27   H21   S    
C2    C6    S    
N1    C25   S    
C21   H9    S    
C26   H25   S    
C23   H17   S    
C4    O8    A    
C27   H22   S    
C28   C29   S    
C21   H7    S    
C13   C22   S    
O1    Zn1   S    
N1    N2    D    
C7    H3    S    
C30   H30   S    
C9    C14   S    
C20   H11   S    
C19   C20   S    
C22   C23   S    
C5    H5    S    
C24   H16   S    
C6    H6    S    
C1    O3    A    
C3    O5    A    
C4    O6    A    
C8    C10   S    
C23   C24   S    
C8    C15   S    
C13   C15   S    
O5    Zn1   S    
C26   C27   S    
C28   H33   S    
C19   H12   S    
C22   H19   S    
C26   H24   S    
C15   C17   S    
C11   C17   T    
C27   H23   S    
C8    C14   S    
C7    C16   S    
C25   H26   S    
C10   C13   S    
C2    O4    A    
C29   H31   S    
C20   H10   S    
C10   C16   S    
C14   C19   S    
C25   C26   S    
C20   C21   S    
C14   C16   S    
C9    C15   S    
C30   H28   S    
C3    C11   S    
N1    Zn2   S    
N2    Zn1   S    
C7    C13   S    
O2    Zn2   S    
C16   C18   S    
C24   H14   S    
C12   C18   T    
C1    O1    A    
C2    O2    A    
C28   H34   S    
C19   H13   S    
C22   H20   S    
