data_mof_unit_48159.cif
_audit_creation_date              2012-12-11T15:34:56-0500
_audit_creation_method            fapswitch 2.2
_symmetry_space_group_name_H-M    P1
_symmetry_Int_Tables_number       1
_space_group_crystal_system       triclinic
_cell_length_a                    30.456436
_cell_length_b                    7.239155
_cell_length_c                    26.040224
_cell_angle_alpha                 90.000915
_cell_angle_beta                  112.103333
_cell_angle_gamma                 89.999671
_cell_volume                      5319.37070213

loop_
_atom_site_label
_atom_site_type_symbol
_atom_type_description
_atom_site_fract_x
_atom_site_fract_y
_atom_site_fract_z
_atom_type_partial_charge
O1    O     O_R   0.295360 0.592990 0.320420 -0.542559
O2    O     O_R   0.704640 0.407010 0.679580 -0.540827
O3    O     O_R   0.204640 0.092990 0.179580 -0.542552
O4    O     O_R   0.795360 0.907010 0.820420 -0.540830
O5    O     O_R   0.294060 0.265620 0.213230 -0.547787
O6    O     O_R   0.705940 0.734380 0.786770 -0.543591
O7    O     O_R   0.205940 0.765620 0.286770 -0.547771
O8    O     O_R   0.794060 0.234380 0.713230 -0.543585
C1    C     C_R   0.304264 0.432366 0.199500 0.702529
C2    C     C_R   0.695606 0.567649 0.800308 0.683649
C3    C     C_R   0.195740 0.932365 0.300505 0.702540
C4    C     C_R   0.804395 0.067647 0.699694 0.683672
O9    O     O_R   0.300850 0.263360 0.322080 -0.521173
O10   O     O_R   0.699150 0.736640 0.677920 -0.536652
O11   O     O_R   0.199150 0.763360 0.177920 -0.521175
O12   O     O_R   0.800850 0.236640 0.822080 -0.536652
O13   O     O_R   0.211480 0.091820 0.289210 -0.533798
O14   O     O_R   0.788520 0.908180 0.710790 -0.535184
O15   O     O_R   0.288520 0.591820 0.210790 -0.533789
O16   O     O_R   0.711480 0.408180 0.789210 -0.535185
C5    C     C_R   0.313187 0.430926 0.343333 0.746353
C6    C     C_R   0.687123 0.569217 0.656343 0.769838
C7    C     C_R   0.186812 0.930922 0.156666 0.746281
C8    C     C_R   0.812875 0.069220 0.843658 0.769831
O17   O     O_3   0.220670 0.426670 0.239090 -0.378234
O18   O     O_3   0.779330 0.573330 0.760910 -0.379517
O19   O     O_3   0.279330 0.926670 0.260910 -0.378240
O20   O     O_3   0.720670 0.073330 0.739090 -0.379513
V1    V     V_3+5 0.255440 0.152290 0.252020 1.415431
V2    V     V_3+5 0.744560 0.847710 0.747980 1.392208
V3    V     V_3+5 0.244560 0.652290 0.247980 1.415457
V4    V     V_3+5 0.755440 0.347710 0.752020 1.392216
C9    C     C_R   0.849346 0.068910 0.900637 -0.183662
C10   C     C_R   0.150210 0.930377 0.099925 -0.202233
C11   C     C_R   0.650651 0.568902 0.599366 -0.183647
C12   C     C_R   0.349785 0.430406 0.400075 -0.202297
C13   C     C_R   0.875365 0.168451 0.996758 0.308341
C14   C     C_R   0.123209 0.804234 0.006619 0.333590
C15   C     C_R   0.624633 0.668393 0.503242 0.308326
C16   C     C_R   0.376776 0.304332 0.493387 0.333356
C17   C     C_R   0.840418 0.162852 0.942907 0.301244
C18   C     C_R   0.159888 0.840246 0.057585 0.326197
C19   C     C_R   0.659580 0.662802 0.557092 0.301243
C20   C     C_R   0.340099 0.340340 0.442418 0.326314
C21   C     C_R   0.894937 0.998391 0.911102 -0.305119
C22   C     C_R   0.103900 0.990087 0.090197 -0.296779
C23   C     C_R   0.605055 0.498424 0.588905 -0.305121
C24   C     C_R   0.396096 0.490107 0.409806 -0.296824
C25   C     C_R   0.932744 0.023565 0.963445 0.035502
C26   C     C_R   0.065897 0.957024 0.038560 0.038185
C27   C     C_R   0.567248 0.523598 0.536563 0.035500
C28   C     C_R   0.434095 0.457087 0.461447 0.038254
C29   C     C_R   0.921808 0.107928 0.006408 -0.006151
C30   C     C_R   0.076705 0.866735 0.996341 -0.026210
C31   C     C_R   0.578188 0.607908 0.493596 -0.006136
C32   C     C_R   0.423282 0.366847 0.503670 -0.026106
C33   C     C_R   0.981078 0.971460 0.974401 0.099173
C34   C     C_R   0.017449 0.006181 0.027830 0.098337
C35   C     C_R   0.518912 0.471537 0.525611 0.099168
C36   C     C_R   0.482543 0.506226 0.472178 0.098336
C37   C     C_R   0.004051 0.086308 0.069062 -0.205394
C38   C     C_R   0.994366 0.887574 0.933582 -0.200224
C39   C     C_R   0.495944 0.586302 0.430942 -0.205412
C40   C     C_R   0.505618 0.387730 0.566436 -0.200211
C41   C     C_R   0.957471 0.134749 0.058603 -0.147681
C42   C     C_R   0.040872 0.836074 0.944456 -0.170848
C43   C     C_R   0.542525 0.634715 0.441400 -0.147693
C44   C     C_R   0.459110 0.336249 0.555562 -0.170930
C45   C     C_R   0.086892 0.891925 0.474637 0.562401
C46   C     C_R   0.912268 0.110048 0.524374 0.563549
C47   C     C_R   0.413219 0.391459 0.025499 0.562387
C48   C     C_R   0.587703 0.610497 0.975599 0.563555
N1    N     N_R   0.072754 0.972753 0.423230 -0.553883
N2    N     N_R   0.926443 0.029259 0.575805 -0.553950
N3    N     N_R   0.427299 0.472750 0.076838 -0.553874
N4    N     N_R   0.573583 0.529277 0.924229 -0.553923
C49   C     C_R   0.030258 0.064592 0.401373 0.566870
C50   C     C_R   0.969007 0.937846 0.597680 0.568776
C51   C     C_R   0.469731 0.565059 0.098622 0.566883
C52   C     C_R   0.531076 0.437430 0.902424 0.568780
C53   C     C_R   0.000354 0.078294 0.431404 -0.024583
C54   C     C_R   0.998867 0.924050 0.567613 -0.025425
C55   C     C_R   0.499630 0.578764 0.068584 -0.024574
C56   C     C_R   0.501226 0.423608 0.932503 -0.025401
C57   C     C_R   0.014384 0.995314 0.484058 -0.016637
C58   C     C_R   0.984807 0.006903 0.514943 -0.016679
C59   C     C_R   0.485659 0.495317 0.015998 -0.016656
C60   C     C_R   0.515230 0.506911 0.985106 -0.016699
C61   C     C_R   0.057935 0.900844 0.505915 -0.021767
C62   C     C_R   0.941241 0.101280 0.493087 -0.022024
C63   C     C_R   0.442173 0.400377 0.994216 -0.021754
C64   C     C_R   0.558733 0.601745 0.006888 -0.022010
C65   C     C_R   0.956795 0.172367 0.410019 -0.149028
C66   C     C_R   0.042422 0.829963 0.588999 -0.147043
C67   C     C_R   0.543126 0.673298 0.089896 -0.149037
C68   C     C_R   0.457735 0.329057 0.911190 -0.147038
C69   C     C_R   0.927607 0.183677 0.440464 -0.148693
C70   C     C_R   0.071579 0.818477 0.558535 -0.148896
C71   C     C_R   0.572309 0.684601 0.059445 -0.148683
C72   C     C_R   0.428585 0.317554 0.941663 -0.148901
O21   O     O_2   0.129104 0.804975 0.495804 -0.539423
O22   O     O_2   0.870022 0.196832 0.503196 -0.534649
O23   O     O_2   0.371068 0.304050 0.004401 -0.539453
O24   O     O_2   0.629897 0.697693 0.996715 -0.534671
O25   O     O_2   0.016701 0.141098 0.350507 -0.530064
O26   O     O_2   0.982696 0.861882 0.648631 -0.528605
O27   O     O_2   0.483230 0.642032 0.149423 -0.530087
O28   O     O_2   0.517433 0.361060 0.851528 -0.528636
H1    H     H_    0.894320 0.257235 0.422590 0.166091
H2    H     H_    0.104858 0.744842 0.576397 0.165901
H3    H     H_    0.605549 0.758518 0.077263 0.166084
H4    H     H_    0.395356 0.243553 0.923857 0.165893
C73   C     C_R   0.878473 0.877381 0.622122 -0.104537
C74   C     C_R   0.114727 0.790745 0.375223 -0.102475
C75   C     C_R   0.621610 0.377406 0.877981 -0.104561
C76   C     C_R   0.385450 0.290797 0.125000 -0.102539
H5    H     H_    0.887265 0.743826 0.609855 0.129674
H6    H     H_    0.100432 0.664860 0.385196 0.126056
H7    H     H_    0.612874 0.243863 0.890315 0.129803
H8    H     H_    0.399849 0.164945 0.115159 0.126232
C77   C     C_R   0.849248 0.886498 0.652603 -0.207086
C78   C     C_R   0.144732 0.780459 0.345638 -0.220459
C79   C     C_R   0.650825 0.386515 0.847488 -0.207105
C80   C     C_R   0.355429 0.280508 0.154564 -0.220610
H9    H     H_    0.836210 0.758553 0.663122 0.145818
H10   H     H_    0.153190 0.645674 0.333828 0.127667
H11   H     H_    0.663912 0.258579 0.837030 0.145877
H12   H     H_    0.347071 0.145752 0.166501 0.127770
C81   C     C_R   0.836591 0.058248 0.668547 -0.052780
C82   C     C_R   0.163464 0.942099 0.331597 -0.042257
C83   C     C_R   0.663417 0.558252 0.831464 -0.052768
C84   C     C_R   0.336554 0.442109 0.168426 -0.042258
C85   C     C_R   0.854318 0.220401 0.653388 -0.203946
C86   C     C_R   0.151212 0.113933 0.347954 -0.193746
C87   C     C_R   0.645631 0.720396 0.846550 -0.203953
C88   C     C_R   0.348686 0.613910 0.151918 -0.193828
C89   C     C_R   0.883780 0.210858 0.623139 -0.089988
C90   C     C_R   0.121665 0.123697 0.378020 -0.107415
C91   C     C_R   0.616174 0.710859 0.876804 -0.089957
C92   C     C_R   0.378255 0.623667 0.121878 -0.107720
H13   H     H_    0.897162 0.337313 0.612199 0.130029
H14   H     H_    0.113203 0.257278 0.390610 0.122059
H15   H     H_    0.602742 0.837307 0.887682 0.130172
H16   H     H_    0.386624 0.757210 0.109169 0.122268
C93   C     C_R   0.896073 0.039311 0.607160 0.374903
C94   C     C_R   0.103166 0.962297 0.391959 0.385916
C95   C     C_R   0.603949 0.539326 0.892868 0.374815
C96   C     C_R   0.396888 0.462305 0.108109 0.385993
H17   H     H_    0.949668 0.197101 0.092043 0.169234
H18   H     H_    0.048616 0.770386 0.911432 0.169153
H19   H     H_    0.550331 0.697028 0.407957 0.169230
H20   H     H_    0.451362 0.270628 0.588591 0.169123
H21   H     H_    0.845337 0.355107 0.664664 0.136711
H22   H     H_    0.164407 0.241573 0.337572 0.126560
H23   H     H_    0.654559 0.855094 0.835207 0.136719
H24   H     H_    0.335373 0.741525 0.162150 0.126767
H25   H     H_    0.098657 0.055509 0.124575 0.135260
H26   H     H_    0.900106 0.933333 0.876618 0.134922
H27   H     H_    0.401342 0.555487 0.375424 0.135262
H28   H     H_    0.599885 0.433393 0.623392 0.134915
O29   O     O_3   0.204590 0.770172 0.067283 -0.567161
C97   C     C_3   0.235712 0.913871 0.066040 0.101092
H29   H     H_    0.266436 0.912961 0.106175 0.121246
H30   H     H_    0.220168 0.055783 0.061058 0.083381
C98   C     C_3   0.253128 0.876510 0.019113 -0.324311
H31   H     H_    0.268695 0.735567 0.023935 0.214626
H32   H     H_    0.222631 0.883217 0.978745 0.221941
C99   C     C_3   0.290432 0.016867 0.019092 -0.751648
H33   H     H_    0.275967 0.159406 0.014959 0.244716
H34   H     H_    0.301393 0.988762 0.983719 0.252609
H35   H     H_    0.322062 0.005592 0.058111 0.223552
O30   O     O_3   0.796597 0.243725 0.932172 -0.577419
C100  C     C_3   0.800610 0.438948 0.931106 0.132802
H36   H     H_    0.787135 0.485133 0.887263 0.138150
H37   H     H_    0.837606 0.492476 0.951185 0.117239
C101  C     C_3   0.770519 0.526821 0.960106 -0.299745
H38   H     H_    0.733589 0.475001 0.941307 0.212306
H39   H     H_    0.784948 0.487121 0.004564 0.215563
C102  C     C_3   0.770360 0.737123 0.955648 -0.809949
H40   H     H_    0.807006 0.791558 0.975362 0.217873
H41   H     H_    0.748316 0.796931 0.977109 0.246332
H42   H     H_    0.755389 0.780687 0.911519 0.235808
O31   O     O_3   0.295397 0.270218 0.432705 -0.567081
C103  C     C_3   0.264258 0.413891 0.433922 0.100865
H43   H     H_    0.233349 0.411846 0.393968 0.121545
H44   H     H_    0.279654 0.555957 0.438391 0.083317
C104  C     C_3   0.247252 0.377778 0.481246 -0.324308
H45   H     H_    0.231865 0.236636 0.476930 0.214806
H46   H     H_    0.277915 0.385774 0.521431 0.221849
C105  C     C_3   0.209891 0.517944 0.481225 -0.751666
H47   H     H_    0.224153 0.660671 0.484783 0.244615
H48   H     H_    0.199277 0.490950 0.516915 0.252636
H49   H     H_    0.178086 0.505240 0.442446 0.223663
O32   O     O_3   0.703404 0.743641 0.567824 -0.577413
C106  C     C_3   0.699398 0.938868 0.568883 0.132717
H50   H     H_    0.712854 0.985069 0.612725 0.138145
H51   H     H_    0.662407 0.992415 0.548778 0.117287
C107  C     C_3   0.729516 0.026695 0.539912 -0.299640
H52   H     H_    0.766446 0.974886 0.558746 0.212311
H53   H     H_    0.715114 0.986942 0.495457 0.215552
C108  C     C_3   0.729668 0.237003 0.544348 -0.809962
H54   H     H_    0.693024 0.291423 0.524594 0.217860
H55   H     H_    0.751737 0.296779 0.522915 0.246368
H56   H     H_    0.744606 0.280618 0.588474 0.235783
O33   O     O_3   0.865209 0.250540 0.039029 -0.573656
C109  C     C_3   0.841087 0.121209 0.059467 0.064864
H57   H     H_    0.861409 0.989319 0.071353 0.117857
H58   H     H_    0.805244 0.092457 0.027706 0.162297
C110  C     C_3   0.835319 0.201289 0.110822 -0.294121
H59   H     H_    0.870869 0.229576 0.143101 0.205539
H60   H     H_    0.815481 0.333699 0.099918 0.199304
C111  C     C_3   0.808645 0.068192 0.134156 -0.807861
H61   H     H_    0.772649 0.040556 0.102826 0.238838
H62   H     H_    0.805061 0.130157 0.171390 0.236741
H63   H     H_    0.828277 0.935759 0.146267 0.234220
O34   O     O_3   0.133511 0.711195 0.966087 -0.567711
C112  C     C_3   0.129404 0.519431 0.973417 0.089154
H64   H     H_    0.092707 0.483646 0.969669 0.114102
H65   H     H_    0.154933 0.473830 0.014767 0.149647
C113  C     C_3   0.140458 0.415425 0.928678 -0.303735
H66   H     H_    0.116045 0.462619 0.887108 0.206812
H67   H     H_    0.177434 0.446141 0.932930 0.207099
C114  C     C_3   0.134873 0.207329 0.933279 -0.793624
H68   H     H_    0.159038 0.157232 0.974473 0.223464
H69   H     H_    0.143806 0.135352 0.900839 0.243938
H70   H     H_    0.097755 0.173180 0.927470 0.239301
O35   O     O_3   0.634790 0.750450 0.460968 -0.573654
C115  C     C_3   0.658911 0.621096 0.440535 0.064879
H71   H     H_    0.638586 0.489213 0.428649 0.117838
H72   H     H_    0.694753 0.592340 0.472298 0.162302
C116  C     C_3   0.664684 0.701150 0.389181 -0.294117
H73   H     H_    0.629136 0.729444 0.356899 0.205528
H74   H     H_    0.684525 0.833554 0.400084 0.199323
C117  C     C_3   0.691357 0.568027 0.365851 -0.807845
H75   H     H_    0.727351 0.540381 0.397184 0.238844
H76   H     H_    0.694945 0.629975 0.328618 0.236745
H77   H     H_    0.671721 0.435601 0.353739 0.234212
O36   O     O_3   0.366470 0.211222 0.533903 -0.567779
C118  C     C_3   0.370613 0.019484 0.526569 0.089414
H78   H     H_    0.407390 0.983742 0.530632 0.114195
H79   H     H_    0.345285 0.973972 0.485092 0.149351
C119  C     C_3   0.359211 0.915313 0.571034 -0.303340
H80   H     H_    0.383403 0.962390 0.612729 0.206823
H81   H     H_    0.322148 0.945975 0.566442 0.207052
C120  C     C_3   0.364847 0.707255 0.566439 -0.793937
H82   H     H_    0.340966 0.657367 0.525076 0.223314
H83   H     H_    0.355561 0.635099 0.598600 0.243813
H84   H     H_    0.402064 0.673122 0.572685 0.239396
H85   H     H_    0.028765 0.113551 0.110467 0.127568
H86   H     H_    0.969491 0.857622 0.892447 0.127807
H87   H     H_    0.471232 0.613528 0.389536 0.127566
H88   H     H_    0.530491 0.357834 0.607576 0.127806
H89   H     H_    0.945077 0.237607 0.369654 0.166497
H90   H     H_    0.054153 0.764772 0.629370 0.168039
H91   H     H_    0.554799 0.738903 0.130208 0.166485
H92   H     H_    0.446047 0.263510 0.870869 0.168035

loop_
_geom_bond_atom_site_label_1
_geom_bond_atom_site_label_2
_ccdc_geom_bond_type
O17   V3    S    
C52   O28   S    
C55   C59   A    
C59   C60   A    
C3    C82   S    
O1    C5    A    
C105  H47   S    
C70   H2    S    
C59   C63   A    
O19   V1    S    
O13   V1    S    
C108  H54   S    
C73   H5    S    
N2    C93   S    
O3    C7    A    
C114  H68   S    
C10   C18   A    
C48   N4    A    
C11   C23   A    
C92   C96   A    
C113  H67   S    
O29   C97   S    
C18   O29   S    
C87   H23   S    
C33   C38   A    
C5    C12   S    
C82   C86   A    
C100  H36   S    
C112  C113  S    
C85   C89   A    
C6    C11   S    
C91   C95   A    
C35   C40   A    
C98   H31   S    
C19   O32   S    
C85   H21   S    
C40   C44   A    
C89   C93   A    
C118  H78   S    
C14   C18   A    
C83   C87   A    
C66   H90   S    
O4    C8    A    
C109  H58   S    
C84   C88   A    
C100  C101  S    
C66   C70   A    
C75   C95   A    
O1    V3    S    
C110  C111  S    
C9    C21   A    
C103  H43   S    
C80   C84   A    
O2    V4    S    
C56   C68   A    
C32   C44   A    
C73   C93   A    
O3    V1    S    
C2    C83   S    
C115  H71   S    
C104  C105  S    
C89   H13   S    
C28   C36   A    
C105  H49   S    
C38   H86   S    
C40   H88   S    
C91   H15   S    
C1    O15   A    
C101  C102  S    
C15   C31   A    
C60   C64   A    
N4    C95   S    
C2    O16   A    
C16   C32   A    
O2    C6    A    
C119  H81   S    
C45   N1    A    
C107  H52   S    
C10   C22   A    
C21   C25   A    
C63   C72   A    
C116  C117  S    
C11   C19   A    
C62   C69   A    
C15   O35   S    
C88   C92   A    
C80   H12   S    
C102  H42   S    
C13   C29   A    
C34   C37   A    
C99   H34   S    
O32   C106  S    
O15   V3    S    
C35   C36   A    
O12   C8    A    
C120  H82   S    
C41   H17   S    
C108  H55   S    
C46   C62   A    
C65   H89   S    
C117  H76   S    
O10   V2    S    
C45   C61   A    
C115  H72   S    
C113  H66   S    
C17   O30   S    
C22   C26   A    
C119  H80   S    
C16   C20   A    
C23   H28   S    
C99   H35   S    
C107  H53   S    
C24   H27   S    
C39   C43   A    
C114  H70   S    
C119  C120  S    
O7    V3    S    
C4    C81   S    
C38   C42   A    
C43   H19   S    
C52   C56   A    
C26   C34   A    
C92   H16   S    
C75   C79   A    
O34   C112  S    
C68   H92   S    
C116  H74   S    
C58   C62   A    
C14   O34   S    
C76   C96   A    
C57   C61   A    
C109  H57   S    
C15   C19   A    
C48   O24   S    
C27   C31   A    
C112  H64   S    
C57   C58   A    
C22   H25   S    
C76   H8    S    
C117  H77   S    
O8    V4    S    
C78   H10   S    
O7    C3    A    
O31   C103  S    
C77   H9    S    
C44   H20   S    
C97   C98   S    
C53   C65   A    
C50   C54   A    
C65   C69   A    
C79   H11   S    
O35   C115  S    
C14   C30   A    
C111  H63   S    
C49   C53   A    
O8    C4    A    
C7    C10   S    
C55   C67   A    
C107  C108  S    
C46   O22   S    
C110  H59   S    
C51   O27   S    
C118  H79   S    
C26   C30   A    
O11   V3    S    
C20   O31   S    
C74   C94   A    
C74   H6    S    
C100  H37   S    
C81   C85   A    
O33   C109  S    
C37   H85   S    
C99   H33   S    
O6    V2    S    
C111  H62   S    
C72   H4    S    
C98   C99   S    
C75   H7    S    
C120  H83   S    
C90   H14   S    
O14   V2    S    
C108  H56   S    
C36   C39   A    
C12   C20   A    
C27   C35   A    
C117  H75   S    
C54   C66   A    
O5    V1    S    
C67   H91   S    
C29   C41   A    
O30   C100  S    
C97   H29   S    
O16   V4    S    
C1    C84   S    
O9    V1    S    
C47   O23   S    
O36   C118  S    
C3    O13   A    
C105  H48   S    
C76   C80   A    
C79   C83   A    
C13   O33   S    
C21   H26   S    
N4    C52   A    
C77   C81   A    
C49   O25   S    
C39   H87   S    
C86   C90   A    
C25   C33   A    
C23   C27   A    
C114  H69   S    
C42   H18   S    
O18   V4    S    
C45   O21   S    
N3    C96   S    
O12   V4    S    
C73   C77   A    
C71   H3    S    
C87   C91   A    
C8    C9    S    
C103  C104  S    
N1    C94   S    
C50   O26   S    
C9    C17   A    
C106  C107  S    
O20   V2    S    
C69   H1    S    
C31   C43   A    
C97   H30   S    
C54   C58   A    
O9    C5    A    
C47   N3    A    
C109  C110  S    
O10   C6    A    
C33   C34   A    
C86   H22   S    
C56   C60   A    
C61   C70   A    
C90   C94   A    
C48   C64   A    
C68   C72   A    
C74   C78   A    
O11   C7    A    
C110  H60   S    
C103  H44   S    
C12   C24   A    
C118  C119  S    
C67   C71   A    
C113  C114  S    
C88   H24   S    
C13   C17   A    
C112  H65   S    
C46   N2    A    
O4    V2    S    
C104  H46   S    
C25   C29   A    
O6    C2    A    
C101  H38   S    
C106  H50   S    
C51   C55   A    
C37   C41   A    
C24   C28   A    
C47   C63   A    
C111  H61   S    
C98   H32   S    
N2    C50   A    
C120  H84   S    
C4    O14   A    
C116  H73   S    
C102  H40   S    
N1    C49   A    
C104  H45   S    
O5    C1    A    
C102  H41   S    
C30   C42   A    
N3    C51   A    
C16   O36   S    
C78   C82   A    
C115  C116  S    
C53   C57   A    
C28   C32   A    
C64   C71   A    
C101  H39   S    
C106  H51   S    
