data_mof_unit_19884.cif
_audit_creation_date              2012-12-10T19:50:00-0500
_audit_creation_method            fapswitch 2.2
_symmetry_space_group_name_H-M    P1
_symmetry_Int_Tables_number       1
_space_group_crystal_system       triclinic
_cell_length_a                    14.17202
_cell_length_b                    14.968451
_cell_length_c                    15.529101
_cell_angle_alpha                 90.06503
_cell_angle_beta                  67.656298
_cell_angle_gamma                 90.138041
_cell_volume                      3046.89746223

loop_
_atom_site_label
_atom_site_type_symbol
_atom_type_description
_atom_site_fract_x
_atom_site_fract_y
_atom_site_fract_z
_atom_type_partial_charge
C1    C     C_R   0.500030 0.671967 0.500122 0.865961
C2    C     C_R   0.499933 0.328053 0.499664 0.871603
C3    C     C_R   0.378746 0.480281 0.105847 -0.232691
C4    C     C_R   0.617831 0.459704 0.896234 -0.225387
C5    C     C_R   0.303027 0.478204 0.068591 0.203578
C6    C     C_R   0.693918 0.465874 0.932563 0.204951
C7    C     C_R   0.570835 0.908025 0.434122 -0.166316
C8    C     C_R   0.513057 0.092200 0.566724 -0.168949
C9    C     C_R   0.574921 0.815671 0.431768 -0.079143
C10   C     C_R   0.515065 0.184508 0.569356 -0.076982
C11   C     C_R   0.498513 0.767854 0.502844 -0.163598
C12   C     C_R   0.499611 0.232141 0.497566 -0.167581
C13   C     C_R   0.418040 0.811845 0.574695 0.187142
C14   C     C_R   0.481554 0.188245 0.424287 0.183951
C15   C     C_R   0.410541 0.905196 0.570649 0.202399
C16   C     C_R   0.472526 0.094633 0.426768 0.208930
C17   C     C_R   0.489452 0.951780 0.501287 0.008582
C18   C     C_R   0.490146 0.048151 0.498093 0.026703
C19   C     C_R   0.862474 0.473684 0.578815 -0.266423
C20   C     C_R   0.137148 0.472185 0.421740 -0.274904
C21   C     C_R   0.763928 0.472967 0.577127 0.039349
C22   C     C_R   0.235660 0.471427 0.423478 0.030069
C23   C     C_R   0.436279 0.499619 0.676165 0.864630
C24   C     C_R   0.563670 0.498059 0.323988 0.871300
C25   C     C_R   0.827821 0.526972 0.422598 0.031501
C26   C     C_R   0.172577 0.528447 0.576833 0.021021
C27   C     C_R   0.927952 0.527338 0.420884 -0.256886
C28   C     C_R   0.072445 0.528849 0.578549 -0.261732
C29   C     C_R   0.946792 0.500917 0.499956 0.132491
C30   C     C_R   0.053219 0.500919 0.500033 0.134455
C31   C     C_R   0.396289 0.492311 0.777434 -0.064838
C32   C     C_R   0.603443 0.491381 0.222832 -0.062196
C33   C     C_R   0.261308 0.458162 0.926119 0.009923
C34   C     C_R   0.736290 0.511079 0.069706 0.010119
C35   C     C_R   0.294310 0.472006 0.829826 -0.289640
C36   C     C_R   0.703961 0.512913 0.166991 -0.282248
C37   C     C_R   0.465887 0.496096 0.820217 -0.240275
C38   C     C_R   0.535009 0.468431 0.182377 -0.241230
C39   C     C_R   0.437696 0.476851 0.914216 0.047498
C40   C     C_R   0.560799 0.475303 0.087018 0.045154
C41   C     C_R   0.332087 0.469068 0.970961 0.134632
C42   C     C_R   0.665651 0.485267 0.028387 0.128356
C43   C     C_R   0.513380 0.470914 0.952599 0.036235
C44   C     C_R   0.483876 0.472854 0.049499 0.036376
H1    H     H_    0.872743 0.451367 0.640964 0.139903
H2    H     H_    0.126592 0.448732 0.360021 0.143336
H3    H     H_    0.700698 0.450213 0.637962 0.123957
H4    H     H_    0.298518 0.447426 0.363206 0.118249
H5    H     H_    0.814430 0.548385 0.361715 0.122171
H6    H     H_    0.186299 0.551035 0.637251 0.126615
H7    H     H_    0.989960 0.549471 0.358509 0.143335
H8    H     H_    0.010756 0.552185 0.640460 0.149384
H9    H     H_    0.460751 0.444404 0.226938 0.150100
H10   H     H_    0.543005 0.516730 0.779222 0.160343
H11   H     H_    0.755916 0.534658 0.199185 0.148805
H12   H     H_    0.241404 0.463154 0.795145 0.153709
H13   H     H_    0.353160 0.492944 0.179606 0.147566
H14   H     H_    0.641711 0.442239 0.823447 0.148835
H15   H     H_    0.629366 0.946895 0.381536 0.205789
H16   H     H_    0.526677 0.053529 0.619909 0.200076
N1    N     N_R   0.747530 0.500020 0.500000 -0.091892
N2    N     N_R   0.252470 0.499980 0.500000 -0.089158
O1    O     O_R   0.420530 0.630930 0.499990 -0.595642
O2    O     O_R   0.579470 0.369070 0.500010 -0.617728
O3    O     O_R   0.579480 0.630940 0.499990 -0.618185
O4    O     O_R   0.420520 0.369060 0.500010 -0.604726
O5    O     O_R   0.375120 0.499990 0.632240 -0.624261
O6    O     O_R   0.624880 0.500010 0.367760 -0.625533
O7    O     O_R   0.534080 0.500000 0.632240 -0.632927
O8    O     O_R   0.465920 0.500000 0.367760 -0.627998
Zn1   Zn    Zn3+2 0.393860 0.499990 0.500000 0.943790
Zn2   Zn    Zn3+2 0.606140 0.500010 0.500000 0.947808
C45   C     C_3   0.195837 0.501446 0.134179 -0.856006
H17   H     H_    0.197455 0.548941 0.188675 0.217403
H18   H     H_    0.152634 0.536054 0.097746 0.232343
H19   H     H_    0.155058 0.440426 0.169865 0.274725
C46   C     C_3   0.800395 0.438831 0.869027 -0.842551
H20   H     H_    0.796936 0.379966 0.826640 0.224255
H21   H     H_    0.837992 0.494298 0.820690 0.264209
H22   H     H_    0.847503 0.417650 0.908253 0.234838
C47   C     C_2   0.157263 0.420913 0.972283 0.383098
H23   H     H_    0.097001 0.441339 0.949514 0.054521
O9    O     O_2   0.139535 0.362733 0.031392 -0.552372
C48   C     C_2   0.838363 0.549768 0.017036 0.389007
H24   H     H_    0.899317 0.541164 0.042473 0.055721
O10   O     O_2   0.853543 0.596453 0.948645 -0.557067
C49   C     C_2   0.656985 0.770706 0.352881 0.431415
H25   H     H_    0.654623 0.699442 0.341445 0.064288
O11   O     O_2   0.728413 0.813260 0.298484 -0.559651
C50   C     C_2   0.529560 0.229682 0.649135 0.431424
H26   H     H_    0.518451 0.301049 0.659914 0.066402
O12   O     O_2   0.553275 0.187224 0.704952 -0.561846
C51   C     C_3   0.343199 0.760738 0.656929 -0.861090
H27   H     H_    0.369061 0.692349 0.663971 0.232994
H28   H     H_    0.334230 0.795142 0.722975 0.243778
H29   H     H_    0.268071 0.756092 0.650270 0.243980
C52   C     C_3   0.472912 0.242184 0.344597 -0.864085
H30   H     H_    0.536176 0.291493 0.318874 0.225647
H31   H     H_    0.478493 0.201295 0.283455 0.246633
H32   H     H_    0.398882 0.277983 0.368741 0.248100
C53   C     C_3   0.320243 0.956205 0.638330 -0.875347
H33   H     H_    0.343681 0.992915 0.689097 0.247790
H34   H     H_    0.291844 0.004713 0.599763 0.247300
H35   H     H_    0.254438 0.912918 0.677418 0.250949
C54   C     C_3   0.441657 0.045547 0.355961 -0.891870
H36   H     H_    0.504829 0.048255 0.286509 0.249940
H37   H     H_    0.422327 0.974361 0.373582 0.249103
H38   H     H_    0.372233 0.076673 0.352294 0.250413

loop_
_geom_bond_atom_site_label_1
_geom_bond_atom_site_label_2
_ccdc_geom_bond_type
C22   H4    S    
C49   H25   S    
C51   H27   S    
C27   C29   A    
C11   C13   A    
C45   H17   S    
C23   O7    A    
C1    C11   S    
C2    C12   S    
C47   H23   S    
C24   O8    A    
C39   C41   A    
C20   C30   A    
C46   H20   S    
C54   H37   S    
C53   H33   S    
C32   C36   A    
C19   C21   A    
C48   O10   D    
C26   H6    S    
C20   H2    S    
C15   C17   A    
C23   O5    A    
C52   H31   S    
C27   H7    S    
C7    C17   A    
C34   C42   A    
C1    O3    A    
O8    Zn1   S    
C14   C16   A    
C32   C38   A    
C21   N1    A    
C40   C42   A    
C51   H28   S    
C45   H18   S    
C34   C48   S    
C1    O1    A    
C7    H15   S    
C47   O9    D    
C2    O2    A    
C52   H30   S    
C46   H21   S    
C54   H38   S    
C3    C44   A    
C48   H24   S    
C4    C6    A    
C6    C46   S    
C39   C43   A    
C3    C5    A    
C8    C18   A    
C31   C37   A    
C13   C51   S    
C23   C31   S    
O7    Zn2   S    
C43   C44   A    
C24   C32   S    
C29   C30   S    
C22   N2    A    
C50   O12   D    
O4    Zn1   S    
O6    Zn2   S    
C17   C18   S    
C16   C18   A    
C25   N1    A    
C15   C53   S    
C9    C11   A    
O1    Zn1   S    
C10   C12   A    
C16   C54   S    
C37   H10   S    
C3    H13   S    
N1    Zn2   S    
C8    C10   A    
C12   C14   A    
C51   H29   S    
C13   C15   A    
C45   H19   S    
C31   C35   A    
C25   C27   A    
C19   C29   A    
C52   H32   S    
C14   C52   S    
C46   H22   S    
C7    C9    A    
C5    C41   A    
C35   H12   S    
C20   C22   A    
C2    O4    A    
C19   H1    S    
C4    C43   A    
C53   H35   S    
O3    Zn2   S    
C54   H36   S    
C26   C28   A    
C33   C41   A    
C28   C30   A    
C26   N2    A    
C37   C39   A    
C36   H11   S    
C8    H16   S    
C38   C40   A    
C28   H8    S    
C50   H26   S    
C38   H9    S    
C33   C35   A    
C34   C36   A    
N2    Zn1   S    
O5    Zn1   S    
O2    Zn2   S    
C5    C45   S    
C25   H5    S    
C24   O6    A    
C40   C44   A    
C10   C50   S    
C53   H34   S    
C6    C42   A    
C4    H14   S    
C49   O11   D    
C33   C47   S    
C9    C49   S    
C21   H3    S    
