data_mof_unit_34919.cif
_audit_creation_date              2013-03-05T16:02:45-0500
_audit_creation_method            fapswitch 2.2
_symmetry_space_group_name_H-M    P1
_symmetry_Int_Tables_number       1
_space_group_crystal_system       triclinic
_cell_length_a                    23.47783
_cell_length_b                    11.726139
_cell_length_c                    10.428498
_cell_angle_alpha                 89.874535
_cell_angle_beta                  89.869408
_cell_angle_gamma                 90.142796
_cell_volume                      2870.98702795

loop_
_atom_site_label
_atom_site_type_symbol
_atom_site_description
_atom_site_fract_x
_atom_site_fract_y
_atom_site_fract_z
_atom_type_partial_charge
O1    O     O_R   0.500000 0.337200 0.605810 -0.572863
O2    O     O_R   0.500000 0.662800 0.394190 -0.572074
O3    O     O_R   0.500000 0.662800 0.605810 -0.572026
O4    O     O_R   0.500000 0.337200 0.394190 -0.571262
C1    C     C_R   0.500072 0.283217 0.500109 0.819798
C2    C     C_R   0.499930 0.716783 0.499888 0.819339
O5    O     O_R   0.417880 0.500000 0.605840 -0.561542
O6    O     O_R   0.582120 0.500000 0.394160 -0.562102
O7    O     O_R   0.582120 0.500000 0.605840 -0.561851
O8    O     O_R   0.417880 0.500000 0.394160 -0.562626
C3    C     C_R   0.390713 0.500022 0.500262 0.925279
C4    C     C_R   0.609274 0.499966 0.499986 0.927424
Cu1   Cu    Cu3+1 0.500000 0.500000 0.625300 0.999332
Cu2   Cu    Cu3+1 0.500000 0.500000 0.374700 0.983241
C5    C     C_R   0.876075 0.575259 0.500585 0.650993
C6    C     C_R   0.123660 0.421111 0.510831 0.641259
C7    C     C_R   0.885071 0.378405 0.551827 0.639718
C8    C     C_R   0.114163 0.620450 0.544563 0.655029
N1    N     N_R   0.851358 0.471924 0.529990 -0.431094
N2    N     N_R   0.148271 0.526149 0.531458 -0.429053
C9    C     C_R   0.944475 0.384615 0.533439 -0.161036
C10   C     C_R   0.055030 0.612613 0.524304 -0.157638
C11   C     C_R   0.935412 0.590531 0.509620 -0.146930
C12   C     C_R   0.064309 0.406284 0.521187 -0.156797
C13   C     C_R   0.969873 0.493024 0.521514 -0.154075
C14   C     C_R   0.029699 0.503922 0.522231 -0.149043
C15   C     C_R   0.979039 0.286140 0.529232 0.377769
C16   C     C_R   0.020757 0.710356 0.508478 0.342867
C17   C     C_R   0.960988 0.699908 0.505867 0.351665
C18   C     C_R   0.038811 0.297100 0.528359 0.334973
O9    O     O_2   0.843270 0.662875 0.461373 -0.513486
O10   O     O_2   0.156445 0.331326 0.478534 -0.514731
O11   O     O_2   0.862053 0.281068 0.596260 -0.514418
O12   O     O_2   0.136250 0.720426 0.582866 -0.511419
C19   C     C_R   0.241821 0.608930 0.459019 0.335653
C20   C     C_R   0.757773 0.388233 0.462129 0.339134
C21   C     C_R   0.240338 0.452640 0.612430 0.349332
C22   C     C_R   0.759709 0.549716 0.608165 0.346621
C23   C     C_R   0.299459 0.585134 0.431028 0.219959
C24   C     C_R   0.700369 0.412905 0.432589 0.219260
C25   C     C_R   0.298218 0.432159 0.589266 0.286515
C26   C     C_R   0.701836 0.569559 0.585389 0.294247
C27   C     C_R   0.328359 0.502414 0.502752 -0.369606
C28   C     C_R   0.671592 0.497341 0.501873 -0.370357
C29   C     C_R   0.210205 0.533167 0.537907 0.004037
C30   C     C_R   0.789489 0.465883 0.537578 0.006208
C31   C     C_1   0.500045 0.161898 0.500269 -0.183071
C32   C     C_1   0.499999 0.838104 0.499725 -0.182553
C33   C     C_1   0.500035 0.059706 0.500141 -0.008616
C34   C     C_1   0.500034 0.940296 0.499865 -0.007699
N3    N     N_1   0.500000 0.500000 0.186410 -0.150983
N4    N     N_1   0.500000 0.500000 0.813590 -0.136899
C35   C     C_1   0.499997 0.500001 0.071947 0.062968
C36   C     C_1   0.499997 0.500001 0.928058 0.100823
O13   O     O_3   0.954606 0.178377 0.528279 -0.579094
C37   C     C_3   0.959876 0.129240 0.404646 0.064911
H1    H     H_    0.963065 0.035472 0.417405 0.186086
H2    H     H_    0.998930 0.156389 0.351557 0.150806
C38   C     C_3   0.907326 0.155067 0.323162 -0.310329
H3    H     H_    0.868686 0.124871 0.374211 0.250055
H4    H     H_    0.903702 0.248562 0.307762 0.224603
C39   C     C_3   0.910695 0.095953 0.193156 -0.945343
H5    H     H_    0.948378 0.126990 0.138549 0.253771
H6    H     H_    0.871719 0.115086 0.137011 0.267049
H7    H     H_    0.913852 0.002082 0.206039 0.264247
O14   O     O_3   0.045584 0.816312 0.490273 -0.592264
C40   C     C_3   0.049736 0.837103 0.356937 0.075782
H8    H     H_    0.006644 0.853629 0.316614 0.155127
H9    H     H_    0.069345 0.763475 0.305560 0.142318
C41   C     C_3   0.087354 0.941605 0.333857 -0.309410
H10   H     H_    0.070923 0.014441 0.390189 0.247044
H11   H     H_    0.131272 0.923164 0.366802 0.236022
C42   C     C_3   0.088958 0.974696 0.192279 -0.941427
H12   H     H_    0.106197 0.903481 0.133938 0.262896
H13   H     H_    0.116837 0.050477 0.179067 0.270240
H14   H     H_    0.045501 0.996279 0.158139 0.251262
O15   O     O_3   0.927562 0.796993 0.499599 -0.577512
C43   C     C_3   0.928034 0.852398 0.620061 0.106842
H15   H     H_    0.966219 0.908448 0.626553 0.180803
H16   H     H_    0.928359 0.790821 0.702086 0.111427
C44   C     C_3   0.874545 0.925550 0.632564 -0.299711
H17   H     H_    0.870922 0.983166 0.548349 0.238915
H18   H     H_    0.836518 0.869022 0.634827 0.238751
C45   C     C_3   0.875763 0.997040 0.754633 -0.874663
H19   H     H_    0.878473 0.940938 0.840443 0.237929
H20   H     H_    0.836218 0.048390 0.761372 0.268492
H21   H     H_    0.912860 0.056114 0.753213 0.285254
O16   O     O_3   0.071758 0.199530 0.533461 -0.586417
C46   C     C_3   0.081147 0.171011 0.663344 0.091675
H22   H     H_    0.039989 0.155621 0.714171 0.138863
H23   H     H_    0.104903 0.240650 0.712528 0.163651
C47   C     C_3   0.116554 0.062001 0.669777 -0.297781
H24   H     H_    0.092352 0.990956 0.625300 0.259040
H25   H     H_    0.156793 0.074337 0.615078 0.230754
C48   C     C_3   0.130670 0.029865 0.807957 -0.924257
H26   H     H_    0.156674 0.097873 0.853340 0.255003
H27   H     H_    0.155350 0.949206 0.809166 0.275219
H28   H     H_    0.090950 0.017037 0.864335 0.256156
O17   O     O_3   0.218014 0.711411 0.420591 -0.579456
C49   C     C_3   0.247181 0.806695 0.476170 0.174114
H29   H     H_    0.218422 0.881216 0.467883 0.154823
H30   H     H_    0.285503 0.828843 0.418700 0.165196
C50   C     C_3   0.263611 0.793505 0.620077 -0.393570
H31   H     H_    0.227327 0.760259 0.676994 0.256151
H32   H     H_    0.299397 0.732488 0.630579 0.198677
C51   C     C_3   0.282427 0.906119 0.679161 -0.906997
H33   H     H_    0.321860 0.937311 0.631982 0.260292
H34   H     H_    0.291525 0.893249 0.782644 0.260737
H35   H     H_    0.248220 0.970597 0.670091 0.262717
O18   O     O_3   0.781792 0.285113 0.426340 -0.589711
C52   C     C_3   0.750715 0.190243 0.478027 0.158832
H36   H     H_    0.778099 0.113816 0.467861 0.147918
H37   H     H_    0.712411 0.172067 0.419382 0.173443
C53   C     C_3   0.734079 0.200324 0.621996 -0.385520
H38   H     H_    0.771926 0.219654 0.681208 0.259325
H39   H     H_    0.702730 0.269844 0.636616 0.200703
C54   C     C_3   0.707177 0.090770 0.672816 -0.919618
H40   H     H_    0.666667 0.072956 0.621960 0.260778
H41   H     H_    0.697624 0.100433 0.776569 0.262354
H42   H     H_    0.736919 0.018255 0.660855 0.260973
O19   O     O_3   0.211999 0.387293 0.702890 -0.561540
C55   C     C_3   0.214588 0.445077 0.821370 0.067117
H43   H     H_    0.193513 0.530025 0.814291 0.130074
H44   H     H_    0.259735 0.456854 0.851699 0.164964
C56   C     C_3   0.183745 0.374424 0.923457 -0.326222
H45   H     H_    0.138152 0.365263 0.896830 0.205276
H46   H     H_    0.202995 0.288022 0.928360 0.229308
C57   C     C_3   0.187821 0.430339 0.055237 -0.919736
H47   H     H_    0.233045 0.437011 0.085402 0.247910
H48   H     H_    0.164454 0.377806 0.126896 0.270893
H49   H     H_    0.168707 0.516890 0.052959 0.254038
O20   O     O_3   0.788345 0.619881 0.692814 -0.561548
C58   C     C_3   0.792640 0.562499 0.811492 0.068765
H50   H     H_    0.818150 0.482942 0.801164 0.138582
H51   H     H_    0.749469 0.540678 0.849301 0.154363
C59   C     C_3   0.822326 0.640382 0.907838 -0.323501
H52   H     H_    0.865905 0.660963 0.872659 0.211329
H53   H     H_    0.798096 0.721330 0.916760 0.233394
C60   C     C_3   0.826410 0.583922 0.039603 -0.915307
H54   H     H_    0.783184 0.564522 0.077561 0.250772
H55   H     H_    0.848164 0.642459 0.107354 0.271413
H56   H     H_    0.851278 0.503642 0.033354 0.254556
O21   O     O_3   0.329278 0.651507 0.343775 -0.594775
C61   C     C_3   0.314188 0.616538 0.218806 0.096324
H57   H     H_    0.268221 0.633219 0.200261 0.160463
H58   H     H_    0.323041 0.523843 0.205563 0.140880
C62   C     C_3   0.349494 0.683777 0.121194 -0.312118
H59   H     H_    0.340633 0.776330 0.132210 0.219034
H60   H     H_    0.395544 0.669252 0.139495 0.236608
C63   C     C_3   0.335613 0.647769 0.984079 -0.950605
H61   H     H_    0.345671 0.556110 0.970029 0.262127
H62   H     H_    0.361517 0.698804 0.915543 0.268158
H63   H     H_    0.289815 0.662343 0.963161 0.249580
O22   O     O_3   0.670766 0.347532 0.344657 -0.595940
C64   C     C_3   0.687623 0.381313 0.220036 0.093909
H64   H     H_    0.733444 0.361483 0.203379 0.159109
H65   H     H_    0.680530 0.474568 0.205806 0.141417
C65   C     C_3   0.652121 0.316405 0.121476 -0.312642
H66   H     H_    0.659239 0.223298 0.133446 0.218646
H67   H     H_    0.606189 0.334191 0.137870 0.236691
C66   C     C_3   0.667952 0.351165 0.984678 -0.949571
H68   H     H_    0.659745 0.443495 0.969647 0.262569
H69   H     H_    0.641780 0.301960 0.915484 0.267865
H70   H     H_    0.713634 0.333193 0.965584 0.250250
O23   O     O_3   0.324052 0.341828 0.652708 -0.571639
C67   C     C_3   0.339716 0.254951 0.564565 0.090575
H71   H     H_    0.364407 0.189973 0.618450 0.161860
H72   H     H_    0.368684 0.286845 0.488202 0.109212
C68   C     C_3   0.287907 0.195452 0.504006 -0.318595
H73   H     H_    0.261909 0.154643 0.580394 0.237925
H74   H     H_    0.260964 0.258505 0.453213 0.251656
C69   C     C_3   0.306400 0.106469 0.405811 -0.949100
H75   H     H_    0.327506 0.148888 0.322981 0.263975
H76   H     H_    0.268469 0.059506 0.370409 0.257464
H77   H     H_    0.336628 0.044809 0.448736 0.255310
O24   O     O_3   0.676170 0.661660 0.645677 -0.569603
C70   C     C_3   0.660473 0.746381 0.554647 0.087299
H78   H     H_    0.637246 0.814205 0.607323 0.165065
H79   H     H_    0.630188 0.713385 0.482045 0.109146
C71   C     C_3   0.712128 0.801377 0.487468 -0.319603
H80   H     H_    0.740576 0.839683 0.560358 0.233939
H81   H     H_    0.736515 0.736009 0.433781 0.246266
C72   C     C_3   0.693565 0.892461 0.391617 -0.945793
H82   H     H_    0.668871 0.852789 0.312594 0.263972
H83   H     H_    0.731731 0.934933 0.350144 0.259805
H84   H     H_    0.666667 0.957671 0.438864 0.255443

loop_
_geom_bond_atom_site_label_1
_geom_bond_atom_site_label_2
_geom_bond_distance
_ccdc_geom_bond_type
C65   H67   1.111781 S    
O13   C37   1.418622 S    
O23   C67   1.422116 S    
C21   C29   1.413759 A    
C64   H65   1.116180 S    
C48   H26   1.110502 S    
C42   H13   1.110506 S    
C42   H12   1.110906 S    
C19   C23   1.412350 A    
C52   H36   1.109385 S    
C45   H21   1.111535 S    
O3    C2    1.271936 A    
C57   H47   1.110688 S    
C66   H70   1.111169 S    
C53   H38   1.106485 S    
C48   H28   1.111008 S    
C31   C33   1.198317 T    
O15   C43   1.415614 S    
C71   H80   1.108150 S    
O5    C3    1.273681 A    
C1    C31   1.422602 S    
C7    O11   1.342762 S    
C21   C25   1.401086 A    
O1    C1    1.272333 A    
C11   C17   1.415238 A    
C16   C17   1.408612 A    
C62   H60   1.111778 S    
C45   H20   1.110028 S    
C22   C26   1.399837 A    
C54   H41   1.110591 S    
C60   H56   1.110918 S    
C43   H16   1.118243 S    
C51   H33   1.108328 S    
O21   C61   1.412734 S    
C37   H1    1.110004 S    
C68   H73   1.109412 S    
O7    Cu1   1.938190 S    
O18   C52   1.432475 S    
C49   H29   1.108983 S    
C39   H6    1.110574 S    
C65   C66   1.527665 S    
C44   H18   1.110807 S    
C5    N1    1.375899 A    
C52   H37   1.109186 S    
C62   H59   1.111707 S    
C69   H76   1.110215 S    
O20   C58   1.411352 S    
C70   H79   1.109436 S    
C63   H63   1.111200 S    
C25   O23   1.389069 S    
C56   C57   1.527056 S    
C20   C30   1.415987 A    
C41   H10   1.107333 S    
C46   H23   1.114385 S    
N2    C29   1.457925 S    
O3    Cu1   1.919362 S    
C71   C72   1.526268 S    
O6    C4    1.275770 A    
C51   H34   1.110636 S    
C5    C11   1.407521 A    
O14   C40   1.414283 S    
C9    C15   1.413711 A    
C38   H3    1.107757 S    
C6    C12   1.407659 A    
C10   C16   1.411645 A    
Cu1   Cu2   2.613382 S    
C64   C65   1.527947 S    
C67   H72   1.109748 S    
C25   C27   1.408672 A    
C24   O22   1.383799 S    
C67   H71   1.110944 S    
O2    C2    1.272307 A    
C26   C28   1.408160 A    
C61   C62   1.527848 S    
C19   O17   1.385406 S    
C47   H25   1.111447 S    
C66   H69   1.110520 S    
N4    C36   1.193729 T    
C44   H17   1.110416 S    
N1    C30   1.456070 S    
C38   H4    1.111188 S    
C40   H8    1.113781 S    
C20   C24   1.413643 A    
C62   C63   1.527475 S    
C45   H19   1.111540 S    
C61   H58   1.115974 S    
O8    Cu2   1.938193 S    
C54   H42   1.108700 S    
C43   H15   1.112569 S    
C61   H57   1.114542 S    
C23   C27   1.401116 A    
C13   C14   1.410110 A    
C35   C36   1.500548 S    
C47   C48   1.526032 S    
C7    C9    1.409037 A    
N3    C35   1.193674 T    
C59   C60   1.527287 S    
C65   H66   1.111719 S    
C16   O14   1.383609 S    
C72   H82   1.110921 S    
C39   H5    1.111150 S    
C58   C59   1.527537 S    
Cu1   N4    1.963583 S    
Cu2   N3    1.963582 S    
C24   C28   1.401102 A    
C6    N2    1.376733 A    
C70   C71   1.538730 S    
C41   C42   1.526120 S    
C49   H30   1.109866 S    
O22   C64   1.413191 S    
C50   H32   1.110367 S    
C46   C47   1.527958 S    
C3    C27   1.464433 S    
C8    O12   1.342682 S    
O19   C55   1.411817 S    
C2    C32   1.422615 S    
C21   O19   1.382460 S    
C59   H53   1.111806 S    
O24   C70   1.422399 S    
C23   O21   1.383870 S    
C33   C34   1.400227 S    
C20   O18   1.387033 S    
C56   H45   1.111479 S    
C42   H14   1.110986 S    
C63   H62   1.110482 S    
C72   H84   1.108564 S    
O1    Cu1   1.920247 S    
C52   C53   1.555317 S    
C18   O16   1.383655 S    
C19   C29   1.416956 A    
C57   H49   1.110939 S    
C64   H64   1.114511 S    
C44   C45   1.526041 S    
C69   H75   1.110868 S    
C56   H46   1.111546 S    
C68   H74   1.108843 S    
C9    C13   1.407913 A    
C48   H27   1.110480 S    
C38   C39   1.526030 S    
O6    Cu2   1.939111 S    
C71   H81   1.109703 S    
C39   H7    1.111290 S    
C8    C10   1.407581 A    
C12   C14   1.405662 A    
C59   H52   1.111891 S    
C57   H48   1.110544 S    
C53   H39   1.110194 S    
C60   H54   1.111283 S    
C69   H77   1.108795 S    
C5    O9    1.348896 S    
C6    O10   1.348627 S    
C15   O13   1.386510 S    
C37   C38   1.530203 S    
C40   C41   1.527056 S    
C55   C56   1.527676 S    
C72   H83   1.110440 S    
C46   H22   1.115192 S    
C4    C28   1.463668 S    
C26   O24   1.388980 S    
O17   C49   1.433218 S    
C60   H55   1.110517 S    
C43   C44   1.528070 S    
C58   H50   1.115150 S    
C66   H68   1.110992 S    
O4    C1    1.271908 A    
C32   C34   1.198322 T    
C47   H24   1.110216 S    
C7    N1    1.372947 A    
C37   H2    1.115364 S    
C50   C51   1.523315 S    
C8    N2    1.373767 A    
C49   C50   1.557830 S    
O4    Cu2   1.919362 S    
O2    Cu2   1.920248 S    
O7    C4    1.273502 A    
C12   C18   1.413761 A    
C22   C30   1.414678 A    
C53   C54   1.523664 S    
O8    C3    1.275898 A    
O5    Cu1   1.939113 S    
C11   C13   1.407748 A    
C17   O15   1.385822 S    
O16   C46   1.412378 S    
C67   C68   1.538300 S    
C70   H78   1.111016 S    
C10   C14   1.405337 A    
C50   H31   1.106803 S    
C58   H51   1.115660 S    
C63   H61   1.110958 S    
C41   H11   1.109209 S    
C68   C69   1.526690 S    
C40   H9    1.116818 S    
C55   H43   1.115709 S    
C54   H40   1.109630 S    
C55   H44   1.115175 S    
C22   O20   1.382505 S    
C15   C18   1.408887 A    
C51   H35   1.108437 S    
