data_mof_unit_64419.cif
_audit_creation_date              2012-12-10T18:43:24-0500
_audit_creation_method            fapswitch 2.2
_symmetry_space_group_name_H-M    P1
_symmetry_Int_Tables_number       1
_space_group_crystal_system       triclinic
_cell_length_a                    38.7633
_cell_length_b                    45.002746
_cell_length_c                    29.643708
_cell_angle_alpha                 90.0
_cell_angle_beta                  130.583996
_cell_angle_gamma                 89.999959
_cell_volume                      39272.92211

loop_
_atom_site_label
_atom_site_type_symbol
_atom_type_description
_atom_site_fract_x
_atom_site_fract_y
_atom_site_fract_z
_atom_type_partial_charge
C1    C     C_R   0.290616 0.209252 0.081306 0.911671
C2    C     C_R   0.464726 0.248289 0.999166 0.323826
C3    C     C_R   0.534872 0.750445 0.999992 0.283828
C4    C     C_3   0.156064 0.392359 0.756544 -0.160318
C5    C     C_3   0.843957 0.391847 0.244484 -0.160366
C6    C     C_3   0.655942 0.891016 0.753847 -0.160502
C7    C     C_3   0.343950 0.891949 0.244281 -0.160260
C8    C     C_3   0.150849 0.358486 0.744614 -0.161217
C9    C     C_3   0.850146 0.357970 0.256414 -0.161251
C10   C     C_3   0.648239 0.857167 0.741988 -0.161312
C11   C     C_3   0.349949 0.858071 0.256214 -0.161276
C12   C     C_1   0.186966 0.312944 0.874048 -0.184269
C13   C     C_R   0.035277 0.748290 0.000841 0.323851
C14   C     C_1   0.813034 0.312944 0.125952 -0.184267
C15   C     C_1   0.686966 0.812944 0.874048 -0.184270
C16   C     C_1   0.313034 0.812944 0.125952 -0.184267
C17   C     C_1   0.062843 0.437059 0.625929 -0.180425
C18   C     C_1   0.937157 0.437059 0.374071 -0.180424
C19   C     C_1   0.562843 0.937059 0.625929 -0.180424
C20   C     C_1   0.437157 0.937059 0.374071 -0.180421
C21   C     C_3   0.151019 0.387965 0.803806 -0.159859
C22   C     C_3   0.848007 0.387970 0.196194 -0.159842
C23   C     C_3   0.653508 0.887942 0.803735 -0.159830
C24   C     C_R   0.964726 0.748288 0.999167 0.323835
C25   C     C_3   0.348197 0.887970 0.196192 -0.159833
C26   C     C_3   0.145405 0.354491 0.791077 0.200904
C27   C     C_3   0.854595 0.354491 0.208923 0.200900
C28   C     C_3   0.645405 0.854491 0.791078 0.200911
C29   C     C_3   0.354595 0.854491 0.208923 0.200896
C30   C     C_3   0.098873 0.391563 0.755452 -0.160309
C31   C     C_3   0.900133 0.392079 0.243520 -0.160223
C32   C     C_3   0.601483 0.892883 0.758079 -0.160042
C33   C     C_3   0.400330 0.891979 0.243720 -0.160327
C34   C     C_3   0.104318 0.395557 0.708990 0.201278
C35   C     C_R   0.959342 0.459310 0.418633 0.907980
C36   C     C_3   0.895682 0.395557 0.291010 0.201273
C37   C     C_3   0.604318 0.895557 0.708990 0.201270
C38   C     C_3   0.395682 0.895557 0.291011 0.201272
C39   C     C_R   0.182538 0.249983 0.999991 0.865752
C40   C     C_R   0.817462 0.249983 0.000009 0.865672
C41   C     C_R   0.682538 0.749983 0.999991 0.865659
C42   C     C_R   0.317462 0.749983 0.000009 0.865627
C43   C     C_3   0.093659 0.357688 0.743524 -0.162588
C44   C     C_3   0.906321 0.358200 0.255448 -0.162562
C45   C     C_3   0.593781 0.859032 0.746222 -0.162524
C46   C     C_R   0.040659 0.459310 0.581367 0.907980
C47   C     C_3   0.406327 0.858098 0.255651 -0.162544
C48   C     C_3   0.098706 0.362083 0.696264 -0.162843
C49   C     C_3   0.902269 0.362078 0.303737 -0.162879
C50   C     C_3   0.596217 0.862106 0.696335 -0.162933
C51   C     C_3   0.402079 0.862077 0.303739 -0.162874
C52   C     C_1   0.168171 0.331734 0.836532 -0.072291
C53   C     C_1   0.831829 0.331734 0.163468 -0.072287
C54   C     C_1   0.668172 0.831734 0.836532 -0.072290
C55   C     C_1   0.331829 0.831734 0.163468 -0.072285
C56   C     C_1   0.081582 0.418295 0.663499 -0.073018
C57   C     C_R   0.459342 0.959310 0.418633 0.907980
C58   C     C_1   0.918418 0.418295 0.336502 -0.073015
C59   C     C_1   0.581582 0.918295 0.663498 -0.073018
C60   C     C_1   0.418418 0.918295 0.336502 -0.073011
C61   C     C_R   0.540575 0.040622 0.581297 0.905882
C62   C     C_R   0.459425 0.040622 0.418703 0.905889
C63   C     C_R   0.040575 0.540622 0.581296 0.905882
C64   C     C_R   0.959425 0.540622 0.418703 0.905881
C65   C     C_R   0.358153 0.226345 0.970796 -0.286490
C66   C     C_R   0.641891 0.226375 0.029296 -0.286443
C67   C     C_R   0.858154 0.726344 0.970798 -0.286415
C68   C     C_R   0.540659 0.959310 0.581367 0.907980
C69   C     C_R   0.141890 0.726374 0.029294 -0.286408
C70   C     C_R   0.394521 0.225123 0.971408 0.552113
C71   C     C_R   0.605526 0.225153 0.028691 0.552096
C72   C     C_R   0.894522 0.725122 0.971411 0.552091
C73   C     C_R   0.105525 0.725152 0.028689 0.552082
C74   C     C_R   0.426822 0.248264 0.998913 -0.022922
C75   C     C_R   0.573182 0.248269 0.001098 -0.022892
C76   C     C_R   0.926823 0.748263 0.998915 -0.022912
C77   C     C_R   0.073181 0.748267 0.001097 -0.022892
C78   C     C_R   0.423272 0.271461 0.027311 -0.239272
C79   C     C_3   0.363442 0.127746 0.284145 -0.240647
C80   C     C_R   0.576691 0.271439 0.972615 -0.239250
C81   C     C_R   0.923272 0.771460 0.027312 -0.239217
C82   C     C_R   0.076691 0.771439 0.972616 -0.239220
C83   C     C_R   0.387962 0.271842 0.028385 -0.189999
C84   C     C_R   0.612000 0.271819 0.971540 -0.189927
C85   C     C_R   0.887962 0.771842 0.028385 -0.189928
C86   C     C_R   0.112000 0.771819 0.971541 -0.189894
C87   C     C_3   0.404753 0.175506 0.968153 -0.291248
C88   C     C_3   0.595418 0.175536 0.032167 -0.291120
C89   C     C_3   0.904756 0.675504 0.968161 -0.291068
C90   C     C_3   0.637326 0.127341 0.716657 -0.240633
C91   C     C_3   0.095414 0.675535 0.032160 -0.291013
C92   C     C_3   0.269860 0.100714 0.201737 -0.282215
C93   C     C_3   0.730331 0.099584 0.800513 -0.282241
C94   C     C_3   0.769667 0.599553 0.199432 -0.282299
C95   C     C_3   0.230395 0.599071 0.801519 -0.282333
C96   C     C_1   0.349261 0.068742 0.195866 0.203244
C97   C     C_1   0.649151 0.068769 0.804089 0.203215
C98   C     C_1   0.850896 0.568771 0.195917 0.203289
C99   C     C_1   0.148412 0.568790 0.804045 0.203354
C100  C     C_3   0.434358 0.102486 0.203449 -0.290037
C101  C     C_3   0.862655 0.627332 0.283323 -0.240639
C102  C     C_3   0.563659 0.103649 0.794247 -0.289929
C103  C     C_3   0.936413 0.603694 0.205839 -0.289943
C104  C     C_3   0.062727 0.604215 0.793142 -0.289910
C105  C     C_R   0.709384 0.209252 0.918694 0.911682
C106  C     C_3   0.137670 0.627158 0.717021 -0.240622
C107  C     C_3   0.330735 0.121696 0.216559 0.510096
C108  C     C_3   0.669268 0.121312 0.784208 0.510068
C109  C     C_3   0.830733 0.621302 0.215773 0.510076
C110  C     C_3   0.169261 0.621139 0.784549 0.510059
C111  C     C_1   0.312884 0.187025 0.125743 -0.165964
C112  C     C_1   0.687119 0.187025 0.874257 -0.165965
C113  C     C_1   0.812881 0.687025 0.125743 -0.165971
C114  C     C_1   0.187121 0.687025 0.874258 -0.165974
C115  C     C_1   0.437313 0.062853 0.374271 -0.187708
C116  C     C_R   0.790616 0.709252 0.081306 0.911669
C117  C     C_1   0.562686 0.062854 0.625728 -0.187707
C118  C     C_1   0.937315 0.562855 0.374274 -0.187707
C119  C     C_1   0.062684 0.562856 0.625723 -0.187704
C120  C     C_3   0.387739 0.151989 0.276213 -0.269736
C121  C     C_3   0.613029 0.151977 0.723806 -0.269715
C122  C     C_3   0.886951 0.651977 0.276193 -0.269714
C123  C     C_3   0.113382 0.651969 0.723822 -0.269702
C124  C     C_3   0.354561 0.145661 0.208858 0.032388
C125  C     C_3   0.645447 0.145661 0.791142 0.032385
C126  C     C_3   0.854553 0.645661 0.208858 0.032376
C127  C     C_R   0.209385 0.709252 0.918694 0.911678
C128  C     C_3   0.145452 0.645661 0.791143 0.032373
C129  C     C_3   0.420870 0.128358 0.284760 -0.240055
C130  C     C_3   0.579140 0.128753 0.714454 -0.240045
C131  C     C_3   0.920860 0.628764 0.285568 -0.240070
C132  C     C_3   0.079150 0.628932 0.714098 -0.240117
C133  C     C_R   0.317357 0.249885 0.999869 0.898262
C134  C     C_R   0.682643 0.249886 0.000132 0.898352
C135  C     C_R   0.817357 0.749885 0.999869 0.898344
C136  C     C_R   0.182643 0.749885 0.000132 0.898390
C137  C     C_3   0.395885 0.104286 0.291308 0.024440
C138  C     C_R   0.355081 0.249376 0.999869 -0.103115
C139  C     C_3   0.604114 0.104288 0.708689 0.024436
C140  C     C_3   0.895887 0.604289 0.291314 0.024435
C141  C     C_3   0.104111 0.604291 0.708681 0.024435
C142  C     C_3   0.386977 0.122298 0.217154 0.510879
C143  C     C_3   0.612283 0.122696 0.782057 0.510878
C144  C     C_3   0.887737 0.622707 0.217965 0.510876
C145  C     C_3   0.111951 0.622879 0.781694 0.510881
C146  C     C_3   0.362687 0.098185 0.223916 -0.156075
C147  C     C_3   0.636556 0.098199 0.776062 -0.156070
C148  C     C_3   0.863466 0.598200 0.223943 -0.156059
C149  C     C_R   0.644920 0.249378 0.000136 -0.103098
C150  C     C_3   0.136206 0.598210 0.776038 -0.156045
C151  C     C_1   0.331719 0.168310 0.163304 0.058675
C152  C     C_1   0.668287 0.168310 0.836696 0.058672
C153  C     C_1   0.831713 0.668310 0.163303 0.058654
C154  C     C_1   0.168291 0.668309 0.836698 0.058646
C155  C     C_1   0.418620 0.081604 0.336781 -0.014658
C156  C     C_1   0.581380 0.081605 0.663216 -0.014653
C157  C     C_1   0.918621 0.581606 0.336786 -0.014667
C158  C     C_1   0.081377 0.581608 0.663209 -0.014676
C159  C     C_R   0.102272 0.238947 0.951014 -0.188743
C160  C     C_R   0.855082 0.749375 0.999870 -0.103080
C161  C     C_R   0.897727 0.238946 0.048986 -0.188772
C162  C     C_R   0.602272 0.738947 0.951013 -0.188788
C163  C     C_R   0.397727 0.738946 0.048986 -0.188786
C164  C     C_R   0.066266 0.239317 0.950775 -0.158847
C165  C     C_R   0.933733 0.239317 0.049224 -0.158879
C166  C     C_R   0.566266 0.739318 0.950775 -0.158903
C167  C     C_R   0.433733 0.739317 0.049224 -0.158909
C168  C     C_R   0.072627 0.250357 0.999984 0.086025
C169  C     C_R   0.927374 0.250358 0.000017 0.086040
C170  C     C_R   0.572626 0.750358 0.999983 0.086042
C171  C     C_R   0.144920 0.749378 0.000136 -0.103093
C172  C     C_R   0.427374 0.750358 0.000017 0.086051
C173  C     C_R   0.115328 0.261272 0.049208 -0.159013
C174  C     C_R   0.884673 0.261274 0.950795 -0.159049
C175  C     C_R   0.615328 0.761273 0.049207 -0.159066
C176  C     C_R   0.384673 0.761274 0.950795 -0.159082
C177  C     C_R   0.151118 0.261387 0.048999 -0.187907
C178  C     C_R   0.848884 0.261390 0.951003 -0.188028
C179  C     C_R   0.651117 0.761388 0.048998 -0.188035
C180  C     C_R   0.348883 0.761390 0.951003 -0.188094
C181  C     C_R   0.209249 0.290661 0.918542 0.914890
C182  C     C_R   0.535277 0.248292 0.000842 0.323848
C183  C     C_R   0.790751 0.290661 0.081457 0.914897
C184  C     C_R   0.709249 0.790661 0.918543 0.914892
C185  C     C_R   0.290751 0.790661 0.081457 0.914898
C186  C     C_R   0.144839 0.250100 0.000014 -0.032046
C187  C     C_R   0.855162 0.250101 0.999986 -0.032043
C188  C     C_R   0.644838 0.750101 0.000014 -0.032044
C189  C     C_R   0.355162 0.750101 0.999986 -0.032036
C190  C     C_R   0.965128 0.250444 0.000008 0.283836
C191  C     C_R   0.034872 0.250443 0.999993 0.283851
C192  C     C_R   0.465128 0.750445 0.000008 0.283822
H1    H     H_    0.332257 0.209281 0.947385 0.172407
H2    H     H_    0.903299 0.230235 0.087337 0.155232
H3    H     H_    0.058035 0.601010 0.825955 0.194172
H4    H     H_    0.596700 0.730237 0.912661 0.155237
H5    H     H_    0.403299 0.730235 0.087337 0.155227
H6    H     H_    0.033643 0.230645 0.912440 0.148599
H7    H     H_    0.966356 0.230642 0.087559 0.148596
H8    H     H_    0.533643 0.730645 0.912439 0.148592
H9    H     H_    0.466356 0.730643 0.087559 0.148587
H10   H     H_    0.120917 0.270029 0.087540 0.148083
H11   H     H_    0.879085 0.270032 0.912464 0.148078
H12   H     H_    0.620917 0.770030 0.087538 0.148070
H13   H     H_    0.667819 0.209333 0.052772 0.172395
H14   H     H_    0.379084 0.770033 0.912464 0.148067
H15   H     H_    0.183785 0.270005 0.087354 0.155056
H16   H     H_    0.816217 0.270008 0.912649 0.155032
H17   H     H_    0.683785 0.770006 0.087353 0.155028
H18   H     H_    0.316216 0.770008 0.912649 0.155016
H19   H     H_    0.172552 0.344534 0.740957 0.138703
H20   H     H_    0.829259 0.343594 0.260914 0.138707
H21   H     H_    0.667801 0.842132 0.736177 0.138701
H22   H     H_    0.328901 0.843777 0.260549 0.138720
H23   H     H_    0.181255 0.406967 0.761097 0.139277
H24   H     H_    0.832259 0.709280 0.947389 0.172393
H25   H     H_    0.818782 0.406036 0.240773 0.139285
H26   H     H_    0.681033 0.904522 0.756188 0.139252
H27   H     H_    0.318771 0.906220 0.240404 0.139373
H28   H     H_    0.076865 0.351865 0.651390 0.135981
H29   H     H_    0.924910 0.351856 0.348612 0.135973
H30   H     H_    0.572334 0.851908 0.651518 0.135967
H31   H     H_    0.424563 0.851855 0.348616 0.135976
H32   H     H_    0.068470 0.343081 0.738974 0.137208
H33   H     H_    0.931494 0.344011 0.259156 0.137202
H34   H     H_    0.568692 0.845525 0.743884 0.137206
H35   H     H_    0.167818 0.709332 0.052768 0.172393
H36   H     H_    0.431505 0.843827 0.259524 0.137190
H37   H     H_    0.077171 0.405517 0.759108 0.139041
H38   H     H_    0.921019 0.406457 0.239021 0.139054
H39   H     H_    0.581922 0.907919 0.763889 0.139122
H40   H     H_    0.421377 0.906273 0.239386 0.138967
H41   H     H_    0.172860 0.398183 0.848680 0.140311
H42   H     H_    0.825367 0.398192 0.151319 0.140314
H43   H     H_    0.677390 0.898140 0.848551 0.140300
H44   H     H_    0.325712 0.898193 0.151315 0.140322
H45   H     H_    0.448193 0.289164 0.049365 0.172369
H46   H     H_    0.397448 0.174460 0.296532 0.172546
H47   H     H_    0.551737 0.289121 0.950496 0.172366
H48   H     H_    0.948193 0.789163 0.049364 0.172375
H49   H     H_    0.051737 0.789121 0.950497 0.172377
H50   H     H_    0.386089 0.289904 0.050869 0.168849
H51   H     H_    0.613839 0.289861 0.948990 0.168867
H52   H     H_    0.886089 0.789905 0.050868 0.168845
H53   H     H_    0.113839 0.789861 0.948991 0.168876
H54   H     H_    0.354501 0.129599 0.312804 0.150575
H55   H     H_    0.646888 0.128866 0.688648 0.150625
H56   H     H_    0.853076 0.628849 0.311315 0.150606
H57   H     H_    0.603943 0.174438 0.703504 0.172539
H58   H     H_    0.147510 0.628534 0.689308 0.150627
H59   H     H_    0.458303 0.130703 0.313911 0.150479
H60   H     H_    0.541715 0.131415 0.684670 0.150437
H61   H     H_    0.958284 0.631434 0.315367 0.150451
H62   H     H_    0.041735 0.631737 0.684033 0.150431
H63   H     H_    0.434973 0.176490 0.016454 0.161036
H64   H     H_    0.412215 0.158964 0.947769 0.199711
H65   H     H_    0.374561 0.167437 0.961335 0.158815
H66   H     H_    0.565219 0.176465 0.983851 0.161062
H67   H     H_    0.587965 0.159018 0.052596 0.199693
H68   H     H_    0.896020 0.674438 0.296494 0.172537
H69   H     H_    0.625648 0.167474 0.039072 0.158838
H70   H     H_    0.934975 0.676490 0.016462 0.161080
H71   H     H_    0.912219 0.658962 0.947778 0.199713
H72   H     H_    0.874564 0.667435 0.961342 0.158835
H73   H     H_    0.065215 0.676465 0.983844 0.161080
H74   H     H_    0.087962 0.659015 0.052588 0.199704
H75   H     H_    0.125643 0.667472 0.039061 0.158845
H76   H     H_    0.276419 0.111349 0.240517 0.156109
H77   H     H_    0.287066 0.078737 0.214447 0.159091
H78   H     H_    0.232772 0.096696 0.167692 0.196806
H79   H     H_    0.104582 0.674423 0.703535 0.172533
H80   H     H_    0.724513 0.110035 0.762095 0.156142
H81   H     H_    0.712679 0.077761 0.787497 0.159046
H82   H     H_    0.767293 0.095286 0.835114 0.196784
H83   H     H_    0.775467 0.609998 0.237843 0.156138
H84   H     H_    0.787331 0.577734 0.212453 0.159031
H85   H     H_    0.732708 0.595248 0.164818 0.196774
H86   H     H_    0.224911 0.609433 0.763266 0.156158
H87   H     H_    0.212542 0.577320 0.788368 0.158996
H88   H     H_    0.267296 0.594649 0.836366 0.196764
H89   H     H_    0.430228 0.080272 0.215895 0.160905
H90   H     H_    0.096700 0.230237 0.912661 0.155228
H91   H     H_    0.465923 0.113380 0.242514 0.157299
H92   H     H_    0.438146 0.098928 0.169839 0.194121
H93   H     H_    0.567615 0.081294 0.782066 0.160896
H94   H     H_    0.532505 0.114714 0.754862 0.157345
H95   H     H_    0.559213 0.100374 0.827286 0.194133
H96   H     H_    0.932517 0.581348 0.218116 0.160857
H97   H     H_    0.967547 0.614800 0.245172 0.157403
H98   H     H_    0.940847 0.600394 0.172794 0.194146
H99   H     H_    0.066489 0.581820 0.780879 0.160817
H100  H     H_    0.031786 0.615430 0.753732 0.157463
N1    N     N_R   0.482695 0.274282 0.999681 -0.182454
N2    N     N_R   0.957021 0.250510 0.948074 -0.175892
N3    N     N_R   0.542979 0.750509 0.051926 -0.175907
N4    N     N_R   0.457021 0.750511 0.948074 -0.175914
N5    N     N_R   0.008702 0.250395 0.051934 -0.176933
N6    N     N_R   0.991299 0.250397 0.948067 -0.176934
N7    N     N_R   0.508702 0.750396 0.051933 -0.176948
N8    N     N_R   0.491298 0.750398 0.948067 -0.176951
N9    N     N_1   0.338690 0.045532 0.173779 -0.204249
N10   N     N_1   0.659068 0.045570 0.826157 -0.204300
N11   N     N_1   0.840999 0.545572 0.173849 -0.204278
N12   N     N_R   0.517261 0.274283 0.000238 -0.182455
N13   N     N_1   0.158023 0.545598 0.826098 -0.204279
N14   N     N_R   0.982696 0.774281 0.999682 -0.182434
N15   N     N_R   0.017261 0.774282 0.000238 -0.182436
N16   N     N_R   0.517335 0.222348 0.000432 -0.125385
N17   N     N_R   0.482714 0.222347 0.999664 -0.125403
N18   N     N_R   0.017334 0.722347 0.000431 -0.125375
N19   N     N_R   0.982714 0.722345 0.999664 -0.125389
N20   N     N_R   0.042980 0.250507 0.051927 -0.175876
O1    O     O_R   0.298140 0.236530 0.096350 -0.620516
O2    O     O_R   0.059590 0.469170 0.561630 -0.616838
O3    O     O_R   0.440410 0.969170 0.438370 -0.616769
O4    O     O_R   0.559590 0.969170 0.561630 -0.616822
O5    O     O_R   0.997920 0.469160 0.438370 -0.616947
O6    O     O_R   0.002080 0.469160 0.561630 -0.616924
O7    O     O_R   0.497920 0.969160 0.438370 -0.616996
O8    O     O_R   0.502080 0.969160 0.561630 -0.616941
O9    O     O_R   0.263350 0.201750 0.026760 -0.604686
O10   O     O_R   0.736650 0.201750 0.973240 -0.604690
O11   O     O_R   0.763350 0.701750 0.026760 -0.604696
O12   O     O_R   0.701860 0.236530 0.903650 -0.620510
O13   O     O_R   0.236650 0.701750 0.973240 -0.604694
O14   O     O_R   0.318280 0.267330 0.034740 -0.625483
O15   O     O_R   0.681720 0.267330 0.965260 -0.625459
O16   O     O_R   0.818280 0.767330 0.034740 -0.625453
O17   O     O_R   0.181720 0.767330 0.965260 -0.625439
O18   O     O_R   0.283490 0.232560 0.965160 -0.623789
O19   O     O_R   0.716510 0.232560 0.034840 -0.623816
O20   O     O_R   0.783490 0.732560 0.965160 -0.623801
O21   O     O_R   0.216510 0.732560 0.034840 -0.623818
O22   O     O_R   0.236540 0.298140 0.973130 -0.615983
O23   O     O_R   0.798140 0.736530 0.096350 -0.620506
O24   O     O_R   0.763460 0.298140 0.026870 -0.615976
O25   O     O_R   0.736540 0.798140 0.973130 -0.615981
O26   O     O_R   0.263460 0.798140 0.026870 -0.615974
O27   O     O_R   0.201750 0.263360 0.903540 -0.616588
O28   O     O_R   0.798250 0.263360 0.096460 -0.616595
O29   O     O_R   0.701750 0.763360 0.903540 -0.616591
O30   O     O_R   0.298250 0.763360 0.096460 -0.616595
O31   O     O_R   0.216410 0.267340 0.034730 -0.624325
O32   O     O_R   0.783590 0.267340 0.965270 -0.624341
O33   O     O_R   0.716410 0.767340 0.034730 -0.624338
O34   O     O_R   0.201860 0.736530 0.903650 -0.620504
O35   O     O_R   0.283590 0.767340 0.965270 -0.624353
O36   O     O_R   0.181620 0.232560 0.965150 -0.621491
O37   O     O_R   0.818380 0.232560 0.034850 -0.621499
O38   O     O_R   0.681620 0.732560 0.965150 -0.621495
O39   O     O_R   0.318380 0.732560 0.034850 -0.621506
O40   O     O_R   0.502030 0.030780 0.561620 -0.617466
O41   O     O_R   0.497970 0.030780 0.438380 -0.617466
O42   O     O_R   0.002030 0.530780 0.561620 -0.617431
O43   O     O_R   0.997970 0.530780 0.438380 -0.617435
O44   O     O_3   0.396071 0.203159 0.940031 -0.601617
O45   O     O_R   0.559540 0.030780 0.561620 -0.617336
O46   O     O_3   0.604018 0.203221 0.060155 -0.601662
O47   O     O_3   0.896073 0.703157 0.940036 -0.601655
O48   O     O_3   0.104017 0.703219 0.060151 -0.601677
O49   O     O_3   0.282916 0.119659 0.177323 -0.593484
O50   O     O_3   0.717062 0.118882 0.824226 -0.593444
O51   O     O_3   0.782940 0.618862 0.175737 -0.593438
O52   O     O_3   0.217037 0.618532 0.824915 -0.593419
O53   O     O_3   0.396376 0.120881 0.178511 -0.595721
O54   O     O_3   0.602104 0.121682 0.819899 -0.595782
O55   O     O_3   0.897933 0.621698 0.180142 -0.595788
O56   O     O_R   0.440460 0.030780 0.438380 -0.617344
O57   O     O_3   0.101429 0.622039 0.819176 -0.595807
O58   O     O_R   0.059540 0.530780 0.561620 -0.617372
O59   O     O_R   0.940460 0.530780 0.438380 -0.617371
O60   O     O_R   0.940410 0.469170 0.438370 -0.616817
Zn1   Zn    Zn3+2 0.273180 0.273170 0.046410 0.961079
Zn2   Zn    Zn3+2 0.538430 0.999970 0.500010 0.964910
Zn3   Zn    Zn3+2 0.961570 0.499970 0.499990 0.964967
Zn4   Zn    Zn3+2 0.038430 0.499970 0.500010 0.964943
Zn5   Zn    Zn3+2 0.726820 0.273170 0.953590 0.961092
Zn6   Zn    Zn3+2 0.773180 0.773170 0.046410 0.961093
Zn7   Zn    Zn3+2 0.226820 0.773170 0.953590 0.961098
Zn8   Zn    Zn3+2 0.226720 0.226730 0.953480 0.974132
Zn9   Zn    Zn3+2 0.773280 0.226730 0.046520 0.974097
Zn10  Zn    Zn3+2 0.726720 0.726730 0.953480 0.974111
Zn11  Zn    Zn3+2 0.273280 0.726730 0.046520 0.974087
Zn12  Zn    Zn3+2 0.461570 0.999970 0.499990 0.964991

loop_
_geom_bond_atom_site_label_1
_geom_bond_atom_site_label_2
_ccdc_geom_bond_type
C104  H100  S    
C21   C26   S    
C34   C56   S    
C62   O41   A    
O20   Zn10  S    
C32   C45   S    
C142  C146  S    
C181  O22   A    
C35   O60   A    
C40   C187  S    
C183  O24   A    
C102  H93   S    
N2    N6    A    
C134  O19   A    
O36   Zn8   S    
C128  C145  S    
C102  O54   S    
C5    C36   S    
C64   C118  S    
C68   O4    A    
C87   O44   S    
C182  N12   A    
O41   Zn2   S    
C131  C140  S    
O43   Zn4   S    
C22   H42   S    
C18   C58   T    
C5    H25   S    
C47   H36   S    
C51   H31   S    
O8    Zn12  S    
C178  H16   S    
C70   C74   A    
C142  O53   S    
C169  C174  A    
O4    Zn2   S    
C135  C160  S    
C8    H19   S    
C44   H33   S    
C128  C154  S    
C192  N7    A    
C184  O25   A    
C168  C173  A    
C107  C124  S    
C91   H75   S    
C4    C34   S    
C165  C169  A    
C104  O57   S    
C79   H54   S    
C137  C146  S    
C164  C168  A    
C66   C149  A    
C31   C44   S    
O11   Zn10  S    
C94   H83   S    
C30   C34   S    
C24   C76   S    
N3    N7    A    
C179  C188  A    
C29   C55   S    
C177  C186  A    
O19   Zn9   S    
C12   C181  S    
C136  C171  S    
C15   C184  S    
C100  H92   S    
C27   C53   S    
N14   N15   A    
C9    C49   S    
C19   C68   S    
C17   C46   S    
C24   N19   A    
C180  H18   S    
C87   H64   S    
C79   C137  S    
C105  C112  S    
C110  O52   S    
C22   C27   S    
C134  O15   A    
C33   C47   S    
C30   C43   S    
C34   C48   S    
O7    Zn2   S    
C100  O53   S    
C80   H47   S    
C42   O35   A    
O28   Zn9   S    
C66   H13   S    
C50   H30   S    
O16   Zn6   S    
O30   Zn11  S    
C33   C38   S    
C110  C150  S    
C131  H61   S    
C10   H21   S    
C101  C122  S    
O60   Zn3   S    
C106  H58   S    
C37   C50   S    
C77   C82   A    
C104  H3    S    
C70   O44   S    
C99   N13   T    
O37   Zn9   S    
C11   H22   S    
C92   H76   S    
O39   Zn11  S    
C129  C137  S    
O13   Zn11  S    
C73   C77   A    
C31   C36   S    
C9    H20   S    
C91   H73   S    
C101  H56   S    
C114  C154  T    
C83   C138  A    
C161  C165  A    
C110  C128  S    
C129  H59   S    
C123  C132  S    
C163  C167  A    
C121  C130  S    
C87   H65   S    
C172  C192  S    
C5    C9    S    
C83   H50   S    
C29   C47   S    
C132  C145  S    
C45   C50   S    
C175  H12   S    
C180  C189  A    
C103  H97   S    
C176  H14   S    
C65   C70   A    
C39   O36   A    
C159  H90   S    
C63   C119  S    
C137  C155  S    
C67   C72   A    
C88   H67   S    
C27   C44   S    
C144  O55   S    
C105  O12   A    
C89   H71   S    
C85   C160  A    
C18   C35   S    
C145  C150  S    
C23   H43   S    
C84   C149  A    
C145  O57   S    
C6    H26   S    
C97   C147  S    
C2    N1    A    
C67   H24   S    
C141  C150  S    
O24   Zn5   S    
O38   Zn10  S    
C94   O51   S    
C68   O8    A    
C120  C129  S    
O22   Zn1   S    
C62   O56   A    
C15   C54   T    
C107  C146  S    
C191  N6    A    
C38   C51   S    
C19   C59   T    
O3    Zn12  S    
C23   C28   S    
C134  C149  S    
C85   H52   S    
N5    N20   A    
C93   H81   S    
C92   H78   S    
C79   C120  S    
C91   O48   S    
C32   C37   S    
C17   C56   T    
O6    Zn3   S    
C37   C59   S    
C38   C60   S    
C190  N2    A    
C124  C151  S    
C166  C170  A    
C86   H53   S    
C90   C121  S    
C116  O23   A    
C33   H40   S    
C122  C131  S    
C123  H79   S    
C132  C141  S    
C95   H88   S    
C49   H29   S    
C63   O58   A    
C73   O48   S    
C127  O34   A    
C132  H62   S    
C96   C146  S    
C102  H94   S    
C90   C108  S    
C62   C115  S    
C125  C143  S    
C126  C144  S    
C136  O21   A    
C131  C144  S    
C159  C186  A    
C42   O39   A    
C109  C126  S    
C176  C180  A    
C14   C53   T    
C163  H5    S    
C95   H86   S    
C159  C164  A    
C97   N10   T    
C75   C182  S    
C81   C85   A    
C172  C176  A    
C25   C33   S    
C135  O20   A    
O34   Zn7   S    
O18   Zn8   S    
C80   C84   A    
C14   C183  S    
C107  O49   S    
C30   H37   S    
O1    Zn1   S    
C16   C185  S    
C94   H84   S    
O33   Zn6   S    
O14   Zn1   S    
C101  C109  S    
C135  O16   A    
C69   C171  A    
O9    Zn8   S    
C185  O26   A    
C183  O28   A    
C162  C166  A    
C39   C186  S    
C78   C83   A    
C21   H41   S    
C25   H44   S    
O17   Zn7   S    
C2    N17   A    
C100  H89   S    
C112  C152  T    
C69   C73   A    
O27   Zn8   S    
C20   C60   T    
C174  C178  A    
C88   H66   S    
C104  H99   S    
C87   H63   S    
C133  C138  S    
C192  N4    A    
C81   H48   S    
O35   Zn7   S    
C25   C29   S    
C130  C139  S    
C12   C52   T    
C164  H6    S    
C65   H1    S    
C170  C175  A    
C99   C150  S    
C95   O52   S    
C61   C117  S    
O10   Zn9   S    
C47   C51   S    
C82   C86   A    
C41   C188  S    
C173  H10   S    
C143  C147  S    
C8    C48   S    
C92   O49   S    
C66   C71   A    
C39   O31   A    
C40   O37   A    
C61   O40   A    
C79   C107  S    
C163  C189  A    
C98   N11   T    
C143  O54   S    
C2    C74   S    
C46   O6    A    
C178  C187  A    
C122  H68   S    
C63   O42   A    
O59   Zn3   S    
C57   O3    A    
C181  O27   A    
C10   C50   S    
C9    C27   S    
C106  C141  S    
C48   H28   S    
C10   C28   S    
C190  N5    A    
N18   N19   A    
C28   C54   S    
C191  N20   A    
C13   N15   A    
O15   Zn5   S    
O12   Zn5   S    
C6    C10   S    
C1    O9    A    
C3    C170  S    
C167  C172  A    
C129  C142  S    
C130  H60   S    
C21   C30   S    
C7    C25   S    
C23   C32   S    
C161  C187  A    
C64   O59   A    
C1    C111  S    
C162  C188  A    
C114  C127  S    
C42   C189  S    
C98   C148  S    
C100  H91   S    
C84   H51   S    
C45   H34   S    
C167  H9    S    
C24   N14   A    
C3    N8    A    
C3    N3    A    
C126  C153  S    
C141  C158  S    
N4    N8    A    
C82   H49   S    
C74   C78   A    
C162  H4    S    
C118  C157  T    
C89   H70   S    
C46   O2    A    
C36   C49   S    
C44   C49   S    
C61   O45   A    
C4    C21   S    
C1    O1    A    
C93   O50   S    
C41   O38   A    
C4    C8    S    
C140  C148  S    
C90   C139  S    
C35   O5    A    
C7    C11   S    
C139  C147  S    
C184  O29   A    
C168  C191  S    
O45   Zn2   S    
C127  O13   A    
C136  O17   A    
C71   O46   S    
O31   Zn1   S    
C36   C58   S    
C165  H7    S    
C108  O50   S    
C31   H38   S    
O40   Zn12  S    
C13   N18   A    
C121  C125  S    
C5    C22   S    
C106  C123  S    
C88   O46   S    
C67   C160  A    
C72   O47   S    
C108  C125  S    
C91   H74   S    
C75   C80   A    
O21   Zn11  S    
C113  C116  S    
C7    H27   S    
C40   O32   A    
C32   H39   S    
C4    H23   S    
C90   H55   S    
O5    Zn4   S    
C124  C142  S    
O29   Zn10  S    
C169  C190  S    
C69   H35   S    
O2    Zn4   S    
C101  C140  S    
C88   H69   S    
C8    C26   S    
O23   Zn6   S    
C13   C77   S    
C28   C45   S    
C95   H87   S    
C22   C31   S    
C86   C171  A    
C185  O30   A    
C133  O18   A    
C103  H98   S    
C175  C179  A    
C177  H15   S    
N1    N12   A    
O42   Zn3   S    
C102  H95   S    
C122  C126  S    
C41   O33   A    
C125  C152  S    
C26   C52   S    
C140  C157  S    
C121  H57   S    
C173  C177  A    
C117  C156  T    
C6    C37   S    
C72   C76   A    
C89   H72   S    
C130  C143  S    
C26   C43   S    
C109  C148  S    
C96   N9    T    
C65   C138  A    
O26   Zn7   S    
N16   N17   A    
C103  O55   S    
C43   C48   S    
C115  C155  T    
C64   O43   A    
C113  C153  T    
O32   Zn5   S    
C111  C151  T    
C76   C81   A    
C133  O14   A    
C78   H45   S    
C179  H17   S    
O25   Zn6   S    
C108  C147  S    
C43   H32   S    
C16   C55   T    
C93   H82   S    
C89   O47   S    
C94   H85   S    
C71   C75   A    
C92   H77   S    
C116  O11   A    
C123  C128  S    
C105  O10   A    
C93   H80   S    
C139  C156  S    
C119  C158  T    
C6    C23   S    
C109  O51   S    
C174  H11   S    
C7    C38   S    
C182  N16   A    
C161  H2    S    
C57   O7    A    
C166  H8    S    
O56   Zn12  S    
C11   C51   S    
C103  H96   S    
C11   C29   S    
C106  C110  S    
C120  H46   S    
C20   C57   S    
O58   Zn4   S    
C120  C124  S    
C144  C148  S    
