data_mof_unit_8714.cif
_audit_creation_date              2012-12-11T15:10:50-0500
_audit_creation_method            fapswitch 2.2
_symmetry_space_group_name_H-M    P1
_symmetry_Int_Tables_number       1
_space_group_crystal_system       triclinic
_cell_length_a                    21.168324
_cell_length_b                    7.229946
_cell_length_c                    18.415999
_cell_angle_alpha                 89.999921
_cell_angle_beta                  92.869369
_cell_angle_gamma                 89.999862
_cell_volume                      2814.95837546

loop_
_atom_site_label
_atom_site_type_symbol
_atom_type_description
_atom_site_fract_x
_atom_site_fract_y
_atom_site_fract_z
_atom_type_partial_charge
O1    O     O_R   0.448880 0.506250 0.415280 -0.516520
O2    O     O_R   0.551120 0.006250 0.584720 -0.516520
O3    O     O_R   0.434830 0.174000 0.557310 -0.526350
O4    O     O_R   0.565170 0.674000 0.442690 -0.526350
C1    C     C_R   0.417597 0.344242 0.580493 0.733744
C2    C     C_R   0.582403 0.844241 0.419507 0.733744
O5    O     O_R   0.441680 0.176440 0.414130 -0.536586
O6    O     O_R   0.558320 0.676440 0.585870 -0.536587
O7    O     O_R   0.558020 0.007570 0.440520 -0.504029
O8    O     O_R   0.441980 0.507570 0.559480 -0.504029
C3    C     C_R   0.425220 0.345768 0.390862 0.730399
C4    C     C_R   0.574780 0.845767 0.609138 0.730399
O9    O     O_3   0.538160 0.339670 0.508820 -0.350363
O10   O     O_3   0.461840 0.839670 0.491180 -0.350364
V1    V     V_3+5 0.492920 0.064260 0.498360 1.523180
V2    V     V_3+5 0.507080 0.564260 0.501640 1.523181
C5    C     C_R   0.880838 0.010215 0.691165 -0.144675
C6    C     C_R   0.119160 0.510190 0.308836 -0.144675
C7    C     C_R   0.890038 0.943675 0.819666 -0.096580
C8    C     C_R   0.109963 0.443672 0.180333 -0.096579
C9    C     C_R   0.589152 0.785997 0.738752 -0.165355
C10   C     C_R   0.410849 0.286000 0.261247 -0.165355
C11   C     C_R   0.624163 0.764324 0.803732 -0.120206
C12   C     C_R   0.375837 0.264323 0.196268 -0.120207
C13   C     C_R   0.688301 0.804897 0.808411 -0.136248
C14   C     C_R   0.311699 0.304896 0.191589 -0.136250
C15   C     C_R   0.719598 0.873410 0.747963 0.060949
C16   C     C_R   0.280402 0.373411 0.252037 0.060949
C17   C     C_R   0.683046 0.902250 0.680448 0.011930
C18   C     C_R   0.316954 0.402250 0.319552 0.011932
C19   C     C_R   0.786334 0.913153 0.752897 0.081814
C20   C     C_R   0.213667 0.413153 0.247103 0.081816
C21   C     C_R   0.815804 0.972708 0.689727 0.027501
C22   C     C_R   0.184195 0.472695 0.310274 0.027501
C23   C     C_R   0.780216 0.003047 0.625589 -0.165080
C24   C     C_R   0.219784 0.503033 0.374411 -0.165082
C25   C     C_R   0.715139 0.977221 0.620983 0.198380
C26   C     C_R   0.284861 0.477217 0.379017 0.198379
C27   C     C_R   0.825123 0.899551 0.818326 -0.252558
C28   C     C_R   0.174878 0.399560 0.181672 -0.252561
C29   C     C_R   0.917779 0.996808 0.755414 0.257296
C30   C     C_R   0.082220 0.496785 0.244587 0.257295
C31   C     C_R   0.616862 0.852305 0.676411 -0.067550
C32   C     C_R   0.383138 0.352307 0.323589 -0.067550
H1    H     H_    0.712251 0.778642 0.860319 0.105825
H2    H     H_    0.287749 0.278634 0.139683 0.105827
H3    H     H_    0.601493 0.711528 0.850909 0.117307
H4    H     H_    0.398507 0.211522 0.149092 0.117308
C33   C     C_1   0.864507 0.938866 0.132069 -0.154857
C34   C     C_1   0.135493 0.438866 0.867931 -0.154856
C35   C     C_1   0.821584 0.924647 0.175722 0.035718
C36   C     C_1   0.178416 0.424646 0.824278 0.035718
C37   C     C_1   0.770886 0.905313 0.227638 0.023145
C38   C     C_1   0.229114 0.405313 0.772362 0.023145
C39   C     C_1   0.728171 0.888522 0.271428 0.017360
C40   C     C_1   0.271829 0.388522 0.728572 0.017359
C41   C     C_1   0.677452 0.869271 0.323319 0.026600
C42   C     C_1   0.322548 0.369271 0.676682 0.026600
C43   C     C_1   0.634536 0.855235 0.366984 -0.147350
C44   C     C_1   0.365464 0.355235 0.633016 -0.147351
O11   O     O_R   0.058070 0.289240 0.940580 -0.512147
O12   O     O_R   0.941930 0.789240 0.059420 -0.512148
O13   O     O_R   0.058330 0.616740 0.085880 -0.526950
O14   O     O_R   0.941670 0.116740 0.914120 -0.526949
C45   C     C_R   0.071808 0.448686 0.111273 0.736344
C46   C     C_R   0.928192 0.948687 0.888727 0.736345
O15   O     O_R   0.065180 0.619040 0.942700 -0.524289
O16   O     O_R   0.934820 0.119040 0.057300 -0.524287
O17   O     O_R   0.948870 0.787780 0.915270 -0.530310
O18   O     O_R   0.051130 0.287780 0.084730 -0.530309
C47   C     C_R   0.083199 0.450321 0.920190 0.712309
C48   C     C_R   0.916801 0.950321 0.079810 0.712307
O19   O     O_3   0.961870 0.453310 0.991210 -0.369410
O20   O     O_3   0.038130 0.953310 0.008790 -0.369411
V3    V     V_3+5 0.007070 0.728770 0.001630 1.496699
V4    V     V_3+5 0.992930 0.228770 0.998370 1.496704
Br1   Br    Br    0.006133 0.056396 0.753276 -0.529274
Br2   Br    Br    0.993865 0.556351 0.246726 -0.529272
H5    H     H_    0.803267 0.056871 0.578684 0.171374
H6    H     H_    0.196732 0.556852 0.421317 0.171374
H7    H     H_    0.902961 0.054658 0.642268 0.159757
H8    H     H_    0.097036 0.554621 0.357734 0.159757
H9    H     H_    0.806240 0.862164 0.869551 0.102294
H10   H     H_    0.193763 0.362192 0.130447 0.102292
H11   H     H_    0.539595 0.747355 0.736785 0.101716
H12   H     H_    0.460406 0.247358 0.263214 0.101716
Br3   Br    Br    0.677470 0.077836 0.533482 -0.554954
Br4   Br    Br    0.322529 0.577836 0.466517 -0.554954

loop_
_geom_bond_atom_site_label_1
_geom_bond_atom_site_label_2
_ccdc_geom_bond_type
O13   C45   A    
C10   H12   S    
C15   C17   A    
C28   H10   S    
O1    C3    A    
O2    C4    A    
C2    O7    A    
O5    C3    A    
C23   C25   A    
C12   C14   A    
C4    C31   S    
C6    C30   A    
C29   Br1   S    
C8    C28   A    
C41   C43   T    
C46   O17   A    
C42   C44   T    
C45   O18   A    
C18   C26   A    
C7    C46   S    
C23   H5    S    
C6    H8    S    
C9    C31   A    
C10   C32   A    
C40   C42   S    
C16   C18   A    
C33   C35   T    
C33   C48   S    
C34   C36   T    
C19   C21   A    
C5    H7    S    
O15   C47   A    
O6    C4    A    
O11   C47   A    
O5    V1    S    
O6    V2    S    
C17   C31   A    
C18   C32   A    
C5    C21   A    
C36   C38   S    
C9    H11   S    
C37   C39   T    
O11   V4    S    
C38   C40   T    
C11   H3    S    
O20   V3    S    
C15   C19   A    
C12   H4    S    
C8    C45   S    
C16   C20   A    
O4    C2    A    
C24   H6    S    
C26   Br4   S    
C35   C37   S    
C20   C22   A    
O4    V2    S    
C34   C47   S    
O16   C48   A    
O14   V4    S    
O12   C48   A    
C3    C32   S    
O1    V2    S    
O2    V1    S    
C6    C22   A    
C7    C27   A    
C30   Br2   S    
C39   C41   S    
O18   V4    S    
O19   V4    S    
C10   C12   A    
O12   V3    S    
C13   C15   A    
C13   H1    S    
O3    V1    S    
C1    C44   S    
C2    C43   S    
C25   Br3   S    
O3    C1    A    
C8    C30   A    
O16   V4    S    
C14   C16   A    
C9    C11   A    
O7    V1    S    
C27   H9    S    
C1    O8    A    
O8    V2    S    
O13   V3    S    
C24   C26   A    
C21   C23   A    
C19   C27   A    
O17   V3    S    
C22   C24   A    
C20   C28   A    
C5    C29   A    
C14   H2    S    
C11   C13   A    
O15   V3    S    
O9    V2    S    
C17   C25   A    
O10   V1    S    
C7    C29   A    
O14   C46   A    
