data_mof_unit_57302.cif
_audit_creation_date              2013-03-05T15:46:21-0500
_audit_creation_method            fapswitch 2.2
_symmetry_space_group_name_H-M    P1
_symmetry_Int_Tables_number       1
_space_group_crystal_system       triclinic
_cell_length_a                    10.184883
_cell_length_b                    10.527081
_cell_length_c                    10.572243
_cell_angle_alpha                 90.1034
_cell_angle_beta                  94.217578
_cell_angle_gamma                 84.725351
_cell_volume                      1125.65451541

loop_
_atom_site_label
_atom_site_type_symbol
_atom_site_description
_atom_site_fract_x
_atom_site_fract_y
_atom_site_fract_z
_atom_type_partial_charge
O1    O     O_R   0.568950 0.489660 0.307530 -0.554103
O2    O     O_R   0.348880 0.522640 0.340350 -0.553439
C1    C     C_R   0.446106 0.514675 0.266681 0.994662
O3    O     O_R   0.610060 0.300270 0.483590 -0.612234
O4    O     O_R   0.389990 0.333260 0.516410 -0.549493
C2    C     C_R   0.503261 0.264154 0.528283 0.905716
Zn1   Zn    Zn3+2 0.646940 0.477980 0.478090 1.131811
Zn2   Zn    Zn3+2 0.353060 0.522020 0.521910 1.105700
O5    O     O_R   0.651120 0.477360 0.659650 -0.617203
O6    O     O_R   0.431050 0.510340 0.692470 -0.607568
O7    O     O_R   0.610010 0.666740 0.483590 -0.535179
O8    O     O_R   0.389940 0.699730 0.516410 -0.598863
C3    C     C_R   0.554617 0.497778 0.733848 0.866100
C4    C     C_R   0.508464 0.741266 0.514176 0.923506
C5    C     C_R   0.747591 0.133033 0.639880 -0.235517
C6    C     C_R   0.873833 0.080315 0.623866 0.246425
C7    C     C_R   0.892289 0.954668 0.584044 0.219375
C8    C     C_R   0.783285 0.881088 0.565740 0.244819
C9    C     C_R   0.649745 0.936552 0.571698 -0.025993
C10   C     C_R   0.637356 0.068220 0.599774 -0.026312
C11   C     C_R   0.513426 0.136404 0.585671 -0.191488
C12   C     C_R   0.405064 0.074519 0.615999 0.327967
C13   C     C_R   0.410379 0.944183 0.592519 -0.199803
C14   C     C_R   0.526675 0.875167 0.554343 -0.137075
C15   C     C_2   0.419011 0.539413 0.132311 -0.384833
C16   C     C_2   0.503248 0.599495 0.066442 0.309190
H1    H     H_    0.677282 0.484970 0.915448 0.210884
C17   C     C_2   0.582861 0.520733 0.868026 -0.228402
C18   C     C_2   0.489824 0.587807 0.930102 -0.211811
H2    H     H_    0.929833 0.475392 0.626080 0.174420
N1    N     N_2   0.157290 0.551390 0.551110 -0.207853
C19   C     C_2   0.080709 0.479045 0.486186 0.382947
N2    N     N_2   0.842740 0.448550 0.448960 0.003864
C20   C     C_2   0.945659 0.459284 0.527143 0.011830
H3    H     H_    0.124014 0.587912 0.634675 0.204989
N3    N     N_R   0.306923 0.133941 0.694193 0.259605
O9    O     O_R   0.236624 0.062338 0.757100 -0.277856
O10   O     O_R   0.310554 0.252245 0.728992 -0.346044
H4    H     H_    0.336246 0.496401 0.083902 0.193293
N4    N     N_R   0.123521 0.423489 0.370799 0.243127
O11   O     O_R   0.160508 0.302192 0.365652 -0.280109
O12   O     O_R   0.105277 0.489911 0.266219 -0.296959
N5    N     N_R   0.864429 0.405518 0.327445 0.323815
O13   O     O_R   0.883577 0.283405 0.307802 -0.286193
O14   O     O_R   0.827768 0.480590 0.231343 -0.257745
H5    H     H_    0.734863 0.229424 0.675927 0.196538
N6    N     N_R   0.981978 0.157420 0.641287 0.242294
O15   O     O_R   0.986324 0.239362 0.733482 -0.346191
O16   O     O_R   0.063124 0.161593 0.552436 -0.296725
N7    N     N_R   0.023978 0.895896 0.577224 0.244165
O17   O     O_R   0.087612 0.844149 0.678159 -0.357471
O18   O     O_R   0.075651 0.884326 0.468409 -0.290888
N8    N     N_R   0.816052 0.749494 0.554936 0.212135
O19   O     O_R   0.827063 0.680843 0.657841 -0.413300
O20   O     O_R   0.870602 0.707820 0.453578 -0.335759
H6    H     H_    0.322654 0.896910 0.606046 0.248487
H7    H     H_    0.394993 0.623096 0.882982 0.198775
N9    N     N_R   0.602753 0.674465 0.124816 0.268568
O21   O     O_R   0.704027 0.697607 0.063172 -0.278545
O22   O     O_R   0.578006 0.742183 0.224768 -0.354056

loop_
_geom_bond_atom_site_label_1
_geom_bond_atom_site_label_2
_geom_bond_distance
_ccdc_geom_bond_type
C7    N7    1.431223 S    
O4    Zn2   1.989666 S    
N7    O18   1.300782 A    
C13   C14   1.415895 A    
C3    C17   1.450860 S    
N5    O14   1.299659 A    
N1    C19   1.299259 D    
C8    N8    1.401247 S    
Zn2   O8    1.943462 S    
C9    C10   1.413199 A    
N4    O12   1.301764 A    
C7    C8    1.412766 A    
N9    O21   1.301408 A    
C13   H6    1.080362 S    
N6    O16   1.299371 A    
O1    Zn1   1.915662 S    
N8    O19   1.299406 A    
C15   H4    1.087839 S    
Zn1   O7    1.989667 S    
Zn1   N2    2.035696 S    
C17   C18   1.339383 D    
O4    C2    1.304080 A    
O3    Zn1   1.943462 S    
C6    N6    1.428264 S    
N3    O10   1.300979 A    
N3    O9    1.301612 A    
N2    C20   1.299520 D    
C18   H7    1.087630 S    
C9    C14   1.461867 A    
O2    C1    1.300823 A    
N8    O20   1.300187 A    
N5    O13   1.300986 A    
C5    C10   1.405554 A    
O7    C4    1.299538 A    
N1    H3    1.030565 S    
H2    C20   1.080719 S    
N9    O22   1.300683 A    
C5    C6    1.374887 A    
N2    N5    1.387680 S    
C1    C15   1.446548 S    
C19   N4    1.431468 S    
C12   N3    1.441718 S    
C10   C11   1.391671 A    
C16   C18   1.443948 S    
O3    C2    1.305093 A    
C8    C9    1.435685 A    
C4    C14   1.495318 S    
H1    C17   1.086784 S    
Zn1   O5    1.916844 S    
O5    C3    1.304430 A    
C12   C13   1.390742 A    
N4    O11   1.299872 A    
C5    H5    1.083223 S    
N7    O17   1.300369 A    
C15   C16   1.345481 D    
C11   C12   1.389342 A    
C2    C11   1.468161 S    
C16   N9    1.443643 S    
Zn2   O6    1.915663 S    
O2    Zn2   1.916844 S    
Zn2   N1    2.035524 S    
N6    O15   1.301441 A    
O8    C4    1.322972 A    
C6    C7    1.387818 A    
O1    C1    1.296762 A    
O6    C3    1.296670 A    
C19   C20   1.504396 S    
