data_mof_unit_56574.cif
_audit_creation_date              2012-12-11T16:33:21-0500
_audit_creation_method            fapswitch 2.2
_symmetry_space_group_name_H-M    P1
_symmetry_Int_Tables_number       1
_space_group_crystal_system       triclinic
_cell_length_a                    7.012335
_cell_length_b                    18.184999
_cell_length_c                    20.181711
_cell_angle_alpha                 68.452097
_cell_angle_beta                  90.660342
_cell_angle_gamma                 90.844068
_cell_volume                      2393.38245883

loop_
_atom_site_label
_atom_site_type_symbol
_atom_type_description
_atom_site_fract_x
_atom_site_fract_y
_atom_site_fract_z
_atom_type_partial_charge
O1    O     O_R   0.488960 0.443750 0.941980 -0.543059
O2    O     O_R   0.823890 0.406510 0.087590 -0.535754
O3    O     O_R   0.999680 0.556250 0.058020 -0.521576
C1    C     C_R   0.655510 0.385266 0.116053 0.735729
O4    O     O_R   0.818360 0.434410 0.944340 -0.539715
O5    O     O_R   0.994110 0.584350 0.913750 -0.538303
C2    C     C_R   0.648927 0.419764 0.924505 0.699530
O6    O     O_R   0.494530 0.415650 0.086250 -0.533116
O7    O     O_3   0.662590 0.549160 0.990130 -0.349718
V1    V     V_3+5 0.935320 0.490880 0.001830 1.489414
O8    O     O_R   0.324180 0.593490 0.912410 -0.536910
C3    C     C_R   0.155315 0.616419 0.885177 0.678211
O9    O     O_R   0.329720 0.565590 0.055660 -0.519746
C4    C     C_R   0.162583 0.580524 0.075333 0.741822
V2    V     V_3+5 0.435990 0.509120 0.998170 1.512023
O10   O     O_3   0.158850 0.450840 0.009870 -0.377996
C5    C     C_3   0.022888 0.722324 0.296691 -0.061471
C6    C     C_3   0.206422 0.686118 0.280940 -0.253422
H1    H     H_    0.259574 0.625974 0.312105 0.209446
H2    H     H_    0.943159 0.691214 0.346098 0.239776
C7    C     C_1   0.159184 0.628750 0.118937 -0.075476
C8    C     C_1   0.108831 0.879073 0.374668 -0.096115
C9    C     C_3   0.969272 0.752944 0.216039 0.004104
C10   C     C_3   0.154393 0.717289 0.200976 -0.056505
C11   C     C_3   0.079199 0.831371 0.204865 0.154347
C12   C     C_3   0.129854 0.800357 0.284981 -0.088697
C13   C     C_3   0.264732 0.795090 0.189506 0.117821
C14   C     C_3   0.311901 0.764539 0.269969 0.398921
C15   C     C_1   0.158368 0.668930 0.155608 0.161658
C16   C     C_1   0.116107 0.844170 0.333798 0.183398
H3    H     H_    0.827274 0.747335 0.193394 0.215742
H4    H     H_    0.330730 0.532682 0.689905 0.150136
C17   C     C_R   0.026636 0.770080 0.877286 -0.186994
C18   C     C_R   0.959866 0.842728 0.875569 0.473626
C19   C     C_R   0.948831 0.906430 0.810821 -0.208894
C20   C     C_R   0.002536 0.897635 0.747879 -0.206825
C21   C     C_R   0.066657 0.824182 0.747981 0.067614
C22   C     C_R   0.079523 0.759138 0.814132 -0.000968
C23   C     C_R   0.118099 0.814969 0.683663 -0.141847
C24   C     C_R   0.178156 0.740028 0.685558 0.029382
C25   C     C_R   0.193118 0.675246 0.751877 0.068659
C26   C     C_R   0.145149 0.684889 0.816255 -0.132858
C27   C     C_R   0.218436 0.727433 0.621992 -0.156328
C28   C     C_R   0.271650 0.653081 0.623745 0.222969
C29   C     C_R   0.289382 0.590343 0.688578 -0.143543
C30   C     C_R   0.251010 0.600992 0.751978 -0.187737
H5    H     H_    0.035572 0.722321 0.928630 0.136158
H6    H     H_    0.898213 0.963207 0.808689 0.159273
H7    H     H_    0.992021 0.949030 0.699178 0.138361
H8    H     H_    0.205271 0.774434 0.570369 0.121990
H9    H     H_    0.264207 0.549965 0.800848 0.121298
C31   C     C_R   0.561150 0.099381 0.250034 -0.152723
C32   C     C_R   0.538949 0.088251 0.185693 -0.060088
C33   C     C_R   0.551239 0.152402 0.121738 -0.095126
C34   C     C_R   0.585480 0.228109 0.121692 -0.147329
C35   C     C_R   0.608275 0.241541 0.186313 0.062203
C36   C     C_R   0.596069 0.175650 0.251665 0.058411
C37   C     C_R   0.643692 0.318933 0.186099 -0.137312
C38   C     C_R   0.666751 0.331018 0.252294 -0.005568
C39   C     C_R   0.655530 0.263467 0.317425 -0.021787
C40   C     C_R   0.619951 0.186462 0.317088 -0.117910
C41   C     C_R   0.702710 0.407139 0.257387 0.013548
C42   C     C_R   0.746875 0.412465 0.323977 0.137914
C43   C     C_R   0.719900 0.346924 0.386756 0.448176
C44   C     C_R   0.675279 0.273784 0.383098 -0.259655
H10   H     H_    0.550893 0.047463 0.298370 0.118908
H11   H     H_    0.512432 0.029509 0.185492 0.169744
H12   H     H_    0.534335 0.143503 0.071805 0.138977
H13   H     H_    0.594080 0.275741 0.070289 0.090818
H14   H     H_    0.658232 0.224261 0.432816 0.161668
O11   O     O_R   0.770540 0.084530 0.414050 -0.535865
O12   O     O_R   0.445710 0.065660 0.555720 -0.531220
O13   O     O_R   0.270420 0.915650 0.586190 -0.538806
C45   C     C_R   0.614668 0.076971 0.578427 0.713826
O14   O     O_R   0.441140 0.093540 0.412470 -0.537698
O15   O     O_R   0.265820 0.943740 0.441930 -0.532549
C46   C     C_R   0.609856 0.116656 0.385359 0.683340
O16   O     O_R   0.775150 0.056440 0.558310 -0.534724
O17   O     O_3   0.602370 0.950960 0.510050 -0.367660
V3    V     V_3+5 0.329450 0.009140 0.498150 1.508119
O18   O     O_R   0.935790 0.934280 0.444060 -0.530207
C47   C     C_R   0.103140 0.921482 0.422908 0.702130
O19   O     O_R   0.940370 0.906390 0.587310 -0.541234
C48   C     C_R   0.109025 0.883553 0.614734 0.679208
V4    V     V_3+5 0.828810 0.990710 0.501460 1.504505
O20   O     O_3   0.105780 0.049100 0.489960 -0.363760
C49   C     C_3   0.684901 0.313908 0.720079 -0.251516
C50   C     C_3   0.510136 0.268927 0.706307 -0.003955
H15   H     H_    0.421416 0.293687 0.657624 0.232764
H16   H     H_    0.726112 0.375720 0.687361 0.155754
H17   H     H_    0.322331 0.237296 0.812358 0.180513
C51   C     C_1   0.623678 0.116845 0.628792 -0.062116
C52   C     C_1   0.640150 0.371544 0.881080 -0.183389
C53   C     C_3   0.804960 0.240168 0.732168 0.502621
C54   C     C_3   0.632693 0.195637 0.718856 -0.000806
C55   C     C_3   0.764159 0.208925 0.812795 -0.209183
C56   C     C_3   0.639090 0.281968 0.800226 0.032373
C57   C     C_3   0.586892 0.163791 0.799209 -0.212895
C58   C     C_3   0.462609 0.237700 0.787327 0.016208
C59   C     C_1   0.628433 0.150867 0.670530 0.154133
C60   C     C_1   0.638676 0.331040 0.844790 0.010140
H18   H     H_    0.545651 0.101882 0.831569 0.184421
H19   H     H_    0.871993 0.184689 0.855779 0.155703
I1    I     I_    0.318744 0.634283 0.528161 -0.313206
S1    S     S_3+6 0.731941 0.356148 0.471010 0.070676
O21   O     O_2   0.662043 0.281805 0.528187 -0.342743
O22   O     O_2   0.935045 0.372470 0.486403 -0.267872
O23   O     O_3   0.594801 0.431619 0.470154 -0.467559
H20   H     H_    0.611748 0.434245 0.518044 0.372802
I2    I     I_    0.660236 0.520248 0.174056 -0.292067
I3    I     I_    0.868788 0.518360 0.330999 -0.220020
S2    S     S_3+6 0.029035 0.247140 0.692577 -0.025364
O24   O     O_2   0.141357 0.174761 0.733615 -0.364211
O25   O     O_2   0.009156 0.252891 0.616730 -0.267533
O26   O     O_3   0.131815 0.329941 0.695791 -0.546225
H21   H     H_    0.082412 0.373433 0.653421 0.358504
S3    S     S_3+6 0.530678 0.764215 0.314393 -0.005703
O27   O     O_2   0.661777 0.826851 0.267002 -0.328298
O28   O     O_2   0.500802 0.779285 0.381887 -0.328505
O29   O     O_3   0.620443 0.673637 0.334069 -0.506286
H22   H     H_    0.560634 0.640524 0.379711 0.379397
I4    I     I_    0.458925 0.851911 0.104620 -0.070818
I5    I     I_    0.979238 0.947616 0.144477 -0.251201
S4    S     S_3+6 0.887825 0.852405 0.955237 0.042089
O30   O     O_2   0.737198 0.790962 0.989558 -0.293836
O31   O     O_2   0.055482 0.838422 0.005212 -0.320251
O32   O     O_3   0.798961 0.942726 0.939658 -0.476169
H23   H     H_    0.911895 0.978208 0.931849 0.345514

loop_
_geom_bond_atom_site_label_1
_geom_bond_atom_site_label_2
_ccdc_geom_bond_type
C49   C50   S    
H4    C29   S    
C19   C20   A    
C10   C13   S    
O11   C46   A    
C1    O6    A    
S2    O25   D    
O18   C47   A    
C28   I1    S    
C54   C57   S    
C43   S1    S    
C32   C33   A    
C35   C36   A    
S1    O22   D    
C21   C22   A    
C6    C10   S    
C5    C12   S    
C8    C47   S    
C4    C7    S    
C20   C21   A    
C23   C48   S    
C22   C26   A    
C14   S3    S    
S3    O28   D    
V4    O20   S    
C33   H12   S    
V2    O10   S    
C49   C53   S    
C5    H2    S    
O23   H20   S    
C18   C19   A    
C25   C26   A    
C45   C51   S    
C10   C15   S    
V3    O20   S    
O11   V4    S    
O8    V2    S    
C24   C27   A    
C40   C46   S    
C55   C57   S    
C3    C26   S    
C25   C30   A    
O1    V2    S    
O14   V3    S    
O13   C48   A    
C50   C54   S    
C38   C39   A    
O9    C4    A    
C42   I3    S    
C19   H6    S    
S2    O24   D    
C56   C58   S    
C13   I4    S    
C17   C18   A    
C2    C52   S    
S1    O23   S    
C6    C14   S    
O12   C45   A    
S3    O29   S    
O15   C47   A    
C23   C24   A    
O4    C2    A    
C54   C59   S    
C6    H1    S    
C11   C12   S    
C57   H18   S    
C7    C15   T    
C30   H9    S    
O17   V3    S    
C39   C40   A    
C9    H3    S    
O2    C1    A    
C27   C28   A    
C41   C42   A    
C11   I5    S    
O19   C48   A    
C41   I2    S    
C9    C10   S    
C55   C56   S    
C34   C35   A    
C5    C6    S    
C5    C9    S    
C31   C32   A    
C53   C55   S    
O14   C46   A    
C34   H13   S    
O3    C4    A    
S4    O32   S    
O16   V4    S    
C24   C25   A    
O19   V4    S    
C39   C44   A    
C12   C16   S    
O6    V2    S    
O9    V2    S    
C17   H5    S    
C49   H16   S    
C52   C60   T    
O32   H23   S    
O2    V1    S    
O17   V4    S    
C31   H10   S    
O29   H22   S    
C51   C59   T    
S4    O31   D    
O7    V1    S    
C33   C34   A    
C38   C41   A    
C18   S4    S    
C8    C16   T    
O1    C2    A    
C28   C29   A    
O15   V3    S    
O5    V1    S    
O8    C3    A    
C27   H8    S    
C36   C40   A    
C11   C13   S    
S1    O21   D    
C12   C14   S    
C17   C22   A    
C43   C44   A    
C37   C38   A    
O4    V1    S    
O12   V3    S    
O3    V1    S    
V1    O10   S    
S3    O27   D    
O5    C3    A    
C53   S2    S    
O13   V3    S    
C35   C37   A    
C9    C11   S    
O7    V2    S    
C53   C54   S    
C32   H11   S    
C56   C60   S    
C50   C58   S    
C31   C36   A    
C42   C43   A    
C29   C30   A    
C50   H15   S    
C21   C23   A    
C57   C58   S    
C45   O16   A    
C55   H19   S    
C1    C37   S    
C13   C14   S    
H17   C58   S    
C44   H14   S    
S2    O26   S    
O18   V4    S    
C20   H7    S    
O26   H21   S    
S4    O30   D    
C49   C56   S    
