data_mof_unit_26809.cif
_audit_creation_date              2012-10-26T19:59:14-0400
_audit_creation_method            fapswitch 2.2
_symmetry_space_group_name_H-M    P1
_symmetry_Int_Tables_number       1
_space_group_crystal_system       triclinic
_cell_length_a                    7.496064
_cell_length_b                    8.674657
_cell_length_c                    15.819954
_cell_angle_alpha                 94.88975
_cell_angle_beta                  75.751722
_cell_angle_gamma                 102.80104
_cell_volume                      971.765370415

loop_
_atom_site_label
_atom_site_type_symbol
_atom_type_description
_atom_site_fract_x
_atom_site_fract_y
_atom_site_fract_z
_atom_type_partial_charge
C1    C     C_R   0.544566 0.799818 0.502877 0.525998
C2    C     C_R   0.614605 0.512005 0.334222 0.518004
C3    C     C_R   0.316792 0.476654 0.760792 -0.007534
C4    C     C_R   0.683055 0.534389 0.240139 -0.007554
C5    C     C_R   0.072781 0.384752 0.887742 -0.133729
C6    C     C_R   0.916045 0.658941 0.117683 -0.134951
C7    C     C_R   0.128409 0.412199 0.798709 -0.144976
C8    C     C_R   0.865218 0.617605 0.204785 -0.146309
C9    C     C_R   0.446185 0.521168 0.813282 -0.136443
C10   C     C_R   0.555525 0.486785 0.187015 -0.134222
C11   C     C_R   0.393317 0.497753 0.903569 0.029938
C12   C     C_R   0.455570 0.200186 0.496951 0.526228
C13   C     C_R   0.600155 0.532487 0.099941 0.029648
C14   C     C_R   0.204163 0.423985 0.939942 0.046014
C15   C     C_R   0.784892 0.618516 0.065389 0.044269
C16   C     C_R   0.524201 0.540375 0.957854 0.027461
C17   C     C_R   0.466398 0.497160 0.046889 0.028574
C18   C     C_3   0.942462 0.704625 0.640793 0.045609
C19   C     C_3   0.070713 0.829905 0.684363 -0.396251
C20   C     C_3   0.059717 0.297236 0.358416 0.045894
C21   C     C_3   0.932181 0.174293 0.313280 -0.398664
C22   C     C_R   0.275911 0.423458 0.080302 -0.143420
C23   C     C_R   0.709866 0.626878 0.926452 -0.144666
C24   C     C_R   0.148025 0.388384 0.027765 -0.134291
C25   C     C_R   0.836710 0.665342 0.979403 -0.134191
C26   C     C_2   0.569048 0.967751 0.504934 -0.167809
C27   C     C_2   0.431347 0.032260 0.494602 -0.168364
C28   C     C_R   0.385427 0.489119 0.665896 0.518633
Cu1   Cu    Cu3+1 0.322120 0.483240 0.490330 1.031669
Cu2   Cu    Cu3+1 0.677880 0.516760 0.509670 1.031608
H1    H     H_    0.003533 0.332412 0.056303 0.118624
H2    H     H_    0.761541 0.671091 0.861586 0.094134
H3    H     H_    0.701632 0.038628 0.515086 0.164458
H4    H     H_    0.298825 0.961381 0.484382 0.164397
H5    H     H_    0.906386 0.594647 0.678571 0.123844
H6    H     H_    0.813452 0.748993 0.643200 0.158790
H7    H     H_    0.106395 0.942771 0.649745 0.154285
H8    H     H_    0.998610 0.850803 0.753246 0.084816
H9    H     H_    0.202383 0.790177 0.683148 0.162168
H10   H     H_    0.187229 0.251101 0.356647 0.158709
H11   H     H_    0.098564 0.408114 0.321216 0.126071
H12   H     H_    0.977121 0.732243 0.952568 0.115966
H13   H     H_    0.801221 0.215077 0.314461 0.161925
H14   H     H_    0.005665 0.155517 0.244343 0.086309
H15   H     H_    0.895065 0.060177 0.346784 0.153786
H16   H     H_    0.421237 0.415281 0.216166 0.096004
H17   H     H_    0.589462 0.568569 0.781188 0.100517
H18   H     H_    0.965884 0.655289 0.245025 0.128567
H19   H     H_    0.025949 0.377546 0.759194 0.127055
H20   H     H_    0.927424 0.330457 0.915648 0.118953
H21   H     H_    0.057174 0.724967 0.091489 0.118417
H22   H     H_    0.218261 0.394073 0.147600 0.095032
N1    N     N_2   0.945180 0.542040 0.524240 0.093864
N2    N     N_2   0.054820 0.457960 0.475760 0.094103
O1    O     O_R   0.384450 0.714270 0.493720 -0.452877
O2    O     O_3   0.963827 0.321516 0.445192 -0.458588
O3    O     O_R   0.615550 0.285730 0.506280 -0.452664
O4    O     O_R   0.684880 0.742590 0.510050 -0.509217
O5    O     O_R   0.315120 0.257410 0.489950 -0.509696
O6    O     O_R   0.265540 0.477900 0.617090 -0.494081
O7    O     O_R   0.734460 0.522100 0.382910 -0.493648
O8    O     O_R   0.565970 0.506210 0.633420 -0.544301
O9    O     O_R   0.434030 0.493790 0.366580 -0.543260
O10   O     O_3   0.036308 0.679403 0.553791 -0.458635

loop_
_geom_bond_atom_site_label_1
_geom_bond_atom_site_label_2
_ccdc_geom_bond_type
C25   H12   S    
C10   H16   S    
C2    C4    S    
C8    H18   S    
N2    O2    S    
Cu1   Cu2   S    
C3    C9    A    
C19   H8    S    
C6    H21   S    
C21   H14   S    
Cu1   O1    S    
C18   H5    S    
C26   H3    S    
C21   H15   S    
C17   C22   A    
Cu1   O6    S    
C13   C17   A    
C20   O2    S    
C23   H2    S    
Cu1   O9    S    
C20   H11   S    
C5    C14   A    
C24   H1    S    
C27   H4    S    
C21   H13   S    
N1    N2    D    
C2    O9    A    
C9    C11   A    
C18   O10   S    
C26   C27   D    
C19   H9    S    
C12   O3    A    
Cu2   O4    S    
C3    C28   S    
C11   C14   A    
C9    H17   S    
C16   C23   A    
C3    C7    A    
C28   O6    A    
C13   C15   A    
C1    O1    A    
C1    C26   S    
C20   H10   S    
Cu2   N1    S    
C22   C24   A    
C5    H20   S    
C15   C25   A    
Cu1   N2    S    
Cu2   O8    S    
C4    C10   A    
Cu2   O3    S    
C23   C25   A    
C20   C21   S    
C7    H19   S    
C22   H22   S    
C18   C19   S    
C11   C16   A    
Cu2   O7    S    
C14   C24   A    
C4    C8    A    
C5    C7    A    
C12   C27   S    
C6    C8    A    
C19   H7    S    
C6    C15   A    
C1    O4    A    
C12   O5    A    
C18   H6    S    
N1    O10   S    
C10   C13   A    
Cu1   O5    S    
C16   C17   A    
C2    O7    A    
C28   O8    A    
