data_mof_unit_64610.cif
_audit_creation_date              2012-12-10T20:11:12-0500
_audit_creation_method            fapswitch 2.2
_symmetry_space_group_name_H-M    P1
_symmetry_Int_Tables_number       1
_space_group_crystal_system       triclinic
_cell_length_a                    19.230433
_cell_length_b                    18.603309
_cell_length_c                    14.135629
_cell_angle_alpha                 89.999827
_cell_angle_beta                  91.393173
_cell_angle_gamma                 89.997396
_cell_volume                      5055.52196412

loop_
_atom_site_label
_atom_site_type_symbol
_atom_type_description
_atom_site_fract_x
_atom_site_fract_y
_atom_site_fract_z
_atom_type_partial_charge
C1    C     C_R   0.366239 0.500004 0.499646 0.910456
C2    C     C_R   0.633761 0.500003 0.500437 0.910959
C3    C     C_R   0.963214 0.557300 0.459238 -0.082991
C4    C     C_R   0.036937 0.445720 0.548896 -0.084075
C5    C     C_R   0.035277 0.557263 0.459086 -0.083321
C6    C     C_R   0.964868 0.445756 0.549046 -0.084388
C7    C     C_R   0.072090 0.501387 0.503726 0.198494
C8    C     C_R   0.928051 0.501460 0.504028 0.198444
C9    C     C_R   0.536415 0.727624 0.568937 0.188503
C10   C     C_R   0.463581 0.272387 0.431056 0.188567
C11   C     C_R   0.463577 0.727619 0.431061 0.188688
C12   C     C_R   0.536408 0.272371 0.568942 0.188671
C13   C     C_R   0.537222 0.803272 0.568841 -0.135429
C14   C     C_R   0.462755 0.196738 0.431151 -0.135492
C15   C     C_R   0.462754 0.803267 0.431156 -0.135822
C16   C     C_R   0.537214 0.196723 0.568846 -0.135804
C17   C     C_R   0.499985 0.842296 0.499997 0.184277
C18   C     C_R   0.499981 0.157704 0.499997 0.184292
C19   C     C_R   0.437306 0.962182 0.490429 0.507910
C20   C     C_R   0.562657 0.037818 0.509551 0.507904
C21   C     C_R   0.562658 0.962178 0.509551 0.507730
C22   C     C_R   0.437305 0.037823 0.490428 0.507739
C23   C     C_R   0.499980 0.076836 0.499991 -0.355753
C24   C     C_R   0.499982 0.923164 0.499992 -0.355739
C25   C     C_R   0.499825 0.500000 0.329159 0.869674
C26   C     C_R   0.500181 0.500000 0.670840 0.868338
C27   C     C_1   0.499825 0.500001 0.227741 -0.215236
C28   C     C_1   0.500183 0.499999 0.772257 -0.215579
C29   C     C_1   0.499869 0.500001 0.142488 0.018622
C30   C     C_1   0.500141 0.500000 0.857509 0.019218
C31   C     C_1   0.499960 0.500000 0.042629 0.040452
C32   C     C_1   0.500050 0.500000 0.957368 0.040628
C33   C     C_R   0.745407 0.499999 0.588526 -0.027718
C34   C     C_R   0.253420 0.500499 0.414405 -0.028319
C35   C     C_R   0.257829 0.499982 0.587821 -0.015610
C36   C     C_R   0.743447 0.500556 0.415107 -0.016349
C37   C     C_R   0.817614 0.500444 0.588925 0.642107
C38   C     C_R   0.181255 0.500952 0.415940 0.642646
C39   C     C_R   0.185644 0.500392 0.588368 0.637729
C40   C     C_R   0.815661 0.501039 0.416496 0.638369
C41   C     C_R   0.852613 0.501027 0.503159 -0.304408
C42   C     C_R   0.147492 0.500942 0.502677 -0.304417
C43   C     C_R   0.708478 0.500064 0.501360 -0.296322
C44   C     C_R   0.291555 0.500058 0.500598 -0.295860
H1    H     H_    0.934835 0.600776 0.424954 0.174386
H2    H     H_    0.065309 0.402125 0.582920 0.174635
H3    H     H_    0.062391 0.600717 0.424702 0.174310
H4    H     H_    0.937753 0.402181 0.583170 0.174592
H5    H     H_    0.565814 0.831452 0.624452 0.199171
H6    H     H_    0.434165 0.168565 0.375532 0.199152
H7    H     H_    0.434159 0.831443 0.375541 0.198987
H8    H     H_    0.565802 0.168540 0.624460 0.198969
N1    N     N_R   0.500000 0.689440 0.500000 -0.116738
N2    N     N_R   0.500000 0.310560 0.500000 -0.116737
O1    O     O_R   0.398180 0.560840 0.499980 -0.615836
O2    O     O_R   0.601820 0.439160 0.500020 -0.615756
O3    O     O_R   0.601820 0.560840 0.500020 -0.616091
O4    O     O_R   0.398180 0.439160 0.499980 -0.616066
O5    O     O_R   0.500000 0.560830 0.373710 -0.614140
O6    O     O_R   0.500000 0.439170 0.626290 -0.614162
O7    O     O_R   0.500000 0.560830 0.626290 -0.614000
O8    O     O_R   0.500000 0.439170 0.373710 -0.613917
Zn1   Zn    Zn3+2 0.500000 0.581210 0.500000 0.926288
Zn2   Zn    Zn3+2 0.500000 0.418790 0.500000 0.926293
N3    N     N_3   0.710527 0.499770 0.677065 -0.357823
H9    H     H_    0.678923 0.454130 0.679590 0.181161
H10   H     H_    0.678609 0.545172 0.679774 0.182932
N4    N     N_3   0.287027 0.500307 0.324932 -0.357355
H11   H     H_    0.319019 0.545616 0.321546 0.181080
H12   H     H_    0.318452 0.454574 0.321479 0.183407
N5    N     N_3   0.295991 0.499764 0.676270 -0.359197
H13   H     H_    0.327979 0.545203 0.678867 0.197418
H14   H     H_    0.327721 0.454127 0.678660 0.195566
N6    N     N_3   0.706534 0.500400 0.325711 -0.358650
H15   H     H_    0.674986 0.454653 0.322318 0.197489
H16   H     H_    0.674408 0.545722 0.322460 0.195342
F1    F     F_    0.853683 0.501620 0.672796 -0.606403
F2    F     F_    0.144004 0.500145 0.332997 -0.605782
F3    F     F_    0.152666 0.501571 0.672309 -0.606962
F4    F     F_    0.849852 0.500264 0.333477 -0.606323
N7    N     N_3   0.573662 0.692688 0.644495 -0.440094
H17   H     H_    0.538085 0.671187 0.691285 0.213578
H18   H     H_    0.605565 0.652807 0.617640 0.230463
N8    N     N_3   0.426366 0.307332 0.355473 -0.440207
H19   H     H_    0.461969 0.328790 0.308684 0.213551
H20   H     H_    0.394485 0.347251 0.382287 0.230464
N9    N     N_3   0.426348 0.692679 0.355492 -0.440962
H21   H     H_    0.461940 0.671205 0.308697 0.213476
H22   H     H_    0.394463 0.652774 0.382324 0.230109
N10   N     N_3   0.573654 0.307301 0.644501 -0.441010
H23   H     H_    0.538075 0.328806 0.691289 0.213445
H24   H     H_    0.605553 0.347181 0.617640 0.230029
F5    F     F_    0.375496 0.927061 0.483865 -0.585962
F6    F     F_    0.624467 0.072939 0.516114 -0.585952
F7    F     F_    0.624469 0.927053 0.516113 -0.585986
F8    F     F_    0.375495 0.072949 0.483863 -0.585973

loop_
_geom_bond_atom_site_label_1
_geom_bond_atom_site_label_2
_ccdc_geom_bond_type
N9    H21   S    
C27   C29   T    
C14   C18   A    
N7    H17   S    
C2    O3    A    
C33   N3    S    
C4    H2    S    
C5    H3    S    
C6    H4    S    
C12   N10   S    
C26   O7    A    
N8    H20   S    
C38   C42   A    
C7    C42   S    
O7    Zn1   S    
C9    C13   A    
O8    Zn2   S    
C11   C15   A    
C12   C16   A    
C11   N9    S    
N4    H11   S    
N3    H10   S    
O1    Zn1   S    
C40   F4    S    
C15   H7    S    
C19   F5    S    
C35   N5    S    
C4    C7    A    
N7    H18   S    
O3    Zn1   S    
C39   C42   A    
O4    Zn2   S    
C17   C24   S    
N6    H15   S    
C18   C23   S    
C33   C43   A    
C36   C40   A    
C19   C22   A    
C34   C44   A    
N8    H19   S    
C4    C6    A    
C3    C8    A    
C10   C14   A    
C34   N4    S    
C5    C7    A    
C6    C8    A    
C21   F7    S    
C37   F1    S    
C3    H1    S    
C33   C37   A    
C39   F3    S    
C35   C39   A    
C1    C44   S    
N10   H24   S    
C31   C32   T    
C20   C23   A    
C2    C43   S    
O2    Zn2   S    
C8    C41   S    
C35   C44   A    
N6    H16   S    
C13   H5    S    
C16   C18   A    
C40   C41   A    
N9    H22   S    
O5    Zn1   S    
C9    N1    A    
N5    H14   S    
C15   C17   A    
C20   F6    S    
C36   N6    S    
C34   C38   A    
C22   F8    S    
C16   H8    S    
C3    C5    A    
C11   N1    A    
C25   C27   S    
C38   F2    S    
C26   C28   S    
C13   C17   A    
O6    Zn2   S    
C28   C30   T    
C19   C24   A    
C1    O1    A    
N5    H13   S    
C29   C31   S    
C2    O2    A    
C1    O4    A    
C30   C32   S    
N1    Zn1   S    
N10   H23   S    
C14   H6    S    
N2    Zn2   S    
C10   N8    S    
C25   O8    A    
C37   C41   A    
C10   N2    A    
C20   C21   A    
N4    H12   S    
N3    H9    S    
C21   C24   A    
C22   C23   A    
C36   C43   A    
C25   O5    A    
C26   O6    A    
C12   N2    A    
C9    N7    S    
