data_mof_unit_47424.cif
_audit_creation_date              2013-03-05T15:46:21-0500
_audit_creation_method            fapswitch 2.2
_symmetry_space_group_name_H-M    P1
_symmetry_Int_Tables_number       1
_space_group_crystal_system       triclinic
_cell_length_a                    10.269767
_cell_length_b                    10.586232
_cell_length_c                    10.752411
_cell_angle_alpha                 92.85657
_cell_angle_beta                  96.728765
_cell_angle_gamma                 82.367068
_cell_volume                      1149.94578173

loop_
_atom_site_label
_atom_site_type_symbol
_atom_site_description
_atom_site_fract_x
_atom_site_fract_y
_atom_site_fract_z
_atom_type_partial_charge
O1    O     O_R   0.568950 0.489660 0.307530 -0.668749
O2    O     O_R   0.348880 0.522640 0.340350 -0.511939
C1    C     C_R   0.443205 0.512640 0.267315 0.772100
O3    O     O_R   0.610060 0.300270 0.483590 -0.613292
O4    O     O_R   0.389990 0.333260 0.516410 -0.532529
C2    C     C_R   0.498337 0.261582 0.496481 0.884111
Zn1   Zn    Zn3+2 0.646940 0.477980 0.478090 1.033253
Zn2   Zn    Zn3+2 0.353060 0.522020 0.521910 1.112593
O5    O     O_R   0.651120 0.477360 0.659650 -0.514798
O6    O     O_R   0.431050 0.510340 0.692470 -0.605908
O7    O     O_R   0.610010 0.666740 0.483590 -0.615665
O8    O     O_R   0.389940 0.699730 0.516410 -0.560076
C3    C     C_R   0.556576 0.494461 0.732853 0.969501
C4    C     C_R   0.500937 0.738978 0.501087 0.937140
H1    H     H_    0.457339 0.137090 0.682880 0.194189
C5    C     C_R   0.533019 0.114071 0.267338 -0.119946
H2    H     H_    0.529193 0.216229 0.261289 0.144848
C6    C     C_R   0.553379 0.039051 0.159407 -0.053969
H3    H     H_    0.566659 0.083304 0.073944 0.190412
C7    C     C_R   0.555775 0.907488 0.161472 -0.067837
H4    H     H_    0.570684 0.849168 0.077440 0.199888
C8    C     C_R   0.538269 0.850763 0.271655 -0.155792
H5    H     H_    0.539458 0.748749 0.268408 0.129671
C9    C     C_R   0.519243 0.925233 0.382788 0.039881
C10   C     C_R   0.516596 0.057474 0.380096 0.101255
C11   C     C_R   0.495055 0.129650 0.490549 -0.121624
C12   C     C_R   0.473611 0.076539 0.600280 -0.210752
C13   C     C_R   0.477172 0.947095 0.605399 0.455890
C14   C     C_R   0.500633 0.871932 0.496591 -0.234028
H6    H     H_    0.400699 0.599950 0.889435 0.248949
H7    H     H_    0.610906 0.546016 0.113022 0.189230
C15   C     C_2   0.409058 0.536125 0.134727 0.275475
C16   C     C_2   0.509807 0.549452 0.068622 -0.365717
H8    H     H_    0.685493 0.462095 0.910750 0.194129
C17   C     C_2   0.589087 0.502709 0.867358 -0.253808
C18   C     C_2   0.494178 0.556743 0.934775 -0.034151
N1    N     N_2   0.157290 0.551390 0.551110 -0.207636
C19   C     C_2   0.075330 0.472601 0.496845 0.282427
H9    H     H_    0.857623 0.458433 0.357020 0.191853
N2    N     N_2   0.842740 0.448550 0.448960 -0.216962
C20   C     C_2   0.939542 0.477324 0.531979 0.269302
H10   H     H_    0.116316 0.628860 0.601656 0.210506
S1    S     S_3+6 0.242206 0.535169 0.066731 0.093654
O9    O     O_2   0.200641 0.643505 0.979621 -0.268669
O10   O     O_2   0.234239 0.410434 0.995142 -0.239388
O11   O     O_3   0.136524 0.548473 0.176308 -0.493292
H11   H     H_    0.051230 0.529741 0.130946 0.397535
S2    S     S_3+6 0.933290 0.473780 0.695605 0.086750
O12   O     O_2   0.853085 0.592887 0.740507 -0.225600
O13   O     O_2   0.876255 0.357252 0.727195 -0.273395
O14   O     O_3   0.086394 0.467161 0.771583 -0.473913
H12   H     H_    0.130448 0.380887 0.750869 0.383978
S3    S     S_3+6 0.123984 0.324071 0.414835 0.076193
O15   O     O_2   0.220781 0.334187 0.323130 -0.199631
O16   O     O_2   0.182407 0.227428 0.510525 -0.304748
O17   O     O_3   0.995118 0.263839 0.332246 -0.549445
H13   H     H_    0.965410 0.204769 0.388514 0.378682
S4    S     S_3+6 0.458852 0.882628 0.750750 0.022484
O18   O     O_2   0.574743 0.783814 0.785560 -0.315063
O19   O     O_2   0.453236 0.985769 0.852025 -0.332143
O20   O     O_3   0.318294 0.815175 0.737677 -0.523789
H14   H     H_    0.294276 0.815059 0.824265 0.398373

loop_
_geom_bond_atom_site_label_1
_geom_bond_atom_site_label_2
_geom_bond_distance
_ccdc_geom_bond_type
O4    Zn2   1.983058 S    
Zn1   N2    2.051831 S    
H7    C16   1.087551 S    
C9    C10   1.398264 A    
N2    C20   1.312750 D    
N1    C19   1.329478 D    
C5    C10   1.415824 A    
C13   S4    1.775682 S    
H1    C12   1.084989 S    
C17   C18   1.333730 D    
H6    C18   1.079078 S    
Zn2   O8    1.972760 S    
C15   C16   1.347879 D    
O20   H14   0.990793 S    
S4    O20   1.682144 S    
S2    O13   1.503516 D    
O2    C1    1.307296 A    
S4    O18   1.501591 D    
C5    C6    1.393606 A    
O1    Zn1   1.916292 S    
S3    O15   1.496811 D    
O17   H13   0.990863 S    
Zn1   O7    1.983059 S    
S1    O10   1.501828 D    
C11   C12   1.384422 A    
C2    C11   1.399643 S    
C19   S3    1.804428 S    
O3    Zn1   1.972760 S    
O4    C2    1.294279 A    
O3    C2    1.292737 A    
S2    O12   1.502668 D    
S1    O11   1.681811 S    
C20   S2    1.770483 S    
O8    C4    1.294538 A    
C3    C17   1.446640 S    
C6    C7    1.390939 A    
S3    O16   1.504165 D    
S1    O9    1.502708 D    
C1    C15   1.453357 S    
O7    C4    1.297085 A    
C8    C9    1.416859 A    
Zn2   N1    2.051717 S    
N1    H10   1.030797 S    
C4    C14   1.410303 S    
S4    O19   1.503599 D    
O14   H12   0.990960 S    
C9    C14   1.415803 A    
H9    N2    1.030319 S    
C16   C18   1.434086 S    
C6    H3    1.082478 S    
C7    H4    1.082917 S    
C19   C20   1.480855 S    
Zn2   O6    1.916292 S    
H8    C17   1.086935 S    
S3    O17   1.684914 S    
C12   C13   1.369627 A    
Zn1   O5    1.947963 S    
O5    C3    1.308908 A    
C8    H5    1.077260 S    
C13   C14   1.407939 A    
C10   C11   1.403366 A    
O11   H11   0.990404 S    
C15   S1    1.783568 S    
S2    O14   1.679286 S    
O2    Zn2   1.947963 S    
C7    C8    1.395005 A    
C5    H2    1.081877 S    
O1    C1    1.307655 A    
O6    C3    1.302755 A    
