data_mof_unit_36622.cif
_audit_creation_date              2013-03-05T15:49:55-0500
_audit_creation_method            fapswitch 2.2
_symmetry_space_group_name_H-M    P1
_symmetry_Int_Tables_number       1
_space_group_crystal_system       triclinic
_cell_length_a                    27.800105
_cell_length_b                    13.001968
_cell_length_c                    11.676329
_cell_angle_alpha                 100.498204
_cell_angle_beta                  93.675332
_cell_angle_gamma                 90.265347
_cell_volume                      4140.72471718

loop_
_atom_site_label
_atom_site_type_symbol
_atom_site_description
_atom_site_fract_x
_atom_site_fract_y
_atom_site_fract_z
_atom_type_partial_charge
O1    O     O_R   0.502540 0.354460 0.582000 -0.614276
O2    O     O_R   0.497460 0.645540 0.418000 -0.612138
O3    O     O_R   0.496500 0.341410 0.386200 -0.507757
O4    O     O_R   0.503500 0.658590 0.613800 -0.501959
C1    C     C_R   0.500233 0.298839 0.477810 0.928594
C2    C     C_R   0.500252 0.701202 0.522226 0.938504
O5    O     O_R   0.433290 0.506540 0.597890 -0.583093
O6    O     O_R   0.566710 0.493460 0.402110 -0.583035
O7    O     O_R   0.427240 0.493490 0.402090 -0.529959
O8    O     O_R   0.572760 0.506510 0.597910 -0.546202
C3    C     C_R   0.407588 0.500079 0.500564 0.966656
C4    C     C_R   0.592327 0.500480 0.499544 0.973931
Cu1   Cu    Cu3+1 0.503580 0.507730 0.615930 1.065472
Cu2   Cu    Cu3+1 0.496420 0.492270 0.384070 1.066716
C5    C     C_R   0.175511 0.509745 0.407215 0.634819
C6    C     C_R   0.823717 0.527855 0.600545 0.628445
O9    O     O_2   0.197812 0.510718 0.308039 -0.469236
O10   O     O_2   0.801010 0.548957 0.700770 -0.498256
N1    N     N_R   0.202201 0.508312 0.509245 -0.444791
N2    N     N_R   0.797381 0.506361 0.496099 -0.439229
C7    C     C_R   0.180805 0.510880 0.612053 0.571306
C8    C     C_R   0.818962 0.483266 0.392736 0.576042
C9    C     C_R   0.281858 0.588627 0.568620 -0.203829
C10   C     C_R   0.720665 0.410890 0.477910 -0.208989
C11   C     C_R   0.332045 0.588529 0.566434 0.256396
C12   C     C_R   0.670491 0.407496 0.480376 0.267411
C13   C     C_R   0.326737 0.414474 0.442541 0.182319
C14   C     C_R   0.670091 0.599447 0.513717 0.143788
C15   C     C_R   0.276216 0.415682 0.447543 0.460029
C16   C     C_R   0.720738 0.600762 0.511410 0.454682
C17   C     C_R   0.253880 0.504038 0.508455 0.122667
C18   C     C_R   0.745745 0.506200 0.495040 0.137549
C19   C     C_R   0.101979 0.513753 0.509652 -0.085947
C20   C     C_R   0.897614 0.505047 0.499016 -0.084857
C21   C     C_R   0.125088 0.509787 0.404906 -0.038842
C22   C     C_R   0.874174 0.527973 0.604049 -0.029580
C23   C     C_R   0.097547 0.506594 0.299929 -0.106766
C24   C     C_R   0.901422 0.551230 0.710478 -0.109944
C25   C     C_R   0.130133 0.518431 0.615911 -0.146902
C26   C     C_R   0.869796 0.479847 0.391457 -0.147146
C27   C     C_R   0.354801 0.501216 0.502619 -0.327773
C28   C     C_R   0.644964 0.502362 0.498244 -0.327129
H1    H     H_    0.114508 0.506257 0.218856 0.217388
H2    H     H_    0.884181 0.570397 0.792143 0.206530
C29   C     C_R   0.972218 0.491204 0.396212 -0.016928
C30   C     C_R   0.027500 0.522071 0.613258 -0.014956
C31   C     C_R   0.976300 0.526646 0.610992 0.076413
C32   C     C_R   0.023178 0.501651 0.399103 0.075076
C33   C     C_R   0.948857 0.507509 0.502039 0.081558
C34   C     C_R   0.050743 0.512667 0.507478 0.082212
C35   C     C_R   0.943930 0.461681 0.290481 -0.252318
C36   C     C_R   0.056328 0.526805 0.718166 -0.250770
C37   C     C_R   0.893779 0.453844 0.287062 0.362170
C38   C     C_R   0.106585 0.526808 0.720996 0.362989
O11   O     O_2   0.791065 0.466433 0.292106 -0.472609
O12   O     O_2   0.208613 0.502917 0.708877 -0.457312
C39   C     C_R   0.047618 0.502552 0.296850 -0.184142
C40   C     C_R   0.951393 0.550482 0.714169 -0.179964
H3    H     H_    0.740750 0.338949 0.465563 0.212256
H4    H     H_    0.264125 0.656275 0.614908 0.215807
H5    H     H_    0.960110 0.437955 0.208510 0.177473
H6    H     H_    0.040869 0.530200 0.800951 0.174510
H7    H     H_    0.029031 0.502972 0.213020 0.159477
H8    H     H_    0.969397 0.571994 0.799709 0.154894
C41   C     C_R   0.499617 0.815260 0.536421 -0.101418
C42   C     C_R   0.502418 0.184908 0.463938 -0.075309
C43   C     C_R   0.516150 0.012930 0.350823 -0.265479
C44   C     C_R   0.486909 0.987455 0.650092 -0.253950
C45   C     C_R   0.515539 0.122195 0.358672 0.501308
C46   C     C_R   0.489939 0.879096 0.643895 0.520165
C47   C     C_R   0.493022 0.139368 0.560101 -0.253019
C48   C     C_R   0.508532 0.860594 0.439767 -0.236891
C49   C     C_R   0.495775 0.031978 0.553112 0.097999
C50   C     C_R   0.507008 0.968338 0.447613 0.106632
H9    H     H_    0.516847 0.811892 0.357912 0.177312
H10   H     H_    0.483454 0.187719 0.641081 0.164894
H11   H     H_    0.523619 0.962434 0.269647 0.138017
H12   H     H_    0.476948 0.036690 0.729985 0.146062
N3    N     N_R   0.508960 0.519350 0.790140 -0.215953
N4    N     N_R   0.491040 0.480650 0.209860 -0.225375
C51   C     C_R   0.454858 0.401909 0.019978 -0.389784
C52   C     C_R   0.545044 0.598445 0.979992 -0.400484
C53   C     C_R   0.459973 0.408046 0.143123 0.710638
C54   C     C_R   0.542181 0.587098 0.856409 0.702186
C55   C     C_R   0.519004 0.543504 0.157767 -0.032892
C56   C     C_R   0.480083 0.458543 0.842521 -0.014514
C57   C     C_R   0.516116 0.536175 0.034843 0.013894
C58   C     C_R   0.483446 0.464943 0.965342 0.014390
H13   H     H_    0.454562 0.404418 0.788551 0.144632
H14   H     H_    0.543864 0.599060 0.211936 0.161404
H15   H     H_    0.428803 0.348483 0.966969 0.151275
H16   H     H_    0.569586 0.655518 0.032863 0.149707
N5    N     N_R   0.349143 0.323570 0.380022 0.156666
O13   O     O_R   0.329807 0.275436 0.280063 -0.278833
O14   O     O_R   0.385682 0.281756 0.428575 -0.411523
N6    N     N_R   0.644523 0.696473 0.529844 0.122021
O15   O     O_R   0.661265 0.776660 0.605635 -0.304763
O16   O     O_R   0.607951 0.709074 0.458830 -0.415191
O17   O     O_3   0.478418 0.834239 0.737867 -0.519752
C59   C     C_3   0.511663 0.868661 0.833945 -0.206479
H17   H     H_    0.504054 0.949838 0.876967 0.128315
H18   H     H_    0.549676 0.862639 0.808673 0.180295
H19   H     H_    0.507580 0.817736 0.899409 0.193062
O18   O     O_3   0.524642 0.169705 0.264376 -0.586844
C60   C     C_3   0.563505 0.123905 0.202472 -0.256161
H20   H     H_    0.550698 0.055050 0.136405 0.136517
H21   H     H_    0.593437 0.102209 0.261142 0.212995
H22   H     H_    0.578316 0.181920 0.154649 0.202487
O19   O     O_3   0.570399 0.648456 0.800856 -0.570966
C61   C     C_3   0.619640 0.640905 0.835922 -0.263897
H23   H     H_    0.641540 0.665810 0.769568 0.234241
H24   H     H_    0.630062 0.559225 0.841750 0.164865
H25   H     H_    0.628943 0.694743 0.919827 0.156700
O20   O     O_3   0.432006 0.346822 0.199882 -0.527035
C62   C     C_3   0.427350 0.242452 0.139104 -0.144432
H26   H     H_    0.419785 0.191284 0.202373 0.233250
H27   H     H_    0.460849 0.213433 0.097333 0.134265
H28   H     H_    0.396266 0.234515 0.073292 0.162697
O21   O     O_3   0.248313 0.331092 0.390685 -0.515450
C63   C     C_3   0.242389 0.262035 0.469056 -0.190694
H29   H     H_    0.222801 0.299559 0.545526 0.157267
H30   H     H_    0.277655 0.232284 0.498701 0.176731
H31   H     H_    0.220395 0.193664 0.423221 0.202957
O22   O     O_3   0.746285 0.694482 0.529653 -0.527348
C64   C     C_3   0.748541 0.727907 0.421779 -0.177102
H32   H     H_    0.711997 0.740999 0.382852 0.181205
H33   H     H_    0.768352 0.671475 0.359214 0.163817
H34   H     H_    0.768599 0.803620 0.436833 0.199370
N7    N     N_R   0.646331 0.307381 0.465875 0.132737
O23   O     O_R   0.664145 0.225875 0.401645 -0.351907
O24   O     O_R   0.611037 0.293766 0.529760 -0.385111
N8    N     N_R   0.359097 0.679410 0.625468 0.154948
O25   O     O_R   0.345060 0.732560 0.722755 -0.297620
O26   O     O_R   0.392881 0.718632 0.573581 -0.368768
N9    N     N_R   0.868435 0.414612 0.176698 0.167278
O27   O     O_R   0.877418 0.454508 0.085733 -0.333376
O28   O     O_R   0.844983 0.325812 0.161723 -0.278358
N10   N     N_R   0.132684 0.540592 0.832916 0.167897
O29   O     O_R   0.122230 0.481838 0.907242 -0.328814
O30   O     O_R   0.158699 0.625062 0.869446 -0.275053

loop_
_geom_bond_atom_site_label_1
_geom_bond_atom_site_label_2
_geom_bond_distance
_ccdc_geom_bond_type
C57   C58   1.401785 A    
Cu1   N3    2.007905 S    
N5    O13   1.301192 A    
C13   C15   1.409457 A    
C49   C50   1.407079 A    
C43   H11   1.082720 S    
N1    C17   1.438558 S    
O20   C62   1.413343 S    
C32   C39   1.412905 A    
C31   C33   1.421563 A    
C38   N10   1.434639 S    
C46   O17   1.386802 S    
C5    N1    1.365668 A    
C15   O21   1.382791 S    
C19   C25   1.415349 A    
O1    C1    1.294627 A    
N1    C7    1.368596 A    
C10   C12   1.397656 A    
C48   H9    1.084908 S    
N3    C54   1.371144 A    
C56   C58   1.418301 A    
C29   C32   1.420234 A    
C42   C45   1.415516 A    
C29   C35   1.410647 A    
C62   H26   1.109182 S    
C30   C36   1.411649 A    
C52   H16   1.082418 S    
N9    O28   1.301361 A    
C14   C28   1.416513 A    
O4    Cu1   1.966170 S    
C61   H23   1.107186 S    
C4    C28   1.464498 S    
C24   C40   1.387221 A    
C2    C41   1.462213 S    
C42   C47   1.399293 A    
C63   H30   1.113279 S    
N8    O25   1.301343 A    
C62   H27   1.114431 S    
C37   N9    1.434545 S    
C64   H34   1.109138 S    
Cu2   N4    2.007908 S    
C63   H31   1.109141 S    
C6    N2    1.364129 A    
C32   C34   1.420440 A    
N5    O14   1.300932 A    
Cu1   Cu2   2.672376 S    
C40   H8    1.076646 S    
C53   O20   1.389240 S    
O2    C2    1.295088 A    
N4    C53   1.371988 A    
C5    C21   1.400316 A    
O18   C60   1.411920 S    
C51   C53   1.423368 A    
C36   C38   1.395446 A    
C39   H7    1.078093 S    
C55   C57   1.418074 A    
C44   H12   1.083449 S    
C9    H4    1.083383 S    
C60   H22   1.109239 S    
N9    O27   1.301208 A    
C48   C50   1.388137 A    
C11   C27   1.415270 A    
C47   C49   1.386511 A    
C19   C34   1.422918 A    
C56   H13   1.082673 S    
C59   H19   1.109250 S    
N6    O16   1.300399 A    
C43   C45   1.407106 A    
C9    C17   1.395917 A    
C23   H1    1.083601 S    
O5    C3    1.292126 A    
O7    Cu2   1.947873 S    
C10   C18   1.394821 A    
C24   H2    1.083613 S    
N4    C55   1.370422 A    
C60   H21   1.113923 S    
C13   C27   1.416378 A    
O17   C59   1.411830 S    
C7    C25   1.415590 A    
C29   C33   1.415017 A    
O6    C4    1.291317 A    
C62   H28   1.110416 S    
C8    C26   1.415031 A    
N6    O15   1.301251 A    
C59   H18   1.114585 S    
C43   C50   1.397227 A    
C51   H15   1.082352 S    
O7    C3    1.293434 A    
C61   H25   1.110238 S    
C12   N7    1.439167 S    
O8    C4    1.291857 A    
N8    O26   1.300122 A    
O4    C2    1.289326 A    
C16   O22   1.382971 S    
C52   C54   1.420545 A    
C64   H32   1.112782 S    
C20   C26   1.416291 A    
C13   N5    1.438248 S    
O1    Cu1   1.959435 S    
C63   H29   1.112600 S    
C12   C28   1.414860 A    
N7    O23   1.301393 A    
N2    C18   1.434741 S    
C45   O18   1.392833 S    
C5    O9    1.350103 S    
C30   C31   1.423638 A    
C20   C33   1.422793 A    
O6    Cu2   1.951601 S    
C21   C23   1.396863 A    
N2    C8    1.367185 A    
C1    C42   1.462511 S    
O3    C1    1.289724 A    
O8    Cu1   1.947873 S    
C7    O12   1.348270 S    
O21   C63   1.409988 S    
C8    O11   1.348278 S    
N10   O30   1.301376 A    
O3    Cu2   1.966170 S    
C41   C48   1.399794 A    
C60   H20   1.110631 S    
C30   C34   1.416340 A    
C54   O19   1.385853 S    
C14   N6    1.439110 S    
C55   H14   1.082724 S    
C22   C24   1.396359 A    
C44   C49   1.396942 A    
C15   C17   1.405936 A    
C36   H6    1.076508 S    
O19   C61   1.412528 S    
C6    C22   1.400676 A    
C31   C40   1.414119 A    
C16   C18   1.403844 A    
C35   H5    1.078176 S    
C47   H10   1.084982 S    
C10   H3    1.083280 S    
C14   C16   1.410081 A    
C59   H17   1.110652 S    
C19   C21   1.410413 A    
C3    C27   1.469311 S    
C20   C22   1.410170 A    
C9    C11   1.397070 A    
O2    Cu2   1.959434 S    
C61   H24   1.114932 S    
C51   C58   1.399918 A    
N10   O29   1.301175 A    
C25   C38   1.414519 A    
O5    Cu1   1.951607 S    
C6    O10   1.350028 S    
C26   C37   1.414490 A    
C64   H33   1.111454 S    
C44   C46   1.400721 A    
C35   C37   1.394952 A    
C41   C46   1.414857 A    
C11   N8    1.437169 S    
N3    C56   1.369990 A    
C23   C39   1.386676 A    
C52   C57   1.400508 A    
O22   C64   1.410220 S    
N7    O24   1.300296 A    
