data_mof_unit_60560.cif
_audit_creation_date              2012-12-10T21:03:43-0500
_audit_creation_method            fapswitch 2.2
_symmetry_space_group_name_H-M    P1
_symmetry_Int_Tables_number       1
_space_group_crystal_system       triclinic
_cell_length_a                    15.844709
_cell_length_b                    15.075979
_cell_length_c                    23.400913
_cell_angle_alpha                 90.204318
_cell_angle_beta                  89.908799
_cell_angle_gamma                 89.962951
_cell_volume                      5589.83758323

loop_
_atom_site_label
_atom_site_type_symbol
_atom_type_description
_atom_site_fract_x
_atom_site_fract_y
_atom_site_fract_z
_atom_type_partial_charge
C1    C     C_R   0.338877 0.500023 0.499994 0.919026
C2    C     C_R   0.561527 0.555947 0.702882 0.103222
C3    C     C_R   0.439993 0.444649 0.237144 0.170125
C4    C     C_R   0.559998 0.555350 0.762858 0.170125
C5    C     C_R   0.496522 0.501113 0.208572 0.166238
C6    C     C_R   0.503463 0.498890 0.791428 0.166238
C7    C     C_R   0.956162 0.571296 0.524616 -0.156916
C8    C     C_R   0.043838 0.428702 0.475387 -0.156917
C9    C     C_R   0.043674 0.571389 0.524459 -0.172041
C10   C     C_R   0.956326 0.428609 0.475543 -0.172044
C11   C     C_R   0.913137 0.499907 0.500154 0.161903
C12   C     C_R   0.661123 0.499977 0.500006 0.919029
C13   C     C_R   0.086863 0.500091 0.499848 0.161903
C14   C     C_1   0.824352 0.499909 0.500183 -0.050352
C15   C     C_1   0.175648 0.500090 0.499818 -0.050349
C16   C     C_1   0.250490 0.500068 0.499875 -0.145025
C17   C     C_1   0.749510 0.499931 0.500125 -0.145030
C18   C     C_R   0.497693 0.499792 0.389218 0.929163
C19   C     C_R   0.502307 0.500208 0.610782 0.929165
C20   C     C_R   0.425075 0.952620 0.488169 0.128187
C21   C     C_R   0.574921 0.047383 0.511844 0.128196
C22   C     C_R   0.574230 0.952712 0.513737 0.119026
C23   C     C_R   0.550804 0.557164 0.239000 0.209813
C24   C     C_R   0.425765 0.047292 0.486277 0.119010
C25   C     C_R   0.499538 0.905143 0.501293 -0.052665
C26   C     C_R   0.500460 0.094859 0.498711 -0.052673
C27   C     C_1   0.499869 0.807051 0.500440 0.184309
C28   C     C_1   0.500130 0.192949 0.499562 0.184333
C29   C     C_R   0.553299 0.441034 0.880736 0.571709
C30   C     C_R   0.446683 0.558966 0.119264 0.571710
C31   C     C_R   0.448596 0.555537 0.880051 0.569889
C32   C     C_R   0.551386 0.444464 0.119949 0.569888
C33   C     C_R   0.446845 0.557494 0.939692 -0.023865
C34   C     C_R   0.449179 0.442842 0.760999 0.209814
C35   C     C_R   0.553136 0.442506 0.060308 -0.023865
C36   C     C_R   0.500152 0.499490 0.969984 -0.012006
C37   C     C_R   0.499828 0.500510 0.030015 -0.012006
C38   C     C_R   0.553818 0.440505 0.940393 -0.024889
C39   C     C_R   0.446162 0.559494 0.059607 -0.024889
C40   C     C_R   0.393633 0.615986 0.969560 -0.131271
C41   C     C_R   0.606347 0.384013 0.030440 -0.131270
C42   C     C_R   0.393310 0.616994 0.029043 -0.130948
C43   C     C_R   0.606670 0.383005 0.970956 -0.130948
C44   C     C_3   0.343649 0.123984 0.414904 -0.705567
C45   C     C_R   0.549591 0.556236 0.298138 -0.272230
C46   C     C_3   0.656277 0.876006 0.585140 -0.705538
C47   C     C_3   0.697391 0.124573 0.475655 -0.751987
C48   C     C_3   0.302636 0.875440 0.524408 -0.751991
C49   C     C_R   0.450398 0.443769 0.701860 -0.272234
C50   C     C_R   0.494844 0.499472 0.327268 -0.157575
C51   C     C_R   0.505151 0.500528 0.672732 -0.157572
C52   C     C_R   0.438469 0.444051 0.297119 0.103222
H1    H     H_    0.352198 0.661133 0.947117 0.198976
H2    H     H_    0.077832 0.373577 0.456370 0.155607
H3    H     H_    0.295774 0.067782 0.489133 0.235764
H4    H     H_    0.339180 0.065638 0.385939 0.232993
H5    H     H_    0.399056 0.164725 0.402504 0.261172
H6    H     H_    0.285987 0.165080 0.409832 0.255907
H7    H     H_    0.704225 0.932228 0.510937 0.235763
H8    H     H_    0.660793 0.934347 0.614106 0.232980
H9    H     H_    0.713893 0.834841 0.590222 0.255961
H10   H     H_    0.600821 0.835330 0.597528 0.261126
H11   H     H_    0.687204 0.067909 0.556186 0.239750
H12   H     H_    0.647783 0.338866 0.052883 0.198976
H13   H     H_    0.721700 0.066397 0.451427 0.233957
H14   H     H_    0.751703 0.165566 0.489848 0.244512
H15   H     H_    0.657440 0.165581 0.447094 0.251966
H16   H     H_    0.312753 0.932106 0.443874 0.239757
H17   H     H_    0.278416 0.933621 0.548673 0.233970
H18   H     H_    0.342593 0.834369 0.552929 0.251969
H19   H     H_    0.248266 0.834514 0.510238 0.244496
H20   H     H_    0.351561 0.662817 0.050940 0.199182
H21   H     H_    0.648419 0.337181 0.949060 0.199181
H22   H     H_    0.592404 0.599039 0.321501 0.186173
H23   H     H_    0.407583 0.400969 0.678496 0.186171
H24   H     H_    0.077543 0.626573 0.543378 0.149046
H25   H     H_    0.922457 0.373426 0.456624 0.149046
H26   H     H_    0.922168 0.626421 0.543632 0.155608
I1    I     I_    0.636147 0.643532 0.197103 -0.260533
I2    I     I_    0.363828 0.356481 0.802893 -0.260541
I3    I     I_    0.346935 0.365633 0.341574 -0.305149
I4    I     I_    0.653068 0.634358 0.658429 -0.305171
I5    I     I_    0.358044 0.361839 0.187962 -0.214928
I6    I     I_    0.641947 0.638155 0.812042 -0.214935
N1    N     N_R   0.501488 0.498203 0.852204 -0.341750
N2    N     N_R   0.498495 0.501798 0.147796 -0.341750
N3    N     N_1   0.500000 0.270550 0.500000 -0.087393
N4    N     N_1   0.500000 0.729450 0.500000 -0.087391
N5    N     N_2   0.350651 0.095486 0.473679 -0.314094
N6    N     N_2   0.649334 0.904518 0.526363 -0.314091
N7    N     N_2   0.649804 0.095668 0.525011 -0.304079
N8    N     N_2   0.350179 0.904339 0.475031 -0.304075
O1    O     O_R   0.378020 0.573650 0.500020 -0.612466
O2    O     O_2   0.395819 0.614615 0.148727 -0.525566
O3    O     O_2   0.398334 0.610465 0.849927 -0.529097
O4    O     O_2   0.601649 0.389537 0.150073 -0.529096
O5    O     O_R   0.621980 0.426350 0.499980 -0.612467
O6    O     O_R   0.621980 0.573650 0.499980 -0.599409
O7    O     O_R   0.378020 0.426350 0.500020 -0.599411
O8    O     O_R   0.499980 0.573680 0.416160 -0.613000
O9    O     O_R   0.500020 0.426320 0.583840 -0.613000
O10   O     O_R   0.500020 0.573680 0.583840 -0.595520
O11   O     O_R   0.499980 0.426320 0.416160 -0.595517
O12   O     O_2   0.604163 0.385385 0.851273 -0.525567
Zn1   Zn    Zn3+2 0.500000 0.598370 0.500000 1.012702
Zn2   Zn    Zn3+2 0.500000 0.401630 0.500000 1.012703

loop_
_geom_bond_atom_site_label_1
_geom_bond_atom_site_label_2
_ccdc_geom_bond_type
C43   H21   S    
C21   C26   A    
C8    C13   A    
C23   C45   A    
C48   H17   S    
C24   N5    S    
C1    O7    A    
C7    C11   A    
C20   N8    S    
O8    Zn1   S    
C6    N1    S    
C46   H10   S    
C31   N1    A    
C36   C37   A    
C35   C37   A    
C24   C26   A    
C19   O10   A    
C20   C25   A    
C15   C16   T    
C33   C36   A    
O10   Zn1   S    
C9    C13   A    
C34   I2    S    
C20   C24   A    
C44   H6    S    
C49   C51   A    
C22   C25   A    
C5    C23   A    
C12   C17   S    
C50   C52   A    
C31   C33   A    
C9    H24   S    
C30   N2    A    
C47   H14   S    
C29   N1    A    
O1    Zn1   S    
C40   C42   A    
C21   C22   A    
C41   C43   A    
C14   C17   T    
C52   I3    S    
C18   O8    A    
C47   H15   S    
C10   H25   S    
H16   N8    S    
C39   C42   A    
C33   C40   A    
C46   H9    S    
C32   C35   A    
C4    C6    A    
C2    C51   A    
C8    H2    S    
C30   O2    S    
C1    O1    A    
C6    C34   A    
C29   O12   S    
C45   H22   S    
H7    N6    S    
C29   C38   A    
C2    C4    A    
C44   H4    S    
C4    I6    S    
C44   H5    S    
C32   N2    A    
C28   N3    T    
C49   H23   S    
C22   N6    S    
C1    C16   S    
O6    Zn1   S    
C12   O5    A    
C7    H26   S    
O5    Zn2   S    
C8    C10   A    
C32   O4    S    
C13   C15   S    
C3    I5    S    
C2    I4    S    
C5    N2    S    
C48   H19   S    
C18   C50   S    
C21   N7    S    
O9    Zn2   S    
C7    C9    A    
O7    Zn2   S    
C34   C49   A    
C46   H8    S    
C47   N7    S    
C48   H18   S    
C3    C5    A    
C3    C52   A    
C46   N6    S    
C25   C27   S    
C26   C28   S    
C36   C38   A    
C38   C43   A    
H3    N5    S    
N4    Zn1   S    
C19   O9    A    
N3    Zn2   S    
C45   C50   A    
C31   O3    S    
C11   C14   S    
C30   C39   A    
O11   Zn2   S    
C18   O11   A    
C27   N4    T    
C35   C41   A    
C10   C11   A    
C19   C51   S    
C37   C39   A    
C40   H1    S    
C48   N8    S    
H11   N7    S    
C12   O6    A    
C41   H12   S    
C23   I1    S    
C42   H20   S    
C47   H13   S    
C44   N5    S    
