data_mof_unit_41395.cif
_audit_creation_date              2012-12-10T17:34:39-0500
_audit_creation_method            fapswitch 2.2
_symmetry_space_group_name_H-M    P1
_symmetry_Int_Tables_number       1
_space_group_crystal_system       triclinic
_cell_length_a                    15.470891
_cell_length_b                    15.537227
_cell_length_c                    19.409435
_cell_angle_alpha                 77.815477
_cell_angle_beta                  98.426353
_cell_angle_gamma                 111.64828
_cell_volume                      4226.64374033

loop_
_atom_site_label
_atom_site_type_symbol
_atom_type_description
_atom_site_fract_x
_atom_site_fract_y
_atom_site_fract_z
_atom_type_partial_charge
C1    C     C_R   0.747036 0.542348 0.528729 0.513915
C2    C     C_2   0.516824 0.535275 0.012509 0.260876
C3    C     C_2   0.468188 0.458387 0.983529 -0.086383
C4    C     C_R   0.252134 0.457326 0.473143 0.492378
C5    C     C_R   0.481394 0.477295 0.763766 -0.002572
C6    C     C_R   0.974333 0.565196 0.631819 -0.112175
C7    C     C_R   0.846011 0.558489 0.543420 0.024693
C8    C     C_R   0.107111 0.415069 0.394549 -0.122317
C9    C     C_R   0.016978 0.415136 0.373054 0.247430
C10   C     C_R   0.974200 0.451596 0.412275 -0.100705
C11   C     C_R   0.016262 0.479480 0.477692 -0.000359
C12   C     C_R   0.516731 0.530512 0.089483 0.016228
C13   C     C_R   0.102970 0.467830 0.503188 0.022668
C14   C     C_R   0.974070 0.515985 0.519708 0.028478
C15   C     C_R   0.015821 0.533008 0.588100 0.012296
C16   C     C_R   0.453539 0.249393 0.528337 0.498597
C17   C     C_R   0.095902 0.512675 0.614286 -0.142487
C18   C     C_R   0.137921 0.479067 0.573213 -0.106194
C19   C     C_R   0.889993 0.532877 0.497470 -0.177759
C20   C     C_R   0.889362 0.577631 0.610274 0.265905
C21   C     C_R   0.151819 0.443410 0.458437 -0.026731
C22   C     C_R   0.314764 0.994765 0.545076 -0.132485
C23   C     C_R   0.600016 0.571850 0.129929 0.279849
C24   C     C_R   0.432055 0.149009 0.537788 0.039018
C25   C     C_R   0.652980 0.916446 0.438283 0.262071
C26   C     C_R   0.679761 0.011998 0.440658 -0.129257
C27   C     C_R   0.622832 0.046376 0.467270 -0.157471
C28   C     C_R   0.543486 0.751167 0.470568 0.500201
C29   C     C_R   0.532728 0.987417 0.487345 0.006915
C30   C     C_R   0.501560 0.891639 0.479213 -0.064930
C31   C     C_R   0.471027 0.021496 0.512133 -0.000904
C32   C     C_R   0.378550 0.959954 0.526510 0.044539
C33   C     C_R   0.349443 0.865687 0.518294 0.258707
C34   C     C_R   0.597500 0.568356 0.202168 -0.111728
C35   C     C_R   0.407424 0.835716 0.488865 -0.095091
C36   C     C_R   0.497103 0.115719 0.521161 -0.119441
C37   C     C_R   0.341115 0.088916 0.549628 -0.143956
C38   C     C_R   0.564673 0.854384 0.460277 0.030317
C39   C     C_R   0.487735 0.486790 0.688241 0.500365
C40   C     C_R   0.511975 0.512543 0.311241 0.508286
C41   C     C_R   0.514201 0.519272 0.235202 -0.007365
C42   C     C_R   0.432142 0.477134 0.195071 -0.141529
C43   C     C_R   0.433064 0.484027 0.122704 -0.201834
C44   C     C_3   0.229457 0.375984 0.865692 0.004068
C45   C     C_R   0.553984 0.469397 0.882587 -0.126202
C46   C     C_3   0.161265 0.420638 0.822201 -0.266694
C47   C     C_3   0.074967 0.347255 0.793175 -0.485086
C48   C     C_3   0.840630 0.686185 0.641544 0.009031
C49   C     C_3   0.932581 0.758050 0.666238 -0.279069
C50   C     C_3   0.925634 0.855400 0.656710 -0.487351
C51   C     C_3   0.944205 0.288890 0.317789 0.002534
C52   C     C_3   0.883265 0.257023 0.251995 -0.263094
C53   C     C_3   0.851908 0.150689 0.256776 -0.476508
C54   C     C_3   0.260431 0.773559 0.609539 -0.004861
C55   C     C_3   0.315494 0.707365 0.638836 -0.255245
C56   C     C_R   0.559181 0.477093 0.810633 -0.143835
C57   C     C_3   0.311679 0.678578 0.718808 -0.488334
C58   C     C_3   0.790200 0.887876 0.449327 0.015836
C59   C     C_3   0.849361 0.855700 0.410860 -0.243888
C60   C     C_3   0.942063 0.859617 0.452430 -0.487139
C61   C     C_3   0.724505 0.554342 0.091094 0.031851
C62   C     C_3   0.792048 0.541303 0.155157 -0.281215
C63   C     C_3   0.844322 0.479532 0.144279 -0.481808
C64   C     C_3   0.545283 0.692135 0.968634 0.036081
C65   C     C_3   0.460160 0.687224 0.915726 -0.275881
C66   C     C_3   0.434610 0.774959 0.907450 -0.492177
C67   C     C_R   0.397111 0.465730 0.789461 -0.134319
C68   C     C_R   0.389886 0.453424 0.862569 0.262377
C69   C     C_R   0.470274 0.459292 0.908376 0.075275
H1    H     H_    0.366738 0.440378 0.219444 0.145266
H2    H     H_    0.423767 0.394722 0.014425 0.082636
H3    H     H_    0.615481 0.472470 0.918272 0.128107
H4    H     H_    0.367985 0.453492 0.092580 0.122814
H5    H     H_    0.195122 0.328289 0.912836 0.147906
H6    H     H_    0.244827 0.330711 0.835028 0.113547
H7    H     H_    0.139534 0.457677 0.855821 0.172062
H8    H     H_    0.196437 0.473085 0.777458 0.151762
H9    H     H_    0.094987 0.312130 0.757084 0.145575
H10   H     H_    0.026445 0.381973 0.763049 0.155420
H11   H     H_    0.038389 0.293742 0.837111 0.149146
H12   H     H_    0.142993 0.395327 0.359995 0.139682
H13   H     H_    0.783479 0.687585 0.669421 0.152892
H14   H     H_    0.822949 0.706203 0.584178 0.109968
H15   H     H_    0.950279 0.734956 0.723020 0.174313
H16   H     H_    0.989675 0.762471 0.635431 0.147704
H17   H     H_    0.908219 0.880365 0.600335 0.136933
H18   H     H_    0.993536 0.905856 0.674141 0.146100
H19   H     H_    0.871143 0.853545 0.689008 0.149754
H20   H     H_    0.125723 0.521773 0.667384 0.092769
H21   H     H_    0.005598 0.576329 0.684476 0.111607
H22   H     H_    0.853276 0.520177 0.446893 0.101810
H23   H     H_    0.906647 0.453893 0.390965 0.118816
H24   H     H_    0.902490 0.253912 0.364737 0.124737
H25   H     H_    0.005972 0.266664 0.323602 0.131907
H26   H     H_    0.820705 0.277768 0.246079 0.165926
H27   H     H_    0.923167 0.292199 0.204465 0.172177
H28   H     H_    0.913331 0.128395 0.261781 0.147315
H29   H     H_    0.808117 0.129989 0.208162 0.153613
H30   H     H_    0.810078 0.114002 0.303055 0.158945
H31   H     H_    0.624548 0.485401 0.791328 0.146186
H32   H     H_    0.186426 0.735469 0.621488 0.151633
H33   H     H_    0.286187 0.834601 0.637916 0.117983
H34   H     H_    0.196710 0.459524 0.598199 0.131930
H35   H     H_    0.286506 0.643907 0.613413 0.194460
H36   H     H_    0.389865 0.742975 0.627381 0.174806
H37   H     H_    0.344214 0.741502 0.744727 0.146320
H38   H     H_    0.350897 0.630224 0.738810 0.166604
H39   H     H_    0.238401 0.642847 0.732987 0.132531
H40   H     H_    0.242976 0.950364 0.552991 0.140682
H41   H     H_    0.772883 0.839438 0.500593 0.125448
H42   H     H_    0.831749 0.960220 0.459538 0.108644
H43   H     H_    0.809972 0.782504 0.401900 0.198907
H44   H     H_    0.863715 0.901853 0.358530 0.169347
H45   H     H_    0.289791 0.115655 0.560345 0.106186
H46   H     H_    0.981647 0.931533 0.463938 0.143660
H47   H     H_    0.984551 0.840569 0.420876 0.163556
H48   H     H_    0.930122 0.808911 0.502671 0.147652
H49   H     H_    0.375854 0.767418 0.473458 0.175226
H50   H     H_    0.764473 0.584152 0.043257 0.168233
H51   H     H_    0.672490 0.484702 0.081844 0.113089
H52   H     H_    0.843296 0.611040 0.163874 0.180343
H53   H     H_    0.752775 0.507872 0.203103 0.153408
H54   H     H_    0.794474 0.408672 0.137010 0.138821
H55   H     H_    0.892821 0.471855 0.191362 0.202439
H56   H     H_    0.565673 0.166618 0.511983 0.100333
H57   H     H_    0.885535 0.511962 0.097228 0.146708
H58   H     H_    0.661228 0.601892 0.232658 0.137649
H59   H     H_    0.604043 0.756945 0.950416 0.160490
H60   H     H_    0.531198 0.699106 0.021489 0.138675
H61   H     H_    0.475470 0.680100 0.863423 0.181380
H62   H     H_    0.399403 0.624817 0.934401 0.195131
H63   H     H_    0.419468 0.783558 0.959289 0.151726
H64   H     H_    0.371473 0.768268 0.870437 0.148328
H65   H     H_    0.492665 0.838272 0.885904 0.148816
H66   H     H_    0.650548 0.120577 0.468458 0.107743
H67   H     H_    0.745834 0.060534 0.421808 0.101925
H68   H     H_    0.337358 0.465564 0.752649 0.108438
O1    O     O_3   0.500000 0.500000 0.500000 -0.438000
O2    O     O_R   0.533750 0.444440 0.667550 -0.535319
O3    O     O_R   0.573150 0.573190 0.344350 -0.542541
O4    O     O_R   0.446010 0.535260 0.643730 -0.557068
O5    O     O_R   0.447090 0.447110 0.344370 -0.542714
O6    O     O_3   0.309207 0.447109 0.889920 -0.591719
O7    O     O_3   0.843390 0.594071 0.659507 -0.564210
O8    O     O_3   0.972785 0.387709 0.309934 -0.582646
O9    O     O_3   0.262068 0.801681 0.535084 -0.574092
O10   O     O_3   0.707808 0.885625 0.406118 -0.544302
O11   O     O_3   0.683657 0.619301 0.099042 -0.547301
O12   O     O_R   0.412670 0.287020 0.475980 -0.539767
O13   O     O_3   0.573893 0.614807 0.971170 -0.542574
O14   O     O_R   0.592640 0.718300 0.442410 -0.491974
O15   O     O_R   0.691640 0.476740 0.569450 -0.506498
O16   O     O_R   0.303050 0.517940 0.512160 -0.549446
O17   O     O_R   0.716100 0.590510 0.475920 -0.570367
O18   O     O_R   0.289200 0.414810 0.442470 -0.551342
O19   O     O_R   0.514260 0.299330 0.569480 -0.542543
O20   O     O_R   0.480430 0.695350 0.512130 -0.572946
Zn1   Zn    Zn3+2 0.413740 0.413730 0.441720 0.928182
Zn2   Zn    Zn3+2 0.558890 0.431320 0.575310 0.949088
Zn3   Zn    Zn3+2 0.433530 0.561080 0.541290 0.901007
Zn4   Zn    Zn3+2 0.593840 0.593870 0.441680 0.938039

loop_
_geom_bond_atom_site_label_1
_geom_bond_atom_site_label_2
_ccdc_geom_bond_type
C2    O13   S    
C43   H4    S    
C40   O5    A    
C68   O6    S    
C61   H50   S    
C41   C42   A    
C20   O7    S    
C54   H32   S    
C36   H56   S    
C47   H10   S    
C5    C67   A    
C2    C12   S    
C46   H7    S    
C63   H55   S    
C53   H30   S    
C12   C23   A    
C30   C38   A    
C26   C27   A    
C29   C30   A    
C22   C32   A    
C13   C18   A    
C55   H36   S    
C49   H15   S    
C3    C69   S    
C61   O11   S    
C12   C43   A    
C11   C14   A    
C19   H22   S    
C27   C29   A    
C51   O8    S    
C42   H1    S    
C48   O7    S    
C52   H26   S    
C46   C47   S    
C8    H12   S    
C5    C56   A    
C59   H43   S    
C6    C15   A    
C66   H65   S    
O1    Zn2   S    
C39   O4    A    
C45   C56   A    
C34   H58   S    
C64   H59   S    
C16   O19   A    
C16   O12   A    
O12   Zn1   S    
C50   H19   S    
C54   O9    S    
C23   C34   A    
C57   H37   S    
O15   Zn2   S    
C10   H23   S    
C59   C60   S    
C16   C24   S    
C1    C7    S    
C45   H3    S    
C61   C62   S    
C34   C41   A    
C47   H11   S    
O5    Zn1   S    
C65   H62   S    
C44   C46   S    
C24   C37   A    
C66   H63   S    
C39   O2    A    
C45   C69   A    
C58   H42   S    
C49   H16   S    
C17   H20   S    
C33   O9    S    
C58   O10   S    
C68   C69   A    
C37   H45   S    
C53   H28   S    
O3    Zn4   S    
C6    H21   S    
C22   C37   A    
C55   H35   S    
C7    C20   A    
C51   C52   S    
C64   O13   S    
C44   H6    S    
C3    H2    S    
C67   C68   A    
C62   C63   S    
C25   C38   A    
C66   H64   S    
O1    Zn1   S    
O4    Zn3   S    
C31   C32   A    
C14   C15   A    
C28   C38   S    
C59   H44   S    
C22   H40   S    
C1    O15   A    
C57   H39   S    
C17   C18   A    
C8    C9    A    
C13   C21   A    
C60   H48   S    
C25   O10   S    
C24   C36   A    
C44   H5    S    
C50   H18   S    
C51   H24   S    
C30   C35   A    
C48   C49   S    
C57   H38   S    
C65   C66   S    
O20   Zn3   S    
C7    C19   A    
C55   C57   S    
C61   H51   S    
C60   H47   S    
C42   C43   A    
C56   H31   S    
C62   H53   S    
C52   C53   S    
C9    C10   A    
C15   C17   A    
C54   C55   S    
C40   C41   S    
C58   H41   S    
C14   C19   A    
C54   H33   S    
O19   Zn2   S    
C4    O16   A    
C60   H46   S    
C8    C21   A    
C46   H8    S    
C63   H54   S    
C53   H29   S    
C6    C20   A    
C23   O11   S    
C48   H14   S    
C65   H61   S    
C27   H66   S    
C64   C65   S    
O16   Zn3   S    
C5    C39   S    
C2    C3    D    
C25   C26   A    
C29   C31   A    
C32   C33   A    
C4    C21   S    
C11   C13   A    
O14   Zn4   S    
C44   O6    S    
C40   O3    A    
C9    O8    S    
C28   O20   A    
C33   C35   A    
C48   H13   S    
C52   H27   S    
O1    Zn4   S    
C18   H34   S    
C1    O17   A    
C67   H68   S    
C58   C59   S    
C63   H57   S    
C26   H67   S    
C10   C11   A    
C50   H17   S    
C51   H25   S    
O2    Zn2   S    
O1    Zn3   S    
C4    O18   A    
C64   H60   S    
C28   O14   A    
C49   C50   S    
O17   Zn4   S    
C31   C36   A    
C35   H49   S    
C47   H9    S    
C62   H52   S    
O18   Zn1   S    
