data_mof_unit_6163.cif
_audit_creation_date              2013-03-05T16:48:14-0500
_audit_creation_method            fapswitch 2.2
_symmetry_space_group_name_H-M    P1
_symmetry_Int_Tables_number       1
_space_group_crystal_system       triclinic
_cell_length_a                    23.538641
_cell_length_b                    8.924137
_cell_length_c                    8.087574
_cell_angle_alpha                 89.822846
_cell_angle_beta                  89.998159
_cell_angle_gamma                 90.002626
_cell_volume                      1698.88430786

loop_
_atom_site_label
_atom_site_type_symbol
_atom_site_description
_atom_site_fract_x
_atom_site_fract_y
_atom_site_fract_z
_atom_type_partial_charge
O1    O     O_R   0.500000 0.285350 0.636850 -0.612529
O2    O     O_R   0.500000 0.714650 0.363150 -0.610951
O3    O     O_R   0.500000 0.714650 0.636850 -0.613081
O4    O     O_R   0.500000 0.285350 0.363150 -0.611875
H1    H     H_    0.948050 0.124999 0.563402 0.190891
H2    H     H_    0.051347 0.875883 0.450010 0.190821
H3    H     H_    0.948162 0.875146 0.439599 0.190655
H4    H     H_    0.051236 0.124072 0.552884 0.190752
C1    C     C_R   0.499873 0.217940 0.500166 0.989702
C2    C     C_R   0.499829 0.782059 0.499832 0.989693
O5    O     O_R   0.416160 0.500000 0.636910 -0.583981
O6    O     O_R   0.583840 0.500000 0.363090 -0.567353
O7    O     O_R   0.583840 0.500000 0.636910 -0.583453
O8    O     O_R   0.416160 0.500000 0.363090 -0.566594
C3    C     C_R   0.207977 0.499799 0.500672 0.128115
C4    C     C_R   0.791698 0.500115 0.500845 0.130957
C5    C     C_R   0.389072 0.499913 0.499995 1.002938
C6    C     C_R   0.610902 0.500095 0.499991 1.007632
Zn1   Zn    Zn3+2 0.500000 0.500000 0.682780 1.117680
Zn2   Zn    Zn3+2 0.500000 0.500000 0.317220 1.125209
H5    H     H_    0.214141 0.642100 0.287190 0.212299
H6    H     H_    0.786182 0.340883 0.304200 0.208585
H7    H     H_    0.214435 0.357270 0.713941 0.221605
H8    H     H_    0.785876 0.659589 0.697216 0.218312
C7    C     C_R   0.296624 0.589240 0.384280 0.389105
C8    C     C_R   0.703271 0.404617 0.390890 0.387896
C9    C     C_R   0.296717 0.410147 0.615827 0.377534
C10   C     C_R   0.703164 0.595954 0.609309 0.378362
C11   C     C_R   0.326954 0.499745 0.500000 -0.334450
C12   C     C_R   0.672979 0.500252 0.500012 -0.332531
C13   C     C_R   0.880744 0.632118 0.474933 0.537467
C14   C     C_R   0.118421 0.366004 0.508180 0.534343
C15   C     C_R   0.880701 0.368097 0.527711 0.536055
C16   C     C_R   0.118467 0.633786 0.494224 0.533360
N1    N     N_R   0.852393 0.500116 0.501210 -0.339228
N2    N     N_R   0.147032 0.499861 0.501057 -0.336550
C17   C     C_R   0.939989 0.364793 0.524477 -0.023869
C18   C     C_R   0.059210 0.635961 0.486579 -0.022681
C19   C     C_R   0.940030 0.635354 0.478441 -0.024659
C20   C     C_R   0.059169 0.363969 0.516213 -0.023516
C21   C     C_R   0.969753 0.500051 0.501480 -0.017456
C22   C     C_R   0.029432 0.499996 0.501448 -0.016910
C23   C     C_R   0.970051 0.230126 0.544239 -0.149493
C24   C     C_R   0.029220 0.770495 0.464985 -0.148933
C25   C     C_R   0.970131 0.769980 0.458754 -0.149407
C26   C     C_R   0.029140 0.229502 0.537947 -0.148864
C27   C     C_1   0.499787 0.065187 0.500236 -0.060943
C28   C     C_1   0.499770 0.934813 0.499755 -0.060519
C29   C     C_R   0.237612 0.581119 0.380761 -0.136968
C30   C     C_R   0.762348 0.409625 0.389726 -0.135601
C31   C     C_R   0.237754 0.418337 0.620121 -0.128219
C32   C     C_R   0.762195 0.590771 0.611424 -0.126545
N3    N     N_1   0.500000 0.500000 0.073640 0.020730
N4    N     N_1   0.500000 0.500000 0.926360 0.017978
O9    O     O_2   0.851582 0.759472 0.444259 -0.499790
O10   O     O_2   0.147162 0.235122 0.505414 -0.498944
O11   O     O_2   0.851490 0.240784 0.558245 -0.503035
O12   O     O_2   0.147263 0.764594 0.496819 -0.502687
S1    S     S_3+6 0.329831 0.720317 0.249485 0.071378
O13   O     O_2   0.286669 0.827061 0.179042 -0.255008
O14   O     O_2   0.373650 0.808158 0.343354 -0.315523
O15   O     O_3   0.361346 0.628545 0.093204 -0.492347
H9    H     H_    0.383002 0.706213 0.032195 0.377814
S2    S     S_3+6 0.669708 0.271859 0.259942 0.071811
O16   O     O_2   0.712407 0.162018 0.193757 -0.251749
O17   O     O_2   0.625204 0.187765 0.355775 -0.316182
O18   O     O_3   0.639109 0.361873 0.100143 -0.496207
H10   H     H_    0.616498 0.284375 0.042424 0.377955
S3    S     S_3+6 0.329782 0.278057 0.749405 0.076575
O19   O     O_2   0.373883 0.191290 0.655476 -0.310097
O20   O     O_2   0.357535 0.358606 0.890835 -0.239434
O21   O     O_3   0.281312 0.157568 0.825383 -0.501962
H11   H     H_    0.303128 0.088658 0.897663 0.411832
S4    S     S_3+6 0.669709 0.729886 0.738755 0.076799
O22   O     O_2   0.625060 0.813050 0.642571 -0.309567
O23   O     O_2   0.642571 0.651202 0.883102 -0.242372
O24   O     O_3   0.717661 0.853627 0.810189 -0.502185
H12   H     H_    0.695739 0.921943 0.882447 0.411407

loop_
_geom_bond_atom_site_label_1
_geom_bond_atom_site_label_2
_geom_bond_distance
_ccdc_geom_bond_type
H8    C32   1.082559 S    
C9    C11   1.420813 A    
C5    C11   1.462174 S    
C21   C22   1.404760 A    
C10   S4    1.775529 S    
H5    C29   1.082402 S    
C19   C21   1.407443 A    
O24   H12   0.990804 S    
C20   C26   1.403262 A    
O5    Zn1   2.008059 S    
S4    O23   1.502937 D    
O7    C6    1.277465 A    
H3    C25   1.082309 S    
C4    C30   1.393386 A    
C18   C22   1.406072 A    
C8    C30   1.391336 A    
C4    N1    1.428672 S    
S3    O20   1.502303 D    
C8    S2    1.776818 S    
S4    O24   1.682598 S    
O3    Zn1   1.950122 S    
C6    C12   1.461223 S    
C3    C31   1.395992 A    
C9    S3    1.776142 S    
C19   C25   1.403394 A    
C14   C20   1.396351 A    
H1    C23   1.082320 S    
S1    O13   1.503668 D    
H2    C24   1.081535 S    
O8    C5    1.277672 A    
C9    C31   1.390255 A    
H4    C26   1.081523 S    
C7    C11   1.420885 A    
S1    O14   1.502793 D    
O1    Zn1   1.952378 S    
S4    O22   1.502337 D    
O7    Zn1   2.008034 S    
O2    Zn2   1.952377 S    
O18   H10   0.990687 S    
S2    O18   1.681668 S    
O8    Zn2   2.008036 S    
O1    C1    1.260166 A    
O21   H11   0.990670 S    
N3    N4    1.191137 T    
C15   C17   1.396125 A    
S2    O17   1.502516 D    
C17   C23   1.403371 A    
S3    O21   1.682626 S    
C18   C24   1.403235 A    
O15   H9    0.990732 S    
H7    C31   1.082330 S    
C27   C28   1.163494 T    
O6    Zn2   2.008057 S    
Zn1   N4    1.969971 S    
C8    C12   1.421387 A    
C2    C28   1.363196 S    
C13   N1    1.369891 A    
O2    C2    1.260147 A    
C14   N2    1.372341 A    
C3    N2    1.434573 S    
C24   C25   1.391792 A    
O5    C5    1.277787 A    
S1    O15   1.680762 S    
C15   O11   1.350101 S    
C16   C18   1.396329 A    
C4    C32   1.393227 A    
Zn2   N3    1.969971 S    
C1    C27   1.363193 S    
H6    C30   1.082668 S    
S2    O16   1.503627 D    
C10   C12   1.421349 A    
O3    C2    1.259272 A    
C10   C32   1.390395 A    
C20   C22   1.406051 A    
C15   N1    1.369858 A    
C13   C19   1.396100 A    
C16   N2    1.372304 A    
C3    C29   1.396176 A    
C17   C21   1.407469 A    
S3    O19   1.502643 D    
C23   C26   1.391809 A    
C7    C29   1.391249 A    
O4    Zn2   1.950123 S    
O6    C6    1.277384 A    
C16   O12   1.350063 S    
C7    S1    1.777554 S    
C13   O9    1.350099 S    
O4    C1    1.259251 A    
C14   O10   1.350056 S    
