data_mof_unit_19456.cif
_audit_creation_date              2012-12-10T17:28:33-0500
_audit_creation_method            fapswitch 2.2
_symmetry_space_group_name_H-M    P1
_symmetry_Int_Tables_number       1
_space_group_crystal_system       triclinic
_cell_length_a                    10.599794
_cell_length_b                    11.976092
_cell_length_c                    12.900868
_cell_angle_alpha                 92.960058
_cell_angle_beta                  90.303615
_cell_angle_gamma                 88.476798
_cell_volume                      1634.91357639

loop_
_atom_site_label
_atom_site_type_symbol
_atom_type_description
_atom_site_fract_x
_atom_site_fract_y
_atom_site_fract_z
_atom_type_partial_charge
C1    C     C_R   0.498522 0.521793 0.700288 0.861658
C2    C     C_R   0.501102 0.478162 0.299688 0.924438
C3    C     C_R   0.503240 0.464938 0.188569 -0.080429
C4    C     C_R   0.496358 0.534962 0.811294 -0.053613
C5    C     C_R   0.447451 0.645258 0.967610 0.004817
C6    C     C_R   0.552272 0.354667 0.032163 0.012260
C7    C     C_R   0.456117 0.636082 0.860475 -0.214586
C8    C     C_R   0.542922 0.363647 0.139308 -0.230038
C9    C     C_R   0.530839 0.443100 0.867772 -0.268614
C10   C     C_R   0.469405 0.556970 0.132056 -0.255887
C11   C     C_R   0.521239 0.448863 0.974628 0.114350
C12   C     C_R   0.478822 0.551153 0.025185 0.112263
C13   C     C_R   0.448809 0.946594 0.369812 -0.291582
C14   C     C_R   0.547245 0.053756 0.630581 -0.277597
C15   C     C_R   0.448161 0.831881 0.385827 0.074716
C16   C     C_R   0.554022 0.167811 0.613535 0.090876
C17   C     C_R   0.501029 0.864339 0.563095 -0.044205
C18   C     C_R   0.489638 0.136991 0.438277 -0.028959
C19   C     C_R   0.509159 0.979776 0.549621 0.109980
C20   C     C_R   0.481883 0.021420 0.451654 0.100311
C21   C     C_R   0.735816 0.505253 0.523036 0.896287
C22   C     C_R   0.258541 0.499626 0.511092 0.881275
C23   C     C_R   0.871375 0.340645 0.653554 -0.170166
C24   C     C_R   0.126280 0.712868 0.581960 -0.161949
C25   C     C_R   0.939469 0.247426 0.684503 -0.152742
C26   C     C_R   0.063832 0.815164 0.572192 -0.205746
C27   C     C_R   0.059645 0.222447 0.643214 -0.002703
C28   C     C_R   0.933130 0.819031 0.563323 -0.006478
C29   C     C_R   0.110136 0.295166 0.571861 -0.050625
C30   C     C_R   0.867206 0.721952 0.580135 0.007236
C31   C     C_R   0.057584 0.405330 0.567300 -0.009891
C32   C     C_R   0.929608 0.616279 0.565341 0.013477
C33   C     C_R   0.930009 0.419575 0.594303 0.094544
C34   C     C_R   0.062400 0.610744 0.562173 0.083646
C35   C     C_R   0.124787 0.503348 0.543450 -0.205962
C36   C     C_R   0.864850 0.515216 0.563700 -0.225626
H1    H     H_    0.426608 0.976032 0.293660 0.159851
H2    H     H_    0.570773 0.023919 0.706337 0.158514
H3    H     H_    0.776190 0.355224 0.682265 0.142763
H4    H     H_    0.223629 0.717045 0.606185 0.180789
H5    H     H_    0.895470 0.192067 0.736528 0.194820
H6    H     H_    0.117510 0.890790 0.572285 0.190456
H7    H     H_    0.436437 0.633835 0.172036 0.161664
H8    H     H_    0.564210 0.366363 0.827759 0.158155
H9    H     H_    0.568766 0.292394 0.184293 0.165432
H10   H     H_    0.429628 0.707140 0.815436 0.163647
H11   H     H_    0.466357 0.170814 0.364173 0.135286
H12   H     H_    0.515370 0.832218 0.638682 0.136336
H13   H     H_    0.581450 0.224577 0.676849 0.121024
H14   H     H_    0.425509 0.774688 0.321493 0.134916
N1    N     N_R   0.523130 0.207800 0.519340 -0.105411
N2    N     N_R   0.476870 0.792200 0.480660 -0.103195
O1    O     O_R   0.506170 0.421700 0.658830 -0.651874
O2    O     O_R   0.493830 0.578300 0.341170 -0.628518
O3    O     O_R   0.491330 0.609310 0.646410 -0.641165
O4    O     O_R   0.508670 0.390690 0.353590 -0.625021
O5    O     O_R   0.690650 0.406190 0.506220 -0.610026
O6    O     O_R   0.309350 0.593810 0.493780 -0.629714
O7    O     O_R   0.675800 0.593810 0.493800 -0.590569
O8    O     O_R   0.324200 0.406190 0.506200 -0.604317
Zn1   Zn    Zn3+2 0.509910 0.374730 0.508290 0.963559
Zn2   Zn    Zn3+2 0.490090 0.625270 0.491710 0.960392
C37   C     C_2   0.866574 0.922533 0.534516 0.908357
O9    O     O_2   0.904461 0.013807 0.565136 -0.641655
O10   O     O_R   0.765754 0.915442 0.464831 -0.798737
H15   H     H_    0.738348 0.991476 0.440507 0.342094
C38   C     C_2   0.129370 0.119672 0.673654 0.933671
O11   O     O_2   0.082940 0.058615 0.735544 -0.614304
O12   O     O_R   0.249472 0.093571 0.634163 -0.824990
H16   H     H_    0.285788 0.021658 0.661554 0.331576
C39   C     C_1   0.166352 0.242733 0.479124 0.313972
N3    N     N_1   0.209101 0.200490 0.404155 -0.206544
C40   C     C_1   0.768802 0.733339 0.657161 0.192681
N4    N     N_1   0.694581 0.741954 0.722610 -0.219380
C41   C     C_1   0.405495 0.751580 0.015671 0.151551
N5    N     N_1   0.372014 0.836623 0.054099 -0.195251
C42   C     C_1   0.594517 0.248467 0.983980 0.143095
N6    N     N_1   0.628257 0.163581 0.945380 -0.198668

loop_
_geom_bond_atom_site_label_1
_geom_bond_atom_site_label_2
_ccdc_geom_bond_type
O6    Zn2   S    
C37   O10   S    
C27   C29   A    
C40   N4    T    
C19   C20   A    
N1    Zn1   S    
C16   N1    A    
C18   H11   S    
C21   C36   S    
C42   N6    T    
C22   C35   S    
C32   C36   A    
C24   C26   A    
C21   O7    A    
C22   O8    A    
O3    Zn2   S    
C33   C36   A    
C34   C35   A    
C15   H14   S    
C1    O1    A    
C8    H9    S    
C17   C19   A    
O1    Zn1   S    
C9    H8    S    
C17   H12   S    
C14   C16   A    
C13   H1    S    
C4    C7    A    
C17   N2    A    
C18   N1    A    
C38   O11   D    
C7    H10   S    
C16   H13   S    
C5    C12   A    
C3    C8    A    
C2    O2    A    
C25   H5    S    
C6    C11   A    
C5    C7    A    
C30   C40   S    
C6    C42   S    
C6    C8    A    
O2    Zn2   S    
C23   C33   A    
C24   C34   A    
O8    Zn1   S    
C38   O12   S    
C32   C34   A    
C5    C41   S    
C41   N5    T    
C21   O5    A    
C14   H2    S    
C31   C33   A    
C15   N2    A    
C9    C11   A    
C10   C12   A    
C13   C15   A    
C31   C35   A    
C26   H6    S    
O7    Zn2   S    
C13   C20   A    
C10   H7    S    
C14   C19   A    
C22   O6    A    
C11   C12   A    
O5    Zn1   S    
C25   C27   A    
C26   C28   A    
C1    C4    S    
C28   C30   A    
C2    C3    S    
C1    O3    A    
C39   N3    T    
C29   C31   A    
C3    C10   A    
C2    O4    A    
C30   C32   A    
C23   H3    S    
C24   H4    S    
C18   C20   A    
C23   C25   A    
O12   H16   S    
C27   C38   S    
C37   O9    D    
C28   C37   S    
O10   H15   S    
O4    Zn1   S    
N2    Zn2   S    
C4    C9    A    
C29   C39   S    
