data_mof_unit_61720.cif
_audit_creation_date              2012-10-26T20:56:52-0400
_audit_creation_method            fapswitch 2.2
_symmetry_space_group_name_H-M    P1
_symmetry_Int_Tables_number       1
_space_group_crystal_system       triclinic
_cell_length_a                    16.057751
_cell_length_b                    17.250677
_cell_length_c                    19.349146
_cell_angle_alpha                 90.219521
_cell_angle_beta                  92.470001
_cell_angle_gamma                 96.625068
_cell_volume                      5318.90357511

loop_
_atom_site_label
_atom_site_type_symbol
_atom_type_description
_atom_site_fract_x
_atom_site_fract_y
_atom_site_fract_z
_atom_type_partial_charge
C1    C     C_R   0.489285 0.349559 0.501202 0.552083
C2    C     C_R   0.521073 0.896820 0.480079 0.066971
C3    C     C_R   0.406426 0.136150 0.498882 -0.075050
C4    C     C_R   0.593570 0.863851 0.501118 -0.075062
C5    C     C_R   0.409205 0.216875 0.492779 -0.110322
C6    C     C_R   0.590793 0.783126 0.507221 -0.110325
C7    C     C_2   0.477797 0.018644 0.522278 0.066220
C8    C     C_2   0.522196 0.981356 0.477724 0.066221
C9    C     C_R   0.747013 0.468836 0.460477 0.065063
C10   C     C_R   0.253089 0.531418 0.539395 0.065077
C11   C     C_R   0.833743 0.476072 0.455010 0.051675
C12   C     C_R   0.510715 0.650441 0.498798 0.552078
C13   C     C_R   0.166380 0.524241 0.544975 0.051579
C14   C     C_R   0.885524 0.524284 0.502545 0.029552
C15   C     C_R   0.114496 0.475805 0.497674 0.029716
C16   C     C_R   0.500314 0.499982 0.367552 0.553784
C17   C     C_R   0.499686 0.500019 0.632448 0.553778
C18   C     C_R   0.846494 0.568453 0.550888 0.064358
C19   C     C_R   0.153425 0.431373 0.449466 0.064400
C20   C     C_R   0.759006 0.559699 0.553217 0.059835
C21   C     C_R   0.240906 0.440090 0.447017 0.059877
C22   C     C_2   0.978562 0.531444 0.500522 -0.067137
C23   C     C_R   0.484707 0.264736 0.507595 0.016941
C24   C     C_2   0.021460 0.468683 0.499785 -0.067101
C25   C     C_R   0.426774 0.498509 0.251231 -0.132549
C26   C     C_R   0.573229 0.501496 0.748768 -0.132551
C27   C     C_R   0.428468 0.499406 0.179355 -0.137075
C28   C     C_R   0.571537 0.500604 0.820644 -0.137056
C29   C     C_R   0.504853 0.501709 0.146248 0.040789
C30   C     C_R   0.495153 0.498305 0.853753 0.040785
C31   C     C_R   0.580468 0.504137 0.186742 0.248735
C32   C     C_R   0.419538 0.495878 0.813259 0.248730
C33   C     C_R   0.578207 0.503258 0.258752 -0.079919
C34   C     C_R   0.515291 0.735264 0.492406 0.016948
C35   C     C_R   0.421797 0.496753 0.741250 -0.079902
C36   C     C_R   0.501618 0.500345 0.291556 -0.028163
C37   C     C_R   0.498383 0.499660 0.708444 -0.028163
C38   C     C_R   0.496755 0.498459 0.929893 0.362364
C39   C     C_R   0.503252 0.501558 0.070108 0.362365
C40   C     C_R   0.556503 0.231125 0.530470 -0.105103
C41   C     C_R   0.443493 0.768874 0.469535 -0.105114
C42   C     C_R   0.553351 0.150839 0.537180 -0.075433
C43   C     C_R   0.446643 0.849160 0.462825 -0.075426
C44   C     C_R   0.478922 0.103180 0.519924 0.066967
Cl1   Cl    Cl    0.679927 0.512700 0.150502 -0.481597
Cl2   Cl    Cl    0.320079 0.487322 0.849501 -0.481589
Cu1   Cu    Cu3+1 0.415410 0.495980 0.496480 0.966811
Cu2   Cu    Cu3+1 0.584590 0.504020 0.503520 0.966814
H1    H     H_    0.366789 0.496363 0.275121 0.157096
H2    H     H_    0.630408 0.502669 0.850503 0.166985
H3    H     H_    0.636815 0.505503 0.289014 0.174317
H4    H     H_    0.363187 0.494508 0.710988 0.174392
H5    H     H_    0.615145 0.266805 0.543435 0.146422
H6    H     H_    0.384851 0.733194 0.456572 0.146393
H7    H     H_    0.647047 0.758354 0.524385 0.143953
H8    H     H_    0.352952 0.241648 0.475612 0.143927
H9    H     H_    0.348486 0.099357 0.485939 0.147603
H10   H     H_    0.651511 0.900645 0.514059 0.147594
H11   H     H_    0.390691 0.874411 0.445541 0.145341
H12   H     H_    0.633213 0.503638 0.724877 0.157051
H13   H     H_    0.609302 0.125587 0.554466 0.145342
H14   H     H_    0.707003 0.432774 0.423755 0.157825
H15   H     H_    0.293177 0.567635 0.575954 0.157919
H16   H     H_    0.271377 0.405577 0.411089 0.146056
H17   H     H_    0.728461 0.594013 0.589255 0.146101
H18   H     H_    0.987229 0.410589 0.497840 0.175979
H19   H     H_    0.012759 0.589552 0.502446 0.176007
H20   H     H_    0.369597 0.497340 0.149495 0.166973
I1    I     I_    0.912388 0.652394 0.619317 -0.268414
I2    I     I_    0.087381 0.347067 0.381451 -0.268707
I3    I     I_    0.123766 0.576524 0.634019 -0.236986
I4    I     I_    0.876628 0.424247 0.365848 -0.236893
I5    I     I_    0.592193 0.038992 0.397858 -0.299144
I6    I     I_    0.407800 0.961008 0.602145 -0.299109
N1    N     N_R   0.558978 0.464884 0.035100 -0.124549
N2    N     N_R   0.441030 0.535133 0.964900 -0.124541
N3    N     N_R   0.556085 0.463701 0.966308 -0.200745
N4    N     N_R   0.443923 0.536316 0.033692 -0.200742
N5    N     N_R   0.711660 0.510070 0.508820 -0.264856
N6    N     N_R   0.288340 0.489930 0.491180 -0.264875
O1    O     O_R   0.420280 0.382610 0.496690 -0.501167
O2    O     O_R   0.579720 0.617390 0.503310 -0.501094
O3    O     O_R   0.563150 0.389410 0.502640 -0.507265
O4    O     O_R   0.436850 0.610590 0.497360 -0.507442
O5    O     O_R   0.428540 0.496590 0.397170 -0.502609
O6    O     O_R   0.571460 0.503410 0.602830 -0.502764
O7    O     O_R   0.571410 0.503390 0.403120 -0.508662
O8    O     O_R   0.428590 0.496610 0.596880 -0.508588

loop_
_geom_bond_atom_site_label_1
_geom_bond_atom_site_label_2
_ccdc_geom_bond_type
C27   C29   A    
C17   O8    A    
C14   C18   A    
C5    H8    S    
C10   H15   S    
C6    H7    S    
C7    C8    D    
C38   N2    A    
C15   C19   A    
C30   C38   S    
Cu1   O5    S    
Cu2   N5    S    
C35   C37   A    
N2    N4    A    
C11   C14   A    
C1    O1    A    
C23   C40   A    
C33   C36   A    
C12   O4    A    
C9    N5    A    
C21   H16   S    
C27   H20   S    
C28   H2    S    
C16   O7    A    
C31   C33   A    
C39   N1    A    
C18   C20   A    
C43   H11   S    
C18   I1    S    
C40   C42   A    
C41   C43   A    
C34   C41   A    
C42   C44   A    
Cu1   N6    S    
C7    I6    S    
C41   H6    S    
C3    C44   A    
C17   O6    A    
C32   C35   A    
C20   H17   S    
C4    C6    A    
C10   N6    A    
C11   I4    S    
C13   I3    S    
Cu1   O4    S    
C9    H14   S    
C2    C4    A    
C39   N4    A    
N1    N3    A    
Cu1   Cu2   S    
C5    C23   A    
C2    C43   A    
C29   C39   S    
Cu2   O7    S    
C12   O2    A    
C17   C37   S    
C7    C44   S    
C9    C11   A    
C42   H13   S    
C3    H9    S    
C15   C24   S    
C1    C23   S    
C13   C15   A    
C16   O5    A    
Cu2   O6    S    
C33   H3    S    
C12   C34   S    
C20   N5    A    
C19   C21   A    
C32   Cl2   S    
C2    C8    S    
C3    C5    A    
C10   C13   A    
C26   C37   A    
C38   N3    A    
C24   H18   S    
C1    O3    A    
C26   C28   A    
Cu2   O3    S    
Cu1   O8    S    
C14   C22   S    
C28   C30   A    
C29   C31   A    
C16   C36   S    
C30   C32   A    
C21   N6    A    
C8    I5    S    
Cu2   O2    S    
C22   C24   D    
Cu1   O1    S    
C25   H1    S    
C22   H19   S    
C25   C36   A    
C6    C34   A    
C40   H5    S    
C31   Cl1   S    
C4    H10   S    
C35   H4    S    
C19   I2    S    
C26   H12   S    
C25   C27   A    
