data_mof_unit_45908.cif
_audit_creation_date              2013-03-05T15:45:57-0500
_audit_creation_method            fapswitch 2.2
_symmetry_space_group_name_H-M    P1
_symmetry_Int_Tables_number       1
_space_group_crystal_system       triclinic
_cell_length_a                    19.42797
_cell_length_b                    11.142683
_cell_length_c                    18.780083
_cell_angle_alpha                 90.397873
_cell_angle_beta                  89.908276
_cell_angle_gamma                 90.835101
_cell_volume                      4064.97252964

loop_
_atom_site_label
_atom_site_type_symbol
_atom_site_description
_atom_site_fract_x
_atom_site_fract_y
_atom_site_fract_z
_atom_type_partial_charge
O1    O     O_R   0.787510 0.042610 0.670410 -0.444484
O2    O     O_R   0.212490 0.042610 0.329590 -0.480695
O3    O     O_R   0.287510 0.542610 0.670410 -0.469020
O4    O     O_R   0.712490 0.542610 0.329590 -0.456359
O5    O     O_R   0.765670 0.292090 0.675090 -0.445535
O6    O     O_R   0.234330 0.292090 0.324910 -0.432205
O7    O     O_R   0.265670 0.792090 0.675090 -0.456964
O8    O     O_R   0.734330 0.792090 0.324910 -0.430111
C1    C     C_R   0.727034 0.367258 0.642983 0.600320
C2    C     C_R   0.270473 0.379257 0.353755 0.594082
C3    C     C_R   0.232111 0.881992 0.649113 0.580449
C4    C     C_R   0.787223 0.835797 0.362039 0.555943
O9    O     O_R   0.670220 0.409020 0.668560 -0.460672
O10   O     O_R   0.329780 0.409020 0.331440 -0.463859
O11   O     O_R   0.170220 0.909020 0.668560 -0.476506
O12   O     O_R   0.829780 0.909020 0.331440 -0.441443
O13   O     O_R   0.556580 0.251590 0.674980 -0.505052
O14   O     O_R   0.443420 0.251590 0.325020 -0.484280
O15   O     O_R   0.056580 0.751590 0.674980 -0.454903
O16   O     O_R   0.943420 0.751590 0.325020 -0.476044
C5    C     C_R   0.533018 0.152835 0.646271 0.587941
C6    C     C_R   0.435487 0.148126 0.360040 0.538232
C7    C     C_R   0.060090 0.651741 0.639186 0.530031
C8    C     C_R   0.968531 0.654979 0.352639 0.568860
O17   O     O_R   0.545890 0.049670 0.670030 -0.474632
O18   O     O_R   0.454110 0.049670 0.329970 -0.439961
O19   O     O_R   0.045890 0.549670 0.670030 -0.476110
O20   O     O_R   0.954110 0.549670 0.329970 -0.452302
O21   O     O_R   0.681340 0.957860 0.676500 -0.481652
O22   O     O_R   0.318660 0.957860 0.323500 -0.449711
O23   O     O_R   0.181340 0.457860 0.676500 -0.503955
O24   O     O_R   0.818660 0.457860 0.323500 -0.499470
C9    C     C_R   0.744217 0.960291 0.651731 0.619501
C10   C     C_R   0.259629 0.978899 0.356211 0.537984
C11   C     C_R   0.240357 0.469984 0.647118 0.581027
C12   C     C_R   0.755301 0.467913 0.350548 0.574858
O25   O     O_R   0.787380 0.044010 0.830940 -0.460070
O26   O     O_R   0.212620 0.044010 0.169060 -0.410670
O27   O     O_R   0.287380 0.544010 0.830940 -0.453093
O28   O     O_R   0.712620 0.544010 0.169060 -0.403971
O29   O     O_R   0.765540 0.293390 0.823910 -0.436455
O30   O     O_R   0.234460 0.293390 0.176090 -0.418996
O31   O     O_R   0.265540 0.793390 0.823910 -0.427652
O32   O     O_R   0.734460 0.793390 0.176090 -0.442596
C13   C     C_R   0.712402 0.336199 0.859779 0.549816
C14   C     C_R   0.285011 0.340524 0.139222 0.547612
C15   C     C_R   0.212656 0.836095 0.860165 0.555489
C16   C     C_R   0.772761 0.869980 0.144982 0.583097
O33   O     O_R   0.670090 0.410410 0.829090 -0.454602
O34   O     O_R   0.329910 0.410410 0.170910 -0.458639
O35   O     O_R   0.170090 0.910410 0.829090 -0.474224
O36   O     O_R   0.829910 0.910410 0.170910 -0.478236
O37   O     O_R   0.556450 0.252890 0.823790 -0.512081
O38   O     O_R   0.443550 0.252890 0.176210 -0.465427
O39   O     O_R   0.056450 0.752890 0.823790 -0.477855
O40   O     O_R   0.943550 0.752890 0.176210 -0.458904
C17   C     C_R   0.535433 0.154262 0.855084 0.574129
C18   C     C_R   0.467324 0.160049 0.146741 0.597994
C19   C     C_R   0.037490 0.655423 0.855790 0.612210
C20   C     C_R   0.965527 0.659595 0.146163 0.607222
O41   O     O_R   0.545750 0.051070 0.830560 -0.440464
O42   O     O_R   0.454250 0.051070 0.169440 -0.449116
O43   O     O_R   0.045750 0.551070 0.830560 -0.428964
O44   O     O_R   0.954250 0.551070 0.169440 -0.451483
O45   O     O_R   0.681210 0.959150 0.825320 -0.501049
O46   O     O_R   0.318790 0.959150 0.174680 -0.503926
O47   O     O_R   0.181210 0.459150 0.825320 -0.455819
O48   O     O_R   0.818790 0.459150 0.174680 -0.504652
C21   C     C_R   0.742101 0.972309 0.853550 0.540149
C22   C     C_R   0.257291 0.963448 0.149129 0.581205
C23   C     C_R   0.244521 0.468401 0.851267 0.617184
C24   C     C_R   0.759530 0.469028 0.146667 0.578558
Cr1   Cr    Cr6+3 0.771950 0.169480 0.750100 1.202215
Cr2   Cr    Cr6+3 0.228050 0.169480 0.249900 1.211078
Cr3   Cr    Cr6+3 0.271950 0.669480 0.750100 1.199237
Cr4   Cr    Cr6+3 0.728050 0.669480 0.249900 1.223013
Cr5   Cr    Cr6+3 0.614930 0.323340 0.749170 1.092585
Cr6   Cr    Cr6+3 0.385070 0.323340 0.250830 1.164571
Cr7   Cr    Cr6+3 0.114930 0.823340 0.749170 1.133796
Cr8   Cr    Cr6+3 0.885070 0.823340 0.250830 1.176862
Cr9   Cr    Cr6+3 0.616590 0.010620 0.750610 1.148831
Cr10  Cr    Cr6+3 0.383410 0.010620 0.249390 1.165339
Cr11  Cr    Cr6+3 0.116590 0.510620 0.750610 1.162063
Cr12  Cr    Cr6+3 0.883410 0.510620 0.249390 1.151368
O49   O     O_3   0.667820 0.167810 0.749960 -0.360965
O50   O     O_3   0.332180 0.167810 0.250040 -0.388404
O51   O     O_3   0.167820 0.667810 0.749960 -0.386239
O52   O     O_3   0.832180 0.667810 0.250040 -0.375094
C25   C     C_R   0.450589 0.143588 0.435749 -0.050267
C26   C     C_R   0.496672 0.150341 0.577676 0.016972
C27   C     C_R   0.992738 0.658340 0.426155 0.024567
C28   C     C_R   0.031316 0.664688 0.569600 -0.009493
C29   C     C_R   0.471630 0.249833 0.468161 0.010723
C30   C     C_R   0.492322 0.254816 0.538740 0.038563
C31   C     C_R   0.046739 0.732087 0.447937 0.101810
C32   C     C_R   0.066683 0.731477 0.518481 0.035419
C33   C     C_R   0.486935 0.038305 0.541071 0.033868
C34   C     C_R   0.459515 0.032435 0.472436 -0.015417
C35   C     C_R   0.969570 0.607095 0.551388 0.015036
C36   C     C_R   0.954888 0.595324 0.478946 0.015981
C37   C     C_3   0.533039 0.320203 0.444564 -0.212372
C38   C     C_3   0.552731 0.333469 0.521566 -0.254769
C39   C     C_3   0.119321 0.735594 0.422383 -0.236544
C40   C     C_3   0.140599 0.732682 0.500027 -0.291569
H1    H     H_    0.131946 0.821608 0.395596 0.183371
H2    H     H_    0.167550 0.650182 0.515876 0.112274
H3    H     H_    0.517441 0.401781 0.417111 0.249901
H4    H     H_    0.602980 0.291885 0.533943 0.134862
H5    H     H_    0.570200 0.265313 0.413584 0.181531
H6    H     H_    0.546174 0.425042 0.543582 0.208729
H7    H     H_    0.134039 0.654578 0.391880 0.192483
H8    H     H_    0.163398 0.816418 0.519465 0.152133
C41   C     C_R   0.710445 0.841377 0.545372 -0.024583
C42   C     C_R   0.289355 0.866923 0.466260 -0.147995
C43   C     C_R   0.187019 0.413069 0.532435 -0.135188
C44   C     C_R   0.761413 0.320491 0.447402 -0.117120
H9    H     H_    0.662964 0.816968 0.570294 0.219597
H10   H     H_    0.310549 0.796653 0.434257 0.251041
H11   H     H_    0.136981 0.411676 0.557910 0.205664
H12   H     H_    0.782154 0.253804 0.411291 0.181098
C45   C     C_R   0.715071 0.840755 0.471357 0.193087
C46   C     C_R   0.301037 0.869034 0.539499 0.110486
C47   C     C_R   0.190386 0.412587 0.458011 0.155276
C48   C     C_R   0.764554 0.303995 0.520560 0.198868
C49   C     C_R   0.779253 0.857825 0.439567 -0.015258
C50   C     C_R   0.258170 0.938072 0.583093 0.002509
C51   C     C_R   0.255400 0.426353 0.425777 -0.026864
C52   C     C_R   0.742188 0.393725 0.568269 0.020574
C53   C     C_R   0.836489 0.893527 0.482508 0.160666
C54   C     C_R   0.218492 0.029010 0.552647 0.146394
C55   C     C_R   0.313315 0.460271 0.468387 0.119363
C56   C     C_R   0.713488 0.497097 0.541490 0.183185
C57   C     C_R   0.830299 0.896117 0.557711 0.063417
C58   C     C_R   0.208855 0.029228 0.478152 -0.024248
C59   C     C_R   0.311396 0.436525 0.541523 0.029169
C60   C     C_R   0.696361 0.500768 0.468863 0.010864
C61   C     C_R   0.763554 0.886321 0.587941 0.025447
C62   C     C_R   0.249829 0.953598 0.433705 -0.108445
C63   C     C_R   0.246988 0.425579 0.574037 -0.038212
C64   C     C_R   0.732742 0.422794 0.420799 -0.023959
C65   C     C_R   0.531070 0.061467 0.975787 0.171315
C66   C     C_R   0.534028 0.083880 0.048688 0.189206
C67   C     C_R   0.062881 0.604371 0.981051 0.166115
C68   C     C_R   0.049677 0.610177 0.053996 0.182198
C69   C     C_R   0.499771 0.180901 0.077031 -0.020590
C70   C     C_R   0.511347 0.155666 0.929473 -0.033337
C71   C     C_R   0.996815 0.682561 0.077053 -0.015712
C72   C     C_R   0.020173 0.661179 0.931290 -0.045116
C73   C     C_R   0.483815 0.280748 0.032014 -0.072362
C74   C     C_R   0.486887 0.263149 0.957853 -0.048631
C75   C     C_R   0.964459 0.760850 0.028057 -0.053109
C76   C     C_R   0.966959 0.731515 0.955722 0.011777
C77   C     C_R   0.801680 0.997267 0.968704 0.154610
C78   C     C_R   0.177065 0.869240 0.058720 0.245850
C79   C     C_R   0.315511 0.480936 0.963321 0.178334
C80   C     C_R   0.686919 0.362469 0.058084 0.251960
C81   C     C_R   0.795397 0.987641 0.040993 -0.108144
C82   C     C_R   0.167215 0.852234 0.984915 -0.089441
C83   C     C_R   0.309230 0.464058 0.035693 -0.108001
C84   C     C_R   0.674204 0.340296 0.985774 -0.116552
H13   H     H_    0.826100 0.047173 0.074441 0.222470
H14   H     H_    0.115466 0.845457 0.964054 0.143280
H15   H     H_    0.336461 0.525077 0.070843 0.240690
H16   H     H_    0.624311 0.307138 0.969162 0.128175
C85   C     C_R   0.757182 0.895053 0.070746 0.005646
C86   C     C_R   0.223866 0.853637 0.937726 -0.002451
C87   C     C_R   0.271590 0.369357 0.064057 -0.022060
C88   C     C_R   0.725946 0.363251 0.934736 -0.016350
C89   C     C_R   0.718327 0.814460 0.026302 0.219524
C90   C     C_R   0.290972 0.861793 0.966095 0.202145
C91   C     C_R   0.233920 0.293088 0.017782 0.209427
C92   C     C_R   0.792497 0.398493 0.956376 0.223967
C93   C     C_R   0.719197 0.830373 0.951707 0.062461
C94   C     C_R   0.300428 0.860865 0.040125 -0.011578
C95   C     C_R   0.234238 0.312608 0.943661 0.054503
C96   C     C_R   0.807361 0.403944 0.029297 -0.016442
C97   C     C_R   0.756953 0.927811 0.924204 -0.021107
C98   C     C_R   0.244169 0.886332 0.085149 0.012665
C99   C     C_R   0.268755 0.414042 0.917514 0.034183
C100  C     C_R   0.751855 0.404181 0.078769 -0.000835
C101  C     C_2   0.535032 0.943392 0.557284 0.676721
O53   O     O_2   0.595468 0.969539 0.550808 -0.503958
O54   O     O_R   0.513579 0.833288 0.585263 -0.563230
H17   H     H_    0.553001 0.781482 0.600695 0.368245
C102  C     C_2   0.455763 0.910376 0.435982 0.674950
O55   O     O_2   0.408415 0.883893 0.397561 -0.476339
O56   O     O_R   0.507597 0.826864 0.441186 -0.581145
H18   H     H_    0.498266 0.753627 0.409995 0.391467
C103  C     C_2   0.922859 0.555248 0.607256 0.650578
O57   O     O_2   0.900264 0.452632 0.601602 -0.436233
O58   O     O_R   0.907512 0.623150 0.667964 -0.599041
H19   H     H_    0.877207 0.577840 0.702957 0.386252
C104  C     C_2   0.902980 0.509615 0.458961 0.629554
O59   O     O_2   0.843627 0.540323 0.462165 -0.583695
O60   O     O_R   0.922893 0.394043 0.439056 -0.555880
H20   H     H_    0.885551 0.343187 0.416935 0.353329
N1    N     N_R   0.856417 0.073576 0.942109 0.106973
O61   O     O_R   0.875076 0.168122 0.978191 -0.321541
O62   O     O_R   0.898371 0.034029 0.893500 -0.227013
N2    N     N_R   0.119557 0.886733 0.104998 0.074795
O63   O     O_R   0.117228 0.830427 0.165377 -0.295604
O64   O     O_R   0.084922 0.984768 0.099087 -0.217873
N3    N     N_R   0.367072 0.570062 0.940938 0.115329
O65   O     O_R   0.398797 0.634437 0.988795 -0.300381
O66   O     O_R   0.396269 0.567962 0.878767 -0.228528
N4    N     N_R   0.635508 0.341006 0.111498 0.067279
O67   O     O_R   0.599841 0.431110 0.134362 -0.244292
O68   O     O_R   0.644854 0.253046 0.155369 -0.285211
N5    N     N_R   0.679968 0.715563 0.055581 0.121829
O69   O     O_R   0.686387 0.609710 0.027680 -0.332305
O70   O     O_R   0.629054 0.734432 0.099108 -0.197057
N6    N     N_R   0.347919 0.892706 0.921121 0.136931
O71   O     O_R   0.362837 0.005193 0.909963 -0.278833
O72   O     O_R   0.380596 0.810280 0.886190 -0.167336
N7    N     N_R   0.199198 0.190697 0.044438 0.096187
O73   O     O_R   0.211797 0.089814 0.013371 -0.383085
O74   O     O_R   0.142141 0.202941 0.079723 -0.160342
N8    N     N_R   0.843848 0.431059 0.904261 0.127762
O75   O     O_R   0.894201 0.358955 0.890072 -0.208127
O76   O     O_R   0.831406 0.517439 0.860089 -0.258191
C105  C     C_2   0.687749 0.740239 0.901144 0.681646
O77   O     O_2   0.719063 0.712220 0.847083 -0.448202
O78   O     O_R   0.623133 0.688071 0.914246 -0.537404
H21   H     H_    0.608218 0.630151 0.875208 0.370452
C106  C     C_2   0.368168 0.829642 0.070488 0.657015
O79   O     O_2   0.370601 0.760591 0.120833 -0.455327
O80   O     O_R   0.428900 0.874879 0.041265 -0.600452
H22   H     H_    0.470753 0.841671 0.065942 0.396716
C107  C     C_2   0.197218 0.229788 0.893215 0.676601
O81   O     O_2   0.223687 0.204067 0.836068 -0.441839
O82   O     O_R   0.132180 0.182704 0.910471 -0.557825
H23   H     H_    0.112495 0.128929 0.871563 0.365264
C108  C     C_2   0.879964 0.390811 0.052470 0.659475
O83   O     O_2   0.893690 0.320161 0.099834 -0.426954
O84   O     O_R   0.933216 0.447483 0.015577 -0.655713
H24   H     H_    0.979273 0.411244 0.027306 0.386554
N9    N     N_R   0.654689 0.866745 0.430779 0.143851
O85   O     O_R   0.642731 0.978225 0.415375 -0.255006
O86   O     O_R   0.625802 0.783958 0.391754 -0.245950
N10   N     N_R   0.356797 0.803010 0.569416 0.105654
O87   O     O_R   0.385432 0.840089 0.628372 -0.250962
O88   O     O_R   0.388101 0.722837 0.531554 -0.224814
N11   N     N_R   0.127577 0.410691 0.416962 0.103964
O89   O     O_R   0.127497 0.440165 0.350028 -0.286714
O90   O     O_R   0.068984 0.386219 0.447608 -0.260863
N12   N     N_R   0.784685 0.190445 0.544244 0.081386
O91   O     O_R   0.847100 0.177334 0.567568 -0.217605
O92   O     O_R   0.751012 0.099378 0.517880 -0.367537
N13   N     N_R   0.892417 0.958364 0.450386 0.137193
O93   O     O_R   0.950312 0.906792 0.437480 -0.319391
O94   O     O_R   0.884751 0.069874 0.432366 -0.246725
N14   N     N_R   0.187795 0.118234 0.598519 0.089972
O95   O     O_R   0.125258 0.154825 0.588805 -0.274922
O96   O     O_R   0.221544 0.157337 0.654035 -0.266048
N15   N     N_R   0.368799 0.530532 0.437962 0.131010
O97   O     O_R   0.431450 0.521384 0.460204 -0.333471
O98   O     O_R   0.355762 0.611190 0.390239 -0.296974
N16   N     N_R   0.705142 0.597089 0.589312 0.074121
O99   O     O_R   0.645786 0.615654 0.619384 -0.312325
O100  O     O_R   0.759793 0.635166 0.622973 -0.333130
C109  C     C_2   0.892060 0.913450 0.604404 0.651994
O101  O     O_2   0.890232 0.877949 0.665870 -0.453484
O102  O     O_R   0.952374 0.968017 0.578881 -0.576025
H25   H     H_    0.990262 0.972365 0.615917 0.369795
C110  C     C_2   0.145154 0.083089 0.451111 0.651117
O103  O     O_2   0.147558 0.174168 0.415989 -0.423370
O104  O     O_R   0.081619 0.030179 0.467703 -0.613253
H26   H     H_    0.041729 0.077869 0.448587 0.413482
C111  C     C_2   0.373745 0.422136 0.586548 0.640330
O105  O     O_2   0.377956 0.332291 0.623252 -0.496502
O106  O     O_R   0.422139 0.515018 0.595008 -0.568122
H27   H     H_    0.459183 0.495367 0.630883 0.341511
C112  C     C_2   0.630418 0.558966 0.448891 0.596062
O107  O     O_2   0.603614 0.540001 0.391051 -0.459775
O108  O     O_R   0.594402 0.625838 0.499054 -0.648921
H28   H     H_    0.543827 0.631359 0.487881 0.397881
N17   N     N_R   0.544200 0.940960 0.951002 0.108341
O109  O     O_R   0.503010 0.890054 0.905241 -0.164921
O110  O     O_R   0.580036 0.870056 0.989958 -0.272757
N18   N     N_R   0.584585 0.026097 0.091407 0.130666
O111  O     O_R   0.649007 0.051179 0.079863 -0.341462
O112  O     O_R   0.567911 0.949362 0.140555 -0.232168
N19   N     N_R   0.119228 0.537298 0.957963 0.063548
O113  O     O_R   0.107594 0.425064 0.942716 -0.261239
O114  O     O_R   0.179688 0.573132 0.979082 -0.420940
N20   N     N_R   0.088909 0.541290 0.103972 0.119206
O115  O     O_R   0.106310 0.586398 0.165535 -0.254960
O116  O     O_R   0.102196 0.429523 0.090832 -0.223509
C113  C     C_2   0.481357 0.408344 0.057840 0.639243
O117  O     O_2   0.448045 0.437939 0.109685 -0.447555
O118  O     O_R   0.521302 0.496074 0.023493 -0.552285
H29   H     H_    0.518147 0.578184 0.046798 0.414595
C114  C     C_2   0.465868 0.355470 0.906962 0.651281
O119  O     O_2   0.414890 0.336499 0.870244 -0.464633
O120  O     O_R   0.512595 0.447682 0.889629 -0.587791
H30   H     H_    0.503429 0.484633 0.841469 0.360582
C115  C     C_2   0.961938 0.892179 0.042146 0.613754
O121  O     O_2   0.942676 0.932839 0.098945 -0.424754
O122  O     O_R   0.988709 0.970656 0.990919 -0.613474
H31   H     H_    0.989800 0.057379 0.007622 0.417221
C116  C     C_2   0.908141 0.758478 0.909630 0.658372
O123  O     O_2   0.850543 0.737117 0.932149 -0.517858
O124  O     O_R   0.917350 0.799033 0.839958 -0.590984
H32   H     H_    0.872107 0.809540 0.814059 0.383509

loop_
_geom_bond_atom_site_label_1
_geom_bond_atom_site_label_2
_geom_bond_distance
_ccdc_geom_bond_type
C37   H3    1.094971 S    
O4    C12   1.251092 A    
C57   C61   1.417756 A    
C95   C107  1.495695 S    
O39   C19   1.293460 A    
O118  H29   1.014097 S    
C60   C64   1.440224 A    
N15   O98   1.301420 A    
C116  O123  1.216481 D    
C59   C63   1.395579 A    
N3    O66   1.297488 A    
C78   C82   1.410613 A    
O25   C21   1.255176 A    
C55   N15   1.442566 S    
C67   C68   1.394560 A    
O21   C9    1.306433 A    
N1    O62   1.301686 A    
C1    O9    1.294508 A    
O44   Cr12  2.082400 S    
C11   C63   1.461829 S    
C70   C74   1.396842 A    
C3    O11   1.295188 A    
C4    O12   1.290282 A    
C9    C61   1.499847 S    
C27   C36   1.417381 A    
C80   N4    1.433246 S    
O2    C10   1.271998 A    
O17   Cr9   2.097447 S    
C54   C58   1.411805 A    
Cr7   O51   2.027743 S    
O9    Cr5   2.083763 S    
C5    C26   1.469956 S    
C101  O54   1.395820 S    
C85   C89   1.429948 A    
C53   N13   1.430922 S    
C1    C52   1.464355 S    
C43   C47   1.399086 A    
C14   C87   1.474356 S    
O16   Cr8   1.978002 S    
O58   H19   1.013953 S    
C3    C50   1.477679 S    
C29   C37   1.486761 S    
N4    O67   1.298413 A    
C87   C91   1.409519 A    
C36   C104  1.427616 S    
C68   N20   1.442340 S    
O13   C5    1.299602 A    
O28   Cr4   2.075839 S    
O12   Cr8   2.088468 S    
O22   Cr10  1.961981 S    
O15   C7    1.298480 A    
N7    O73   1.289338 A    
C107  O81   1.223382 D    
O46   Cr10  1.961400 S    
C78   N2    1.429168 S    
O80   H22   1.012529 S    
O14   Cr6   1.978002 S    
C53   C57   1.417374 A    
C43   C63   1.408526 A    
C111  O106  1.396482 S    
C41   C61   1.391593 A    
C66   N18   1.432157 S    
C92   N8    1.440869 S    
C35   C103  1.499429 S    
C90   C94   1.402781 A    
C67   N19   1.400996 S    
Cr12  O52   2.027081 S    
C95   C99   1.397440 A    
C17   O41   1.254387 A    
O11   Cr7   2.083763 S    
C19   O43   1.264849 A    
C20   O44   1.304114 A    
Cr8   O52   2.001802 S    
N20   O116  1.297464 A    
C80   C100  1.393013 A    
O46   C22   1.289919 A    
C6    C25   1.453606 S    
C83   C87   1.384212 A    
C84   C88   1.409779 A    
C48   N12   1.405160 S    
C51   C55   1.426720 A    
O60   H20   1.002858 S    
C49   C53   1.424993 A    
C16   O36   1.287211 A    
C90   N6    1.430382 S    
N6    O71   1.300699 A    
C30   C38   1.490718 S    
N2    O64   1.296819 A    
C104  O59   1.208875 D    
O27   C23   1.237673 A    
O31   C15   1.324063 A    
O106  H27   1.013903 S    
N14   O95   1.300709 A    
O47   Cr11  1.977731 S    
C60   C112  1.493860 S    
C75   C115  1.486778 S    
C47   N11   1.444237 S    
C33   C34   1.396242 A    
C57   C109  1.496761 S    
N13   O93   1.292345 A    
C105  O77   1.223721 D    
O24   C12   1.336792 A    
C94   C106  1.482133 S    
C34   C102  1.519251 S    
C109  O101  1.223116 D    
C102  O56   1.385095 S    
C28   C32   1.393038 A    
C103  O58   1.398101 S    
N8    O76   1.300593 A    
C46   N10   1.435743 S    
C16   C85   1.456906 S    
O27   Cr3   2.095831 S    
O3    Cr3   2.076353 S    
C108  O83   1.224191 D    
O8    C4    1.327539 A    
C58   C110  1.475656 S    
Cr5   O49   2.027743 S    
N9    O85   1.301654 A    
C115  O122  1.399098 S    
C68   C71   1.382261 A    
C79   N3    1.463516 S    
C31   C39   1.488868 S    
C113  O117  1.214641 D    
C67   C72   1.410116 A    
C77   C97   1.423443 A    
O22   C10   1.323323 A    
C79   C83   1.378361 A    
C80   C84   1.400305 A    
N18   O111  1.296667 A    
C2    O10   1.265879 A    
C81   C85   1.382804 A    
C40   H8    1.088006 S    
C10   C62   1.495663 S    
C44   H12   1.084118 S    
C71   C75   1.425410 A    
C45   C49   1.392738 A    
C114  O119  1.222752 D    
C12   C64   1.478641 S    
C47   C51   1.406610 A    
C96   C108  1.486354 S    
O3    C11   1.288488 A    
C56   C60   1.405484 A    
N5    O69   1.294903 A    
C39   H1    1.109630 S    
C110  O104  1.395864 S    
Cr1   O49   2.022855 S    
C41   H9    1.066324 S    
Cr3   O51   2.022855 S    
C86   C90   1.410644 A    
C43   H11   1.082758 S    
C24   C100  1.467982 S    
O26   Cr2   2.075839 S    
C5    O17   1.264485 A    
N12   O91   1.300502 A    
O29   C13   1.324676 A    
O28   C24   1.312097 A    
O14   C6    1.338070 A    
C72   C76   1.382284 A    
O104  H26   1.013604 S    
O40   Cr8   1.968890 S    
C25   C34   1.434310 A    
N9    O86   1.296113 A    
N16   O99   1.301844 A    
O41   Cr9   2.086567 S    
N10   O87   1.301917 A    
C112  O108  1.391283 S    
O33   Cr5   2.072928 S    
C42   C62   1.388381 A    
C25   C29   1.384127 A    
N1    O61   1.296211 A    
C13   C88   1.461048 S    
O35   Cr7   2.072928 S    
O29   Cr1   1.954769 S    
O32   C16   1.268991 A    
C96   C100  1.422303 A    
C41   C45   1.392757 A    
N19   O113  1.297706 A    
C89   C93   1.413347 A    
C7    C28   1.431223 S    
C17   C70   1.472661 S    
Cr9   O49   2.002004 S    
N15   O97   1.293163 A    
C28   C35   1.394147 A    
C18   O42   1.310975 A    
Cr11  O51   2.002004 S    
O26   C22   1.310012 A    
C37   C38   1.502201 S    
O20   Cr12  2.084743 S    
O108  H28   1.007910 S    
C93   C105  1.501467 S    
C40   H2    1.107307 S    
C18   C69   1.470584 S    
O102  H25   1.013949 S    
C101  O53   1.211756 D    
O5    C1    1.286592 A    
C84   H16   1.078119 S    
N4    O68   1.299729 A    
C50   C54   1.407184 A    
C37   H5    1.113715 S    
N11   O89   1.301429 A    
C39   H7    1.106646 S    
O30   C14   1.306749 A    
C21   C97   1.450610 S    
C75   C76   1.395969 A    
O6    Cr2   1.958259 S    
C94   C98   1.411694 A    
C26   C33   1.431240 A    
C48   C52   1.410770 A    
C91   N7    1.411294 S    
O42   Cr10  2.082400 S    
O18   Cr10  2.084743 S    
C111  O105  1.223195 D    
O31   Cr3   1.954769 S    
C66   C69   1.380884 A    
O34   Cr6   2.097164 S    
C79   C99   1.447281 A    
C26   C30   1.382712 A    
C116  O124  1.397622 S    
O24   Cr12  1.961981 S    
O30   Cr2   1.965772 S    
O48   Cr12  1.961400 S    
C8    O20   1.273001 A    
O78   H21   1.013228 S    
O120  H30   1.013442 S    
C15   C86   1.484307 S    
O37   C17   1.309580 A    
C15   O35   1.318470 A    
C4    C49   1.483083 S    
Cr10  O50   2.027081 S    
O40   C20   1.259137 A    
O43   Cr11  2.086567 S    
O37   Cr5   1.963434 S    
O122  H31   1.013830 S    
O21   Cr9   1.967168 S    
O39   Cr7   1.963434 S    
O45   Cr9   1.977731 S    
C13   O33   1.311348 A    
O13   Cr5   1.956711 S    
O15   Cr7   1.956711 S    
C65   C70   1.424969 A    
N6    O72   1.297776 A    
C78   C98   1.405613 A    
O23   C11   1.277444 A    
C38   H6    1.107298 S    
C81   H13   1.083652 S    
C82   C86   1.411927 A    
N14   O96   1.301656 A    
C44   C48   1.388965 A    
C74   C114  1.471578 S    
O6    C2    1.305340 A    
C56   N16   1.437064 S    
C54   N14   1.445677 S    
O1    Cr1   2.076353 S    
O19   Cr11  2.097447 S    
O56   H18   1.015540 S    
C107  O82   1.399499 S    
C73   C74   1.406438 A    
C102  O55   1.202139 D    
O45   C21   1.303036 A    
O47   C23   1.326090 A    
C77   C81   1.367690 A    
C103  O57   1.222783 D    
C88   C92   1.405633 A    
C105  O78   1.397898 S    
C6    O18   1.286730 A    
C39   C40   1.516962 S    
C113  O118  1.399628 S    
O36   Cr8   2.097164 S    
C69   C73   1.439643 A    
O38   Cr6   1.968890 S    
N3    O65   1.296954 A    
C29   C30   1.386230 A    
N19   O114  1.296949 A    
C115  O121  1.216603 D    
C31   C32   1.381011 A    
C59   C111  1.489576 S    
O54   H17   1.009814 S    
O1    C9    1.282893 A    
O7    C3    1.301318 A    
N18   O112  1.299952 A    
C55   C59   1.400883 A    
N7    O74   1.298958 A    
N20   O115  1.300716 A    
C77   N1    1.442623 S    
O23   Cr11  1.967168 S    
O32   Cr4   1.965772 S    
C23   C99   1.468703 S    
C106  O80   1.389916 S    
O124  H32   1.013925 S    
N2    O63   1.300121 A    
C104  O60   1.398275 S    
C38   H4    1.112277 S    
C20   C71   1.455003 S    
C7    O19   1.305642 A    
C110  O103  1.214494 D    
Cr4   O52   2.023399 S    
O2    Cr2   2.084490 S    
O48   C24   1.273108 A    
C19   C72   1.457927 S    
Cr6   O50   2.001802 S    
O5    Cr1   1.974324 S    
C76   C116  1.470421 S    
C52   C56   1.384992 A    
N12   O92   1.295189 A    
N13   O94   1.300759 A    
C73   C113  1.500421 S    
O16   C8    1.299917 A    
C109  O102  1.397857 S    
C22   C98   1.492438 S    
O7    Cr3   1.974324 S    
N11   O90   1.300951 A    
C91   C95   1.410373 A    
C46   C50   1.401211 A    
N16   O100  1.300861 A    
C35   C36   1.395382 A    
C93   C97   1.402500 A    
C89   N5    1.433610 S    
N10   O88   1.295830 A    
C106  O79   1.224531 D    
Cr2   O50   2.023399 S    
C108  O84   1.390641 S    
C42   H10   1.070477 S    
N17   O110  1.292224 A    
O8    Cr4   1.958259 S    
C83   H15   1.078113 S    
C2    C51   1.477823 S    
C8    C27   1.459314 S    
O38   C18   1.262915 A    
O25   Cr1   2.095831 S    
C58   C62   1.431180 A    
C33   C101  1.455526 S    
C14   O34   1.302648 A    
C32   C40   1.476616 S    
C65   N17   1.444190 S    
C114  O120  1.400834 S    
C65   C66   1.391091 A    
N8    O75   1.300999 A    
C45   N9    1.434076 S    
N5    O70   1.300743 A    
O10   Cr6   2.088468 S    
O4    Cr4   2.084490 S    
O84   H24   1.012243 S    
C82   H14   1.081027 S    
C42   C46   1.394364 A    
C92   C96   1.400753 A    
C27   C31   1.383770 A    
O82   H23   1.013583 S    
N17   O109  1.297259 A    
C44   C64   1.373535 A    
C112  O107  1.221126 D    
