data_mof_unit_25123.cif
_audit_creation_date              2012-12-10T17:03:37-0500
_audit_creation_method            fapswitch 2.2
_symmetry_space_group_name_H-M    P1
_symmetry_Int_Tables_number       1
_space_group_crystal_system       triclinic
_cell_length_a                    10.018878
_cell_length_b                    10.736698
_cell_length_c                    13.129615
_cell_angle_alpha                 89.937969
_cell_angle_beta                  70.166769
_cell_angle_gamma                 89.990373
_cell_volume                      1328.57286332

loop_
_atom_site_label
_atom_site_type_symbol
_atom_type_description
_atom_site_fract_x
_atom_site_fract_y
_atom_site_fract_z
_atom_type_partial_charge
C1    C     C_R   0.498992 0.737350 0.502584 0.939324
C2    C     C_R   0.370417 0.482026 0.821767 -0.214713
C3    C     C_2   0.610080 0.067063 0.505582 -0.170072
C4    C     C_R   0.421417 0.492862 0.703997 0.892185
C5    C     C_2   0.505972 0.131145 0.487751 -0.334371
C6    C     C_2   0.613115 0.933140 0.499497 -0.161525
C7    C     C_2   0.494295 0.868856 0.513227 -0.335079
C8    C     C_2   0.104790 0.434798 0.432729 -0.129545
C9    C     C_2   0.952528 0.428385 0.437801 -0.160206
C10   C     C_R   0.501155 0.262661 0.497670 0.923529
C11   C     C_R   0.578684 0.499741 0.295802 0.890015
C12   C     C_R   0.431568 0.469240 0.984771 0.064387
C13   C     C_R   0.773461 0.371119 0.019829 0.500752
C14   C     C_R   0.625720 0.481205 0.179555 -0.141090
C15   C     C_R   0.237239 0.531540 0.881106 -0.238799
C16   C     C_R   0.198064 0.547460 0.992408 0.536088
C17   C     C_R   0.294789 0.515670 0.044331 -0.353573
C18   C     C_3   0.928903 0.208950 0.014913 0.054687
C19   C     C_3   0.067701 0.228403 0.037426 -0.292103
C20   C     C_3   0.105081 0.114580 0.092107 -1.002036
C21   C     C_3   0.065760 0.699984 0.107660 0.045553
C22   C     C_3   0.989180 0.676750 0.228379 -0.307079
C23   C     C_R   0.461305 0.437601 0.875558 0.087968
C24   C     C_3   0.990454 0.792214 0.295609 -0.963867
C25   C     C_R   0.540228 0.453940 0.029962 0.048798
C26   C     C_R   0.666954 0.388537 0.972821 0.050877
C27   C     C_R   0.683246 0.339903 0.870719 -0.216335
C28   C     C_R   0.581880 0.363922 0.822745 -0.193654
C29   C     C_R   0.527652 0.506688 0.129207 -0.262771
C30   C     C_R   0.751403 0.418276 0.124140 -0.260342
H1    H     H_    0.829067 0.401954 0.163253 0.169720
H2    H     H_    0.439074 0.565998 0.171155 0.164883
H3    H     H_    0.165079 0.562283 0.840636 0.185390
H4    H     H_    0.259200 0.524440 0.131218 0.146567
H5    H     H_    0.598328 0.322853 0.744222 0.169250
H6    H     H_    0.695958 0.112960 0.523875 0.172161
H7    H     H_    0.941900 0.127595 0.960154 0.160078
H8    H     H_    0.841916 0.184056 0.091578 0.114758
H9    H     H_    0.155204 0.246643 0.959946 0.236809
H10   H     H_    0.057781 0.310501 0.090826 0.227076
H11   H     H_    0.020616 0.096590 0.171156 0.264064
H12   H     H_    0.423890 0.088353 0.463000 0.150220
H13   H     H_    0.206473 0.131567 0.106635 0.271340
H14   H     H_    0.117781 0.031157 0.039674 0.262912
H15   H     H_    0.007755 0.773682 0.080222 0.163633
H16   H     H_    0.174369 0.737639 0.094298 0.128122
H17   H     H_    0.877535 0.650001 0.241604 0.247853
H18   H     H_    0.041272 0.598924 0.256099 0.216590
H19   H     H_    0.101253 0.821086 0.283508 0.264337
H20   H     H_    0.936624 0.770755 0.382700 0.265002
H21   H     H_    0.933528 0.870085 0.272418 0.260732
H22   H     H_    0.714686 0.887490 0.484637 0.173330
H23   H     H_    0.390307 0.911550 0.535231 0.150459
H24   H     H_    0.181851 0.380267 0.370679 0.162136
H25   H     H_    0.074612 0.544308 0.561673 0.164459
H26   H     H_    0.926410 0.362473 0.384860 0.158559
H27   H     H_    0.878370 0.566627 0.543807 0.169114
H28   H     H_    0.775441 0.285003 0.826619 0.185103
N1    N     N_2   0.148270 0.498670 0.498870 -0.185848
N2    N     N_2   0.852610 0.498640 0.498840 -0.188982
O1    O     O_R   0.386950 0.680940 0.500020 -0.615946
O2    O     O_3   0.062427 0.589914 0.048996 -0.642370
O3    O     O_R   0.613110 0.680900 0.499980 -0.611588
O4    O     O_R   0.330780 0.500000 0.653640 -0.608093
O5    O     O_R   0.556930 0.499960 0.653610 -0.606844
O6    O     O_R   0.386890 0.319100 0.500020 -0.609139
O7    O     O_R   0.613050 0.319060 0.499980 -0.619276
O8    O     O_R   0.443070 0.500040 0.346390 -0.610553
O9    O     O_R   0.669220 0.500000 0.346360 -0.623272
O10   O     O_3   0.900856 0.314636 0.960529 -0.645301
Zn1   Zn    Zn3+2 0.349000 0.500030 0.500020 0.941227
Zn2   Zn    Zn3+2 0.651000 0.499970 0.499980 0.924321

loop_
_geom_bond_atom_site_label_1
_geom_bond_atom_site_label_2
_ccdc_geom_bond_type
C12   C17   A    
C18   O10   S    
O9    Zn2   S    
C2    C4    S    
C5    H12   S    
C11   O9    A    
C6    C7    D    
H25   N1    S    
O5    Zn2   S    
C4    O4    A    
C22   H18   S    
C19   C20   S    
C12   C25   A    
C3    C6    S    
O1    Zn1   S    
C24   H21   S    
C22   H17   S    
C18   H8    S    
C5    C10   S    
C9    H26   S    
C10   O7    A    
C21   C22   S    
O3    Zn2   S    
C24   H20   S    
C2    C15   A    
C12   C23   A    
C26   C27   A    
C4    O5    A    
C16   O2    S    
C3    H6    S    
C14   C30   A    
O8    Zn1   S    
C1    O3    A    
C20   H14   S    
C18   H7    S    
C13   O10   S    
C20   H11   S    
C29   H2    S    
C21   H15   S    
C2    C23   A    
C10   O6    A    
C8    N1    D    
C25   C29   A    
C30   H1    S    
C27   H28   S    
C11   C14   S    
C22   C24   S    
C13   C26   A    
C21   O2    S    
C23   C28   A    
C17   H4    S    
C7    H23   S    
C14   C29   A    
C15   C16   A    
C21   H16   S    
C13   C30   A    
C24   H19   S    
C20   H13   S    
C11   O8    A    
C19   H9    S    
C18   C19   S    
C19   H10   S    
O4    Zn1   S    
C8    H24   S    
C27   C28   A    
N2    Zn2   S    
C16   C17   A    
H27   N2    S    
O7    Zn2   S    
C6    H22   S    
C25   C26   A    
C1    C7    S    
C15   H3    S    
O6    Zn1   S    
C28   H5    S    
N1    Zn1   S    
C8    C9    S    
C3    C5    D    
C9    N2    D    
C1    O1    A    
