data_mof_unit_63272.cif
_audit_creation_date              2012-12-10T21:21:43-0500
_audit_creation_method            fapswitch 2.2
_symmetry_space_group_name_H-M    P1
_symmetry_Int_Tables_number       1
_space_group_crystal_system       triclinic
_cell_length_a                    17.524403
_cell_length_b                    16.717599
_cell_length_c                    23.418032
_cell_angle_alpha                 89.829061
_cell_angle_beta                  90.261542
_cell_angle_gamma                 89.946899
_cell_volume                      6860.5807612

loop_
_atom_site_label
_atom_site_type_symbol
_atom_type_description
_atom_site_fract_x
_atom_site_fract_y
_atom_site_fract_z
_atom_type_partial_charge
C1    C     C_R   0.353007 0.500025 0.499326 0.883347
C2    C     C_R   0.538329 0.559086 0.701789 -0.250374
C3    C     C_R   0.460960 0.441321 0.238694 -0.090847
C4    C     C_R   0.539452 0.560384 0.760991 -0.091417
C5    C     C_R   0.503040 0.498203 0.208550 0.275799
C6    C     C_R   0.499036 0.502651 0.791542 0.277256
C7    C     C_R   0.846777 0.572313 0.477773 -0.148453
C8    C     C_R   0.152412 0.427221 0.482473 -0.154203
C9    C     C_R   0.152560 0.572510 0.479543 -0.151934
C10   C     C_R   0.847576 0.427141 0.482893 -0.150758
C11   C     C_R   0.768541 0.572593 0.486290 -0.173685
C12   C     C_R   0.646977 0.499981 0.499226 0.879931
C13   C     C_R   0.230763 0.427218 0.490912 -0.181956
C14   C     C_R   0.230920 0.572749 0.487985 -0.191733
C15   C     C_R   0.769337 0.427180 0.491393 -0.189891
C16   C     C_R   0.729458 0.499968 0.493218 -0.040175
C17   C     C_R   0.270406 0.500041 0.493675 -0.037783
C18   C     C_R   0.885732 0.499642 0.476090 0.158170
C19   C     C_R   0.113890 0.499800 0.476707 0.158742
C20   C     C_R   0.501742 0.500189 0.389207 0.910112
C21   C     C_R   0.498377 0.499808 0.610823 0.911486
C22   C     C_1   0.965933 0.499744 0.472466 -0.054349
C23   C     C_R   0.546181 0.555633 0.237418 -0.121737
C24   C     C_1   0.033675 0.499795 0.472672 -0.054493
C25   C     C_R   0.451597 0.832513 0.463328 -0.253886
C26   C     C_R   0.548341 0.167463 0.536675 -0.253450
C27   C     C_R   0.548558 0.832141 0.536507 -0.257594
C28   C     C_R   0.451427 0.167882 0.463460 -0.257518
C29   C     C_R   0.452444 0.748221 0.464022 0.041090
C30   C     C_R   0.547517 0.251756 0.535992 0.041547
C31   C     C_R   0.547667 0.747856 0.535879 0.027204
C32   C     C_R   0.452338 0.252167 0.464102 0.027831
C33   C     C_R   0.500060 0.875563 0.499922 0.155478
C34   C     C_R   0.457093 0.443846 0.763132 -0.122523
C35   C     C_R   0.499893 0.124438 0.500055 0.155380
C36   C     C_1   0.499997 0.963410 0.499961 -0.032374
C37   C     C_1   0.499941 0.036591 0.500007 -0.032286
C38   C     C_R   0.565140 0.480417 0.880280 0.510891
C39   C     C_R   0.437310 0.521431 0.119765 0.510712
C40   C     C_R   0.435856 0.526597 0.880704 0.511448
C41   C     C_R   0.566526 0.475033 0.119354 0.511165
C42   C     C_R   0.434882 0.525989 0.940322 -0.019402
C43   C     C_R   0.567612 0.475983 0.059735 -0.019199
C44   C     C_R   0.501120 0.501796 0.970033 -0.020211
C45   C     C_R   0.547206 0.557119 0.296758 0.128350
C46   C     C_R   0.501414 0.500281 0.030022 -0.020205
C47   C     C_R   0.567023 0.478995 0.939898 -0.018430
C48   C     C_R   0.435507 0.523068 0.060152 -0.018293
C49   C     C_R   0.369538 0.548660 0.970726 -0.153305
C50   C     C_R   0.632990 0.453412 0.029328 -0.153378
C51   C     C_R   0.369849 0.547214 0.030160 -0.154829
C52   C     C_R   0.632706 0.454929 0.969892 -0.154728
C53   C     C_R   0.455511 0.441891 0.703800 0.128829
C54   C     C_R   0.503725 0.500390 0.327246 -0.092866
C55   C     C_R   0.497136 0.499685 0.672842 -0.095203
C56   C     C_R   0.461463 0.442240 0.297906 -0.250935
H1    H     H_    0.318019 0.567473 0.948746 0.194762
H2    H     H_    0.425339 0.399971 0.787441 0.163169
H3    H     H_    0.428058 0.398214 0.320855 0.159407
H4    H     H_    0.570401 0.603889 0.678542 0.160006
H5    H     H_    0.427886 0.396653 0.216144 0.148412
H6    H     H_    0.571627 0.606076 0.783213 0.147779
H7    H     H_    0.876956 0.628515 0.473203 0.140464
H8    H     H_    0.121827 0.370932 0.481028 0.139646
H9    H     H_    0.122093 0.628751 0.475809 0.138999
H10   H     H_    0.878389 0.370904 0.482327 0.138986
H11   H     H_    0.738783 0.629390 0.487210 0.167707
H12   H     H_    0.684496 0.434559 0.051308 0.194709
H13   H     H_    0.260169 0.370458 0.495047 0.164755
H14   H     H_    0.260466 0.629577 0.489747 0.158130
H15   H     H_    0.740223 0.370491 0.496452 0.158590
H16   H     H_    0.413349 0.863759 0.434435 0.145536
H17   H     H_    0.586559 0.136199 0.565580 0.145860
H18   H     H_    0.586831 0.863095 0.565369 0.144131
H19   H     H_    0.413160 0.136948 0.434584 0.143827
H20   H     H_    0.414924 0.715507 0.435695 0.129364
H21   H     H_    0.585018 0.284449 0.564344 0.130261
H22   H     H_    0.585220 0.714859 0.564199 0.120846
H23   H     H_    0.414800 0.285185 0.435781 0.120087
H24   H     H_    0.318586 0.565031 0.052463 0.194129
H25   H     H_    0.683971 0.437125 0.947588 0.194170
H26   H     H_    0.579247 0.598823 0.213470 0.164110
I1    I     I_    0.620217 0.642642 0.336043 -0.337468
I2    I     I_    0.384487 0.353784 0.665421 -0.332347
N1    N     N_R   0.500203 0.503746 0.852264 -0.354351
N2    N     N_R   0.502137 0.497773 0.147802 -0.354049
N3    N     N_R   0.500000 0.707230 0.500000 -0.088985
N4    N     N_R   0.500000 0.292770 0.500000 -0.089054
O1    O     O_R   0.389110 0.566570 0.500000 -0.628474
O2    O     O_2   0.375217 0.543927 0.149627 -0.553611
O3    O     O_2   0.373273 0.549936 0.851225 -0.546431
O4    O     O_2   0.629012 0.451372 0.148818 -0.547051
O5    O     O_R   0.610890 0.433430 0.500000 -0.628247
O6    O     O_R   0.610890 0.566570 0.500000 -0.617724
O7    O     O_R   0.389110 0.433430 0.500000 -0.616847
O8    O     O_R   0.499970 0.566560 0.416150 -0.595688
O9    O     O_R   0.500030 0.433440 0.583850 -0.594434
O10   O     O_R   0.500030 0.566560 0.583850 -0.625296
O11   O     O_R   0.499970 0.433440 0.416150 -0.626122
O12   O     O_2   0.627238 0.458001 0.850395 -0.553074
Zn1   Zn    Zn3+2 0.500000 0.588860 0.500000 0.970177
Zn2   Zn    Zn3+2 0.500000 0.411140 0.500000 0.970867

loop_
_geom_bond_atom_site_label_1
_geom_bond_atom_site_label_2
_ccdc_geom_bond_type
C8    C13   A    
C23   C45   A    
C23   H26   S    
C14   H14   S    
C53   C55   A    
C33   C36   S    
C29   H20   S    
C27   C33   A    
C7    C11   A    
C41   N2    A    
C6    N1    S    
C53   I2    S    
C36   C37   T    
C35   C37   S    
C2    C55   A    
C2    H4    S    
C15   C16   A    
C32   N4    A    
C4    H6    S    
C26   H17   S    
C49   H1    S    
C3    C56   A    
C51   H24   S    
N3    Zn1   S    
C30   H21   S    
C9    C19   A    
C48   C51   A    
C12   C16   S    
O6    Zn1   S    
C44   C46   A    
C49   C51   A    
C50   C52   A    
C27   H18   S    
C39   O2    S    
O9    Zn2   S    
C44   C47   A    
C40   C42   A    
C20   O8    A    
O8    Zn1   S    
C41   C43   A    
C14   C17   A    
C12   O6    A    
C45   I1    S    
C42   C44   A    
C11   H11   S    
C46   C48   A    
C3    H5    S    
C25   C29   A    
C54   C56   A    
C8    C19   A    
C31   N3    A    
C38   N1    A    
C27   C31   A    
C28   C32   A    
C28   C35   A    
C20   C54   S    
C21   C55   S    
C6    C34   A    
C40   N1    A    
C2    C4    A    
C9    C14   A    
C21   O9    A    
C11   C16   A    
C5    C23   A    
C1    O7    A    
C7    C18   A    
C41   O4    S    
C25   H16   S    
C7    H7    S    
C38   C47   A    
C8    H8    S    
C5    N2    S    
C4    C6    A    
C45   C54   A    
C26   C30   A    
C22   C24   T    
C12   O5    A    
C30   N4    A    
C31   H22   S    
C1    O1    A    
O1    Zn1   S    
C18   C22   S    
C3    C5    A    
O5    Zn2   S    
N4    Zn2   S    
O7    Zn2   S    
C43   C50   A    
C47   C52   A    
O10   Zn1   S    
C15   H15   S    
C1    C17   S    
C56   H3    S    
C13   C17   A    
C10   C15   A    
C19   C24   S    
C10   H10   S    
C32   H23   S    
C21   O10   A    
C38   O12   S    
C20   O11   A    
C13   H13   S    
C10   C18   A    
C40   O3    S    
C52   H25   S    
C43   C46   A    
C9    H9    S    
C29   N3    A    
C42   C49   A    
C26   C35   A    
O11   Zn2   S    
C34   C53   A    
C34   H2    S    
C39   N2    A    
C28   H19   S    
C50   H12   S    
C25   C33   A    
C39   C48   A    
