data_mof_unit_22819.cif
_audit_creation_date              2012-12-10T18:42:56-0500
_audit_creation_method            fapswitch 2.2
_symmetry_space_group_name_H-M    P1
_symmetry_Int_Tables_number       1
_space_group_crystal_system       triclinic
_cell_length_a                    18.114453
_cell_length_b                    18.100844
_cell_length_c                    18.077563
_cell_angle_alpha                 120.028573
_cell_angle_beta                  90.013057
_cell_angle_gamma                 59.967084
_cell_volume                      4187.88203185

loop_
_atom_site_label
_atom_site_type_symbol
_atom_type_description
_atom_site_fract_x
_atom_site_fract_y
_atom_site_fract_z
_atom_type_partial_charge
C1    C     C_R   0.891300 0.216831 0.608361 0.890316
C2    C     C_3   0.551699 0.897601 0.948510 -0.089154
C3    C     C_3   0.412084 0.034105 0.014179 -0.279952
C4    C     C_3   0.587923 0.965896 0.985791 -0.280078
C5    C     C_3   0.983379 0.429992 0.445908 0.319725
C6    C     C_3   0.016368 0.570160 0.553949 0.343565
C7    C     C_3   0.077960 0.404647 0.447752 0.303762
C8    C     C_3   0.921748 0.595531 0.552099 0.281923
C9    C     C_3   0.050993 0.500926 0.448986 -0.363704
C10   C     C_3   0.948785 0.499213 0.550902 -0.382534
C11   C     C_3   0.955820 0.526328 0.447481 0.204636
C12   C     C_R   0.108818 0.783141 0.391619 0.893998
C13   C     C_3   0.043942 0.473803 0.552319 0.272688
C14   C     C_3   0.979635 0.034355 0.446645 -0.295054
C15   C     C_3   0.020889 0.965514 0.553195 -0.248761
C16   C     C_R   0.608534 0.783144 0.891638 0.850963
C17   C     C_R   0.391467 0.216856 0.108352 0.851099
C18   C     C_3   0.955934 0.964151 0.449544 -0.272517
C19   C     C_3   0.044588 0.035730 0.550322 -0.299723
C20   C     C_3   0.051920 0.897395 0.448885 -0.127804
C21   C     C_3   0.948506 0.102535 0.551032 -0.144662
C22   C     C_3   0.075298 0.966377 0.446044 0.477470
C23   C     C_3   0.517536 0.404350 0.447481 -0.172879
C24   C     C_3   0.925238 0.033444 0.553801 0.542119
C25   C     C_3   0.979901 0.431238 0.986056 -0.457344
C26   C     C_3   0.019718 0.569103 0.014388 -0.457393
C27   C     C_3   0.955472 0.529284 0.078785 0.448320
C28   C     C_3   0.044169 0.471055 0.921672 0.451800
C29   C     C_3   0.051095 0.501035 0.051611 -0.214692
C30   C     C_3   0.948556 0.499278 0.948774 -0.216076
C31   C     C_3   0.075416 0.404353 0.958689 0.456735
C32   C     C_3   0.924197 0.595988 0.041749 0.456153
C33   C     C_3   0.549699 0.407025 0.922759 0.610448
C34   C     C_3   0.482471 0.595662 0.552515 -0.178083
C35   C     C_3   0.450074 0.593506 0.077648 0.605631
C36   C     C_3   0.445495 0.476918 0.957263 -0.339472
C37   C     C_3   0.554302 0.523639 0.043155 -0.340115
C38   C     C_3   0.449170 0.499571 0.051134 -0.091873
C39   C     C_3   0.550686 0.500882 0.949213 -0.094409
C40   C     C_R   0.608325 0.499979 0.891506 0.870717
C41   C     C_R   0.391648 0.500147 0.108607 0.870464
C42   C     C_3   0.553740 0.427822 0.015830 -0.280528
C43   C     C_3   0.446084 0.572685 0.984550 -0.280386
C44   C     C_R   0.891483 0.499853 0.608333 0.993189
C45   C     C_3   0.484343 0.964879 0.919852 -0.333379
C46   C     C_R   0.108464 0.500191 0.391646 0.998330
C47   C     C_R   0.891578 0.499792 0.891501 0.925275
C48   C     C_R   0.108307 0.500321 0.108627 0.925331
C49   C     C_R   0.608450 0.499904 0.608216 0.790518
C50   C     C_R   0.391551 0.500102 0.391783 0.792495
C51   C     C_3   0.587152 0.429796 0.446543 -0.131978
C52   C     C_3   0.412854 0.570217 0.553453 -0.123506
C53   C     C_3   0.517229 0.525924 0.447636 -0.165053
C54   C     C_3   0.482777 0.474088 0.552360 -0.158114
C55   C     C_3   0.448561 0.500417 0.449399 0.042425
C56   C     C_3   0.515665 0.035121 0.080118 -0.333256
C57   C     C_3   0.551444 0.499595 0.550597 0.040532
C58   C     C_3   0.833134 0.567895 0.167278 -0.124784
C59   C     C_3   0.166667 0.432827 0.833906 -0.147179
C60   C     C_3   0.158412 0.229524 0.841505 -0.248320
C61   C     C_3   0.841202 0.770826 0.158894 -0.246210
C62   C     C_3   0.592727 0.237432 0.833155 -0.183197
C63   C     C_3   0.406504 0.763375 0.167867 -0.152589
C64   C     C_3   0.605283 0.997617 0.835918 -0.310697
C65   C     C_3   0.394729 0.002414 0.164070 -0.303400
C66   C     C_3   0.175665 0.232990 0.401927 -0.157462
C67   C     C_3   0.519426 0.033888 0.958617 0.623206
C68   C     C_3   0.823191 0.766635 0.596975 -0.159896
C69   C     C_3   0.015302 0.288071 0.304181 -0.152827
C70   C     C_3   0.983676 0.712724 0.695496 -0.104459
C71   C     C_3   0.480580 0.966115 0.041355 0.622391
C72   C     C_3   0.448307 0.102400 0.051463 -0.089672
H1    H     H_    0.530250 0.547180 0.403667 0.153864
H2    H     H_    0.598792 0.543786 0.077314 0.162904
H3    H     H_    0.596541 0.368258 0.028711 0.179087
H4    H     H_    0.403288 0.632202 0.971619 0.179771
H5    H     H_    0.659569 0.372167 0.403526 0.158799
H6    H     H_    0.340438 0.627850 0.596472 0.163229
H7    H     H_    0.530797 0.325988 0.403384 0.144524
H8    H     H_    0.469212 0.674024 0.596611 0.145142
H9    H     H_    0.473571 0.934111 0.853345 0.163236
H10   H     H_    0.526439 0.065889 0.146624 0.163325
H11   H     H_    0.339691 0.063734 0.027375 0.177701
H12   H     H_    0.469759 0.452831 0.596329 0.154484
H13   H     H_    0.660316 0.936266 0.972595 0.177441
H14   H     H_    0.122246 0.069231 0.393440 0.339367
H15   H     H_    0.778185 0.998314 0.648620 0.357072
H16   H     H_    0.848285 0.488423 0.124051 0.146794
H17   H     H_    0.787268 0.618011 0.146605 0.142863
H18   H     H_    0.796577 0.603521 0.237806 0.234213
H19   H     H_    0.211940 0.384020 0.855916 0.147228
H20   H     H_    0.151092 0.512548 0.876326 0.155599
H21   H     H_    0.204158 0.395968 0.763362 0.199371
H22   H     H_    0.143042 0.249664 0.791969 0.193335
H23   H     H_    0.920035 0.933481 0.408376 0.184246
H24   H     H_    0.109841 0.216032 0.859564 0.165425
H25   H     H_    0.226749 0.154939 0.807720 0.187884
H26   H     H_    0.889740 0.784334 0.140793 0.164447
H27   H     H_    0.856621 0.750698 0.208433 0.194654
H28   H     H_    0.772854 0.845398 0.192692 0.187990
H29   H     H_    0.520847 0.264716 0.843956 0.130034
H30   H     H_    0.617246 0.219836 0.882475 0.153448
H31   H     H_    0.633092 0.163381 0.764404 0.201020
H32   H     H_    0.384530 0.779115 0.116933 0.146680
H33   H     H_    0.477884 0.737378 0.159850 0.123543
H34   H     H_    0.080493 0.066401 0.591474 0.187151
H35   H     H_    0.363801 0.838285 0.235870 0.235531
H36   H     H_    0.587801 0.945083 0.787632 0.170594
H37   H     H_    0.670054 0.951879 0.844221 0.170385
H38   H     H_    0.615718 0.033464 0.805766 0.176541
H39   H     H_    0.329956 0.048165 0.155776 0.169458
H40   H     H_    0.412230 0.054934 0.212343 0.169262
H41   H     H_    0.384289 0.966581 0.194233 0.184448
H42   H     H_    0.112047 0.246437 0.430070 0.178361
H43   H     H_    0.216870 0.229876 0.447038 0.224793
H44   H     H_    0.215006 0.154999 0.336020 0.145712
H45   H     H_    0.963102 0.063507 0.403437 0.188157
H46   H     H_    0.782726 0.767873 0.551052 0.238615
H47   H     H_    0.886474 0.754092 0.569315 0.193463
H48   H     H_    0.782733 0.845129 0.662361 0.130166
H49   H     H_    0.055030 0.308981 0.282311 0.201800
H50   H     H_    0.972154 0.281239 0.261197 0.180761
H51   H     H_    0.062806 0.210139 0.290670 0.147936
H52   H     H_    0.025839 0.722523 0.739050 0.183065
H53   H     H_    0.945636 0.690547 0.717913 0.189251
H54   H     H_    0.934760 0.789581 0.707594 0.142254
H55   H     H_    0.799848 0.536722 0.400000 0.366818
H56   H     H_    0.037450 0.936344 0.596391 0.196149
H57   H     H_    0.241610 0.353583 0.608240 0.360083
H58   H     H_    0.962691 0.376045 0.973518 0.192178
H59   H     H_    0.036928 0.624297 0.026930 0.192081
H60   H     H_    0.400959 0.456850 0.923125 0.161673
O1    O     O_3   0.750010 0.499980 0.749990 -0.524137
O2    O     O_R   0.305750 0.265450 0.132730 -0.650052
O3    O     O_R   0.867280 0.265410 0.571220 -0.648154
O4    O     O_R   0.132720 0.734590 0.428780 -0.642218
O5    O     O_R   0.571230 0.734580 0.867270 -0.627021
O6    O     O_R   0.428770 0.265420 0.132730 -0.627248
O7    O     O_R   0.694200 0.438470 0.867270 -0.605953
O8    O     O_R   0.305800 0.561530 0.132730 -0.606096
O9    O     O_R   0.867340 0.561470 0.694210 -0.610181
O10   O     O_R   0.132660 0.438530 0.305790 -0.611860
O11   O     O_R   0.867310 0.438430 0.867270 -0.673532
O12   O     O_3   0.249990 0.500020 0.250010 -0.527028
O13   O     O_R   0.132690 0.561570 0.132730 -0.674014
O14   O     O_R   0.694200 0.438520 0.571220 -0.641746
O15   O     O_R   0.305800 0.561480 0.428780 -0.637267
O16   O     O_R   0.867340 0.561440 0.867270 -0.584302
O17   O     O_R   0.132660 0.438560 0.132730 -0.583846
O18   O     O_R   0.571190 0.561530 0.694210 -0.643108
O19   O     O_R   0.428810 0.438470 0.305790 -0.644752
O20   O     O_2   0.256805 0.848620 0.384971 -0.269980
O21   O     O_2   0.180373 0.863619 0.276273 -0.270803
O22   O     O_3   0.178081 0.023449 0.399911 -0.560117
O23   O     O_R   0.571190 0.561490 0.867270 -0.650923
O24   O     O_2   0.820281 0.135893 0.722974 -0.276737
O25   O     O_2   0.743677 0.146372 0.612847 -0.298771
O26   O     O_3   0.828154 0.971491 0.599170 -0.573987
O27   O     O_3   0.913498 0.562450 0.165334 -0.557513
O28   O     O_3   0.086526 0.437784 0.835229 -0.557659
O29   O     O_3   0.159006 0.306580 0.919606 -0.606182
O30   O     O_3   0.840601 0.693748 0.080822 -0.606053
O31   O     O_3   0.605265 0.310164 0.837615 -0.556305
O32   O     O_3   0.394129 0.690294 0.162800 -0.557473
O33   O     O_3   0.534914 0.078135 0.920027 -0.608537
O34   O     O_R   0.428810 0.438510 0.132730 -0.651578
O35   O     O_3   0.465085 0.921882 0.079954 -0.609796
O36   O     O_3   0.161981 0.307824 0.387309 -0.610959
O37   O     O_3   0.837754 0.692309 0.612684 -0.614296
O38   O     O_3   0.959392 0.360516 0.395991 -0.586488
O39   O     O_3   0.040507 0.639443 0.604010 -0.559981
O40   O     O_2   0.900889 0.646730 0.385605 -0.290633
O41   O     O_2   0.951275 0.466068 0.277880 -0.278844
O42   O     O_3   0.794478 0.596007 0.404176 -0.544046
O43   O     O_2   0.051330 0.532990 0.720847 -0.266456
O44   O     O_2   0.099616 0.352777 0.613422 -0.344913
O45   O     O_R   0.867310 0.438490 0.571220 -0.615671
O46   O     O_3   0.206442 0.402715 0.591876 -0.536489
O47   O     O_R   0.132690 0.561510 0.428780 -0.606753
O48   O     O_R   0.867280 0.265380 0.694210 -0.603213
O49   O     O_R   0.132720 0.734620 0.305790 -0.605738
O50   O     O_R   0.694250 0.734550 0.867270 -0.650082
S1    S     S_3+6 0.176347 0.921149 0.373206 0.028826
S2    S     S_3+6 0.824987 0.076637 0.625973 0.020901
S3    S     S_3+6 0.901499 0.558707 0.375226 0.038123
S4    S     S_3+6 0.099553 0.440408 0.623419 0.036455
Zn1   Zn    Zn3+2 0.618190 0.587870 0.793920 0.989526
Zn2   Zn    Zn3+2 0.381810 0.412130 0.206080 0.988848
Zn3   Zn    Zn3+2 0.793940 0.412090 0.793920 1.034364
Zn4   Zn    Zn3+2 0.206060 0.587910 0.206080 1.033775
Zn5   Zn    Zn3+2 0.793970 0.587840 0.793920 1.045441
Zn6   Zn    Zn3+2 0.206030 0.412160 0.206080 1.047071
Zn7   Zn    Zn3+2 0.793940 0.412130 0.618200 1.014414
Zn8   Zn    Zn3+2 0.206060 0.587870 0.381800 1.033289

loop_
_geom_bond_atom_site_label_1
_geom_bond_atom_site_label_2
_ccdc_geom_bond_type
C50   O15   A    
C25   C31   S    
C7    O36   S    
C31   O29   S    
C1    C21   S    
C62   H30   S    
O13   Zn4   S    
C24   S2    S    
O8    Zn4   S    
C14   C18   S    
O6    Zn2   S    
C16   O5    A    
O9    Zn5   S    
C37   H2    S    
C6    C9    S    
C54   H12   S    
O24   S2    D    
O1    Zn3   S    
C46   O10   A    
C26   C32   S    
O41   S3    D    
C42   H3    S    
C22   S1    S    
C66   H44   S    
C49   O18   A    
C18   C24   S    
C33   C42   S    
C14   C21   S    
C33   O31   S    
C5    C11   S    
C58   O27   S    
C36   H60   S    
C68   H47   S    
O12   Zn2   S    
C8    C10   S    
C1    O48   A    
C16   O50   A    
O12   Zn8   S    
C69   H51   S    
C27   O27   S    
C40   O7    A    
C47   O11   A    
C28   O28   S    
C33   C36   S    
C49   C57   S    
C27   C29   S    
O15   Zn8   S    
C67   C72   S    
C68   O37   S    
O2    Zn6   S    
C37   C42   S    
C62   O31   S    
C19   H34   S    
C65   H39   S    
C41   O8    A    
C34   C52   S    
C34   H8    S    
C15   C19   S    
C23   C51   S    
C50   O19   A    
O21   S1    D    
C44   O9    A    
C56   C72   S    
C32   O30   S    
C45   C67   S    
C34   C57   S    
C5    O38   S    
C40   O23   A    
C17   O6    A    
C51   C57   S    
O25   S2    D    
C63   H33   S    
C35   C43   S    
C52   C55   S    
C69   O38   S    
C62   H29   S    
C68   H46   S    
C70   H54   S    
O16   Zn5   S    
C9    C46   S    
C71   O35   S    
C48   O17   A    
C4    C56   S    
C18   H23   S    
C61   H27   S    
C52   H6    S    
C25   H58   S    
C52   C54   S    
C64   H36   S    
C6    O39   S    
C53   C55   S    
C2    C45   S    
C63   O32   S    
C37   C39   S    
C53   H1    S    
O19   Zn2   S    
C66   H43   S    
C29   C48   S    
C10   C44   S    
C61   O30   S    
C30   C47   S    
C19   C22   S    
C38   C41   S    
C60   H25   S    
O18   Zn1   S    
C5    C7    S    
C48   O13   A    
C26   C29   S    
O5    Zn1   S    
C39   C43   S    
C4    H13   S    
O12   Zn6   S    
C3    C45   S    
C15   C20   S    
C51   C53   S    
C2    C4    S    
C70   O39   S    
C51   H5    S    
C65   H40   S    
O4    Zn8   S    
C64   O33   S    
O3    Zn7   S    
C9    C11   S    
O49   Zn4   S    
C64   H38   S    
C12   O49   A    
C69   H49   S    
O40   S3    D    
C14   H45   S    
O10   Zn6   S    
C41   O34   A    
C12   C20   S    
C60   O29   S    
O11   Zn3   S    
C33   C39   S    
O20   S1    D    
O44   S4    D    
C58   H18   S    
O45   Zn7   S    
C34   C53   S    
C60   H24   S    
C70   H53   S    
O1    Zn7   S    
C15   C24   S    
C20   C22   S    
C15   H56   S    
C3    H11   S    
O34   Zn2   S    
C61   H28   S    
O50   Zn5   S    
C63   H35   S    
C2    C71   S    
C39   C40   S    
C2    C16   S    
C8    O37   S    
O1    Zn5   S    
C23   C54   S    
C62   H31   S    
C59   H19   S    
C35   C37   S    
C25   C30   S    
C7    C9    S    
C47   O16   A    
O17   Zn6   S    
C13   S4    S    
C66   H42   S    
C19   C21   S    
C27   C32   S    
C11   S3    S    
C65   H41   S    
C46   O47   A    
C28   C31   S    
C45   H9    S    
C50   C55   S    
C63   H32   S    
O7    Zn3   S    
C10   C13   S    
C58   H16   S    
C44   O45   A    
C4    C67   S    
C6    C8    S    
C56   H10   S    
C3    C71   S    
C23   C55   S    
C25   C27   S    
H57   O46   S    
C65   O35   S    
C26   C28   S    
C35   O32   S    
H15   O26   S    
C66   O36   S    
O48   Zn3   S    
C14   C22   S    
C28   C30   S    
C3    C72   S    
H14   O22   S    
C5    C10   S    
O42   S3    S    
O22   S1    S    
O23   Zn1   S    
C68   H48   S    
C6    C13   S    
C30   C32   S    
C61   H26   S    
C67   O33   S    
C64   H37   S    
O12   Zn4   S    
C69   H50   S    
H55   O42   S    
C8    C11   S    
C36   C38   S    
C49   O14   A    
C18   C20   S    
C59   H20   S    
C58   H17   S    
O1    Zn1   S    
O46   S4    S    
C38   C42   S    
C70   H52   S    
C7    C13   S    
O14   Zn7   S    
C17   C72   S    
C29   C31   S    
C12   O4    A    
C21   C24   S    
C17   O2    A    
C35   C38   S    
C43   H4    S    
C36   C43   S    
C59   H21   S    
C59   O28   S    
C23   H7    S    
C1    O3    A    
O26   S2    S    
O47   Zn8   S    
C26   H59   S    
C56   C71   S    
O43   S4    D    
C54   C57   S    
C60   H22   S    
