data_mof_unit_23907.cif
_audit_creation_date              2013-03-05T15:40:03-0500
_audit_creation_method            fapswitch 2.2
_symmetry_space_group_name_H-M    P1
_symmetry_Int_Tables_number       1
_space_group_crystal_system       triclinic
_cell_length_a                    7.501906
_cell_length_b                    8.681263
_cell_length_c                    10.958095
_cell_angle_alpha                 88.717093
_cell_angle_beta                  72.858751
_cell_angle_gamma                 101.232977
_cell_volume                      666.464217609

loop_
_atom_site_label
_atom_site_type_symbol
_atom_site_description
_atom_site_fract_x
_atom_site_fract_y
_atom_site_fract_z
_atom_type_partial_charge
O1    O     O_R   0.622710 0.286400 0.490790 -0.574132
O2    O     O_R   0.377290 0.713600 0.509210 -0.570985
O3    O     O_R   0.303660 0.256330 0.514730 -0.517702
O4    O     O_R   0.696340 0.743670 0.485270 -0.523086
C1    C     C_R   0.453608 0.201019 0.510629 0.833606
C2    C     C_R   0.546434 0.798928 0.489133 0.832753
O5    O     O_R   0.600900 0.509520 0.671740 -0.530051
O6    O     O_R   0.399100 0.490480 0.328260 -0.526822
O7    O     O_R   0.281840 0.479450 0.695690 -0.576459
O8    O     O_R   0.718160 0.520550 0.304310 -0.574813
C3    C     C_R   0.423911 0.486525 0.742846 0.905654
C4    C     C_R   0.574567 0.501751 0.257747 0.908400
Cu1   Cu    Cu3+1 0.688910 0.517800 0.485820 1.190013
Cu2   Cu    Cu3+1 0.311090 0.482200 0.514180 1.193142
C5    C     C_2   0.385230 0.467475 0.881502 -0.281396
C6    C     C_2   0.608980 0.490787 0.120638 -0.271789
C7    C     C_2   0.510767 0.422725 0.933647 0.309706
C8    C     C_2   0.470701 0.418068 0.073660 0.329781
H1    H     H_    0.750014 0.544000 0.056663 0.138234
H2    H     H_    0.251457 0.490714 0.942267 0.140207
C9    C     C_2   0.434715 0.035968 0.537613 0.098792
C10   C     C_2   0.565294 0.963874 0.461678 0.099200
N1    N     N_2   0.027170 0.455360 0.535550 0.021743
N2    N     N_2   0.972830 0.544640 0.464450 0.019800
O9    O     O_3   0.293779 0.343005 0.154917 -0.632105
H3    H     H_    0.219003 0.284893 0.103049 0.354349
O10   O     O_3   0.677935 0.387055 0.857105 -0.647925
H4    H     H_    0.741215 0.341913 0.912739 0.349994
N3    N     N_R   0.303412 0.963587 0.659594 0.129416
O11   O     O_R   0.357124 0.873838 0.732679 -0.347710
O12   O     O_R   0.146201 0.012615 0.708791 -0.250347
N4    N     N_R   0.695704 0.035549 0.339183 0.131880
O13   O     O_R   0.642364 0.126887 0.267073 -0.351097
O14   O     O_R   0.850707 0.984005 0.288443 -0.252288
N5    N     N_R   0.936996 0.298485 0.545817 0.265772
O15   O     O_R   0.864055 0.221981 0.658493 -0.272905
O16   O     O_R   0.975172 0.218858 0.445604 -0.247809
N6    N     N_R   0.074624 0.698898 0.441693 0.260175
O17   O     O_R   0.171233 0.754647 0.324666 -0.303117
O18   O     O_R   0.035784 0.796436 0.529331 -0.260078

loop_
_geom_bond_atom_site_label_1
_geom_bond_atom_site_label_2
_geom_bond_distance
_ccdc_geom_bond_type
Cu2   N1    2.038621 S    
N2    N6    1.383136 S    
O7    Cu2   1.934792 S    
C9    N3    1.448087 S    
N3    O11   1.302068 A    
O3    Cu2   1.950569 S    
N5    O15   1.299409 A    
O6    C4    1.298557 A    
N1    N2    1.287325 D    
N4    O13   1.302002 A    
C7    C8    1.471954 S    
C1    C9    1.427512 S    
N3    O12   1.301460 A    
C9    C10   1.351078 D    
O5    C3    1.299945 A    
O7    C3    1.306632 A    
O2    C2    1.291969 A    
C8    O9    1.385460 S    
C10   N4    1.448256 S    
C6    H1    1.087264 S    
O1    C1    1.292228 A    
O8    C4    1.306376 A    
C6    C8    1.346791 D    
N6    O18   1.300666 A    
O4    Cu1   1.950568 S    
N1    N5    1.383588 S    
C5    H2    1.087286 S    
O2    Cu2   1.968638 S    
O1    Cu1   1.968637 S    
C7    O10   1.383837 S    
O5    Cu1   1.942641 S    
N6    O17   1.300660 A    
O4    C2    1.296001 A    
O10   H4    0.991452 S    
C5    C7    1.346906 D    
O6    Cu2   1.942640 S    
N5    O16   1.300587 A    
O9    H3    0.991339 S    
Cu1   Cu2   2.713107 S    
C3    C5    1.459557 S    
C4    C6    1.456157 S    
Cu1   N2    2.038622 S    
N4    O14   1.301648 A    
O3    C1    1.295984 A    
O8    Cu1   1.934792 S    
C2    C10   1.427464 S    
