data_mof_unit_49309.cif
_audit_creation_date              2012-12-10T16:50:05-0500
_audit_creation_method            fapswitch 2.2
_symmetry_space_group_name_H-M    P1
_symmetry_Int_Tables_number       1
_space_group_crystal_system       triclinic
_cell_length_a                    7.752087
_cell_length_b                    8.557681
_cell_length_c                    10.741951
_cell_angle_alpha                 89.376276
_cell_angle_beta                  88.110244
_cell_angle_gamma                 93.735913
_cell_volume                      710.658034798

loop_
_atom_site_label
_atom_site_type_symbol
_atom_type_description
_atom_site_fract_x
_atom_site_fract_y
_atom_site_fract_z
_atom_type_partial_charge
C1    C     C_R   0.545702 0.794705 0.493579 0.989144
C2    C     C_R   0.371256 0.380475 0.938775 0.072970
C3    C     C_R   0.513234 0.460899 0.872661 -0.126891
C4    C     C_R   0.647077 0.540607 0.936635 -0.060549
C5    C     C_R   0.626721 0.559670 0.062392 -0.226152
C6    C     C_R   0.479907 0.496644 0.127316 -0.084378
C7    C     C_2   0.570044 0.958485 0.486812 -0.347158
C8    C     C_2   0.430358 0.042064 0.485175 -0.261547
C9    C     C_R   0.503938 0.488002 0.739832 0.888848
C10   C     C_R   0.453812 0.205837 0.494865 0.984694
C11   C     C_R   0.492888 0.498063 0.260146 0.860575
C12   C     C_R   0.259028 0.264119 0.883696 -0.125837
C13   C     C_R   0.102101 0.214685 0.944193 -0.177771
C14   C     C_R   0.061465 0.264783 0.063430 0.006750
C15   C     C_R   0.185519 0.356972 0.126227 -0.240243
C16   C     C_R   0.343888 0.413325 0.065834 0.088714
H1    H     H_    0.015727 0.126836 0.902790 0.207622
H2    H     H_    0.151637 0.385222 0.220488 0.203560
H3    H     H_    0.702044 0.009756 0.488598 0.186199
H4    H     H_    0.298863 0.990348 0.481652 0.222283
H5    H     H_    0.998946 0.352281 0.444560 0.222763
N1    N     N_2   0.950330 0.457950 0.466250 -0.185283
N2    N     N_2   0.049670 0.542050 0.533750 -0.177797
O1    O     O_R   0.389250 0.738570 0.508280 -0.611394
O2    O     O_R   0.678390 0.711630 0.486650 -0.621321
O3    O     O_R   0.355400 0.513470 0.694050 -0.644420
O4    O     O_R   0.644540 0.486530 0.672420 -0.571157
O5    O     O_R   0.321610 0.288370 0.513350 -0.635978
O6    O     O_R   0.610750 0.261430 0.491720 -0.620010
O7    O     O_R   0.355460 0.513470 0.327580 -0.647860
O8    O     O_R   0.644600 0.486530 0.305950 -0.602550
Zn1   Zn    Zn3+2 0.306930 0.517990 0.514440 0.985157
Zn2   Zn    Zn3+2 0.693070 0.482010 0.485560 1.020240
C17   C     C_2   0.815728 0.597412 0.879247 0.988464
O9    O     O_2   0.872059 0.732106 0.896110 -0.576717
O10   O     O_R   0.917527 0.492355 0.816808 -0.777870
H6    H     H_    0.037312 0.540094 0.793426 0.362533
C18   C     C_2   0.014063 0.701919 0.532383 1.148070
O11   O     O_2   0.028739 0.776988 0.434553 -0.648955
O12   O     O_R   0.969164 0.775124 0.642975 -0.774298
H7    H     H_    0.942435 0.888223 0.629272 0.346624
C19   C     C_2   0.317428 0.164989 0.780568 0.954072
O13   O     O_2   0.469396 0.135888 0.770688 -0.574210
O14   O     O_R   0.199162 0.092128 0.700667 -0.783514
H8    H     H_    0.083978 0.141563 0.700545 0.313217
C20   C     C_2   0.894062 0.209720 0.125056 0.927224
O15   O     O_2   0.774793 0.156998 0.062837 -0.590950
O16   O     O_R   0.872228 0.216071 0.254275 -0.824291
H9    H     H_    0.753619 0.171669 0.284243 0.351526
H10   H     H_    0.730742 0.620882 0.111454 0.187851

loop_
_geom_bond_atom_site_label_1
_geom_bond_atom_site_label_2
_ccdc_geom_bond_type
C15   H2    S    
O7    Zn1   S    
O1    Zn1   S    
O3    Zn1   S    
C3    C9    S    
N2    C18   S    
C2    C16   A    
C17   O10   S    
C14   C15   A    
C13   H1    S    
C2    C12   A    
N2    Zn1   S    
O8    Zn2   S    
C2    C3    A    
C11   O8    A    
C7    C8    D    
C14   C20   S    
C13   C14   A    
O4    Zn2   S    
C18   O12   S    
C10   O6    A    
C8    H4    S    
C19   O14   S    
O10   H6    S    
C5    C6    A    
H5    N1    S    
O12   H7    S    
C9    O3    A    
C7    H3    S    
C18   O11   D    
C4    C17   S    
C5    H10   S    
C19   O13   D    
C6    C16   A    
C3    C4    A    
C20   O16   S    
O6    Zn2   S    
O5    Zn1   S    
C12   C13   A    
C9    O4    A    
C1    O1    A    
C8    C10   S    
C17   O9    D    
C20   O15   D    
C10   O5    A    
C6    C11   S    
N1    Zn2   S    
N1    N2    D    
O16   H9    S    
C12   C19   S    
C1    C7    S    
C1    O2    A    
O14   H8    S    
C15   C16   A    
C11   O7    A    
O2    Zn2   S    
C4    C5    A    
