data_mof_unit_64940.cif
_audit_creation_date              2012-12-11T21:09:47-0500
_audit_creation_method            fapswitch 2.2
_symmetry_space_group_name_H-M    P1
_symmetry_Int_Tables_number       1
_space_group_crystal_system       triclinic
_cell_length_a                    8.246324
_cell_length_b                    19.116971
_cell_length_c                    26.86916
_cell_angle_alpha                 99.957787
_cell_angle_beta                  92.343508
_cell_angle_gamma                 88.045404
_cell_volume                      4166.9086664

loop_
_atom_site_label
_atom_site_type_symbol
_atom_type_description
_atom_site_fract_x
_atom_site_fract_y
_atom_site_fract_z
_atom_type_partial_charge
Ba1   Ba    Ba6+2 0.160260 0.465850 0.521400 1.657046
Ba2   Ba    Ba6+2 0.649930 0.534160 0.478640 1.642185
C1    C     C_3   0.406261 0.275340 0.703511 -0.352712
C2    C     C_R   0.992981 0.726985 0.517647 0.058855
C3    C     C_R   0.117278 0.810907 0.454606 -0.145305
C4    C     C_3   0.969585 0.274481 0.631363 0.381689
C5    C     C_R   0.187580 0.743634 0.457174 -0.008711
C6    C     C_R   0.687310 0.189949 0.545963 -0.160135
C7    C     C_R   0.616793 0.256110 0.540641 0.003770
C8    C     C_R   0.856532 0.198520 0.476233 -0.155166
C9    C     C_R   0.821055 0.272691 0.483431 0.059202
C10   C     C_R   0.013320 0.845088 0.492941 0.014938
C11   C     C_R   0.112848 0.699643 0.484526 -0.233339
C12   C     C_3   0.437331 0.299840 0.653883 0.348511
C13   C     C_R   0.798463 0.155147 0.510205 -0.006249
C14   C     C_R   0.693626 0.299439 0.513386 -0.245803
C15   C     C_R   0.219800 0.961010 0.466705 -0.107691
C16   C     C_3   0.003519 0.207298 0.653711 -0.375565
C17   C     C_R   0.309093 0.010105 0.447132 0.075399
C18   C     C_R   0.267750 0.081800 0.461492 -0.059782
C19   C     C_R   0.131030 0.100926 0.489680 -0.110440
C20   C     C_R   0.012820 0.051482 0.494060 0.014685
C21   C     C_R   0.062437 0.977793 0.485760 0.025605
C22   C     C_R   0.852625 0.075596 0.508262 -0.013730
C23   C     C_3   0.480359 0.315577 0.392760 0.291164
C24   C     C_R   0.746231 0.022207 0.518672 0.037286
C25   C     C_R   0.797700 0.948295 0.512675 0.016543
C26   C     C_R   0.957671 0.924405 0.496962 -0.011033
C27   C     C_R   0.584500 0.039252 0.533567 -0.075991
C28   C     C_3   0.843724 0.620346 0.632555 0.310923
C29   C     C_R   0.488456 0.990651 0.550532 -0.073838
C30   C     C_R   0.534738 0.919843 0.542401 -0.070306
C31   C     C_R   0.680599 0.898823 0.519846 -0.092504
C32   C     C_R   0.341140 0.460460 0.178223 0.585673
C33   C     C_R   0.120027 0.542258 0.168368 0.580823
C34   C     C_3   0.502076 0.236284 0.371718 -0.209355
C35   C     C_2   0.020060 0.510293 0.268783 -0.079885
C36   C     C_3   0.987028 0.510750 0.324225 -0.056968
C37   C     C_1   0.277062 0.492809 0.337019 0.024099
C38   C     C_2   0.310808 0.501211 0.290921 -0.096629
C39   C     C_2   0.175153 0.505460 0.252237 0.186690
C40   C     C_3   0.852148 0.635361 0.690044 -0.367904
C41   C     C_R   0.295046 0.500962 0.097650 -0.082032
C42   C     C_R   0.391397 0.463535 0.129129 -0.026610
C43   C     C_R   0.535297 0.429120 0.110734 -0.054952
C44   C     C_R   0.154777 0.538269 0.116832 -0.030009
C45   C     C_3   0.818950 0.716446 0.370848 0.348426
C46   C     C_2   0.140763 0.518866 0.356827 -0.276636
C47   C     C_2   0.638664 0.467633 0.634061 -0.258044
C48   C     C_R   0.539402 0.475554 0.980584 0.021135
C49   C     C_R   0.268270 0.524433 0.961517 0.015172
C50   C     C_R   0.425010 0.499034 0.945735 0.051945
C51   C     C_R   0.699562 0.458557 0.964840 -0.108040
C52   C     C_3   0.980226 0.365561 0.363750 0.296352
C53   C     C_R   0.742952 0.461151 0.915643 -0.076441
C54   C     C_R   0.627516 0.478854 0.879748 -0.030614
C55   C     C_R   0.467638 0.496744 0.894573 -0.079288
C56   C     C_3   0.801162 0.786007 0.350698 -0.370714
C57   C     C_R   0.350159 0.512044 0.858282 -0.043635
C58   C     C_R   0.390980 0.503961 0.807017 0.587858
C59   C     C_R   0.669137 0.479421 0.829383 0.579830
C60   C     C_2   0.696277 0.428801 0.718374 -0.088333
C61   C     C_3   0.728554 0.416599 0.662497 -0.102879
C62   C     C_1   0.528702 0.513180 0.656068 0.019035
C63   C     C_2   0.511281 0.527680 0.705544 -0.090101
C64   C     C_3   0.021475 0.333664 0.309609 -0.375772
C65   C     C_2   0.590901 0.480762 0.739351 0.205151
C66   C     C_R   0.490172 0.470098 0.029873 0.018292
C67   C     C_3   0.264847 0.700462 0.340605 0.309927
C68   C     C_R   0.338805 0.500800 0.046849 0.050077
C69   C     C_R   0.230726 0.531149 0.013483 0.019492
C70   C     C_R   0.585659 0.433611 0.062569 -0.102142
C71   C     C_R   0.053905 0.572006 0.084343 -0.064574
C72   C     C_R   0.154029 0.541368 0.924461 -0.112170
C73   C     C_R   0.193266 0.533779 0.873802 -0.038359
C74   C     C_R   0.089032 0.567306 0.033508 -0.110551
C75   C     C_3   0.334055 0.680792 0.588511 0.321057
C76   C     C_3   0.330194 0.761315 0.602749 -0.400806
C77   C     C_3   0.586777 0.224084 0.320905 -0.166389
C78   C     C_3   0.291758 0.689698 0.284136 -0.332088
C79   C     C_3   0.628539 0.145775 0.302928 -0.448628
C80   C     C_3   0.452164 0.982968 0.414726 -0.203869
C81   C     C_3   0.544211 0.040023 0.395158 -0.443762
C82   C     C_R   0.963560 0.801290 0.527443 -0.157415
H1    H     H_    0.406023 0.357557 0.657936 0.060745
H2    H     H_    0.210011 0.662562 0.577938 -0.000864
H3    H     H_    0.413226 0.665705 0.555752 0.081444
H4    H     H_    0.279290 0.288051 0.714646 0.161405
H5    H     H_    0.244901 0.778511 0.633733 0.124957
H6    H     H_    0.289663 0.785505 0.569571 0.056084
H7    H     H_    0.453543 0.780209 0.615320 0.126113
H8    H     H_    0.568535 0.290257 0.647012 -0.065372
H9    H     H_    0.488479 0.302939 0.733857 0.066442
H10   H     H_    0.602297 0.337961 0.402345 0.019936
H11   H     H_    0.410109 0.321691 0.427768 0.045220
H12   H     H_    0.763199 0.678363 0.704292 0.110035
H13   H     H_    0.575229 0.210888 0.399747 0.050253
H14   H     H_    0.381096 0.211518 0.366588 0.102633
H15   H     H_    0.429870 0.217150 0.699725 0.103963
H16   H     H_    0.939055 0.162246 0.630418 0.070541
H17   H     H_    0.701527 0.705690 0.385772 0.137113
H18   H     H_    0.910371 0.722044 0.402194 -0.018167
H19   H     H_    0.766348 0.829614 0.381706 0.080494
H20   H     H_    0.917454 0.798959 0.335500 0.106217
H21   H     H_    0.705307 0.781704 0.320148 0.141475
H22   H     H_    0.180351 0.746705 0.350269 -0.001140
H23   H     H_    0.824030 0.586837 0.705078 0.084278
H24   H     H_    0.209532 0.652095 0.349264 0.001554
H25   H     H_    0.174623 0.678250 0.262928 0.132271
H26   H     H_    0.378461 0.644479 0.273195 0.127155
H27   H     H_    0.018022 0.266832 0.592723 0.073587
H28   H     H_    0.341669 0.738433 0.274071 0.109305
H29   H     H_    0.894631 0.823335 0.560142 0.063701
H30   H     H_    0.147113 0.835834 0.423185 0.053144
H31   H     H_    0.649405 0.165817 0.576915 0.066256
H32   H     H_    0.933879 0.176291 0.445610 0.074690
H33   H     H_    0.152872 0.644653 0.481616 0.061008
H34   H     H_    0.976256 0.651798 0.703819 0.143416
H35   H     H_    0.647781 0.353084 0.513118 0.065871
H36   H     H_    0.283303 0.911887 0.468785 0.080012
H37   H     H_    0.343991 0.123120 0.453554 0.094616
H38   H     H_    0.835727 0.281395 0.628540 -0.088289
H39   H     H_    0.114802 0.155019 0.507197 0.135392
H40   H     H_    0.522053 0.087791 0.529160 0.077015
H41   H     H_    0.368918 0.006665 0.564332 0.077511
H42   H     H_    0.451792 0.880591 0.549859 0.079319
H43   H     H_    0.696908 0.843118 0.507096 0.129904
H44   H     H_    0.435490 0.505660 0.281215 0.140003
H45   H     H_    0.091764 0.387256 0.384125 0.034454
H46   H     H_    0.611762 0.399538 0.134008 0.116666
H47   H     H_    0.749119 0.390505 0.740208 0.110411
H48   H     H_    0.867202 0.447429 0.905465 0.118170
H49   H     H_    0.795480 0.445131 0.990359 0.072448
H50   H     H_    0.135041 0.193566 0.654227 0.148058
H51   H     H_    0.697151 0.405390 0.051059 0.069284
H52   H     H_    0.916550 0.508032 0.242411 0.121284
H53   H     H_    0.945177 0.601367 0.097946 0.121767
H54   H     H_    0.030798 0.558115 0.933219 0.074315
H55   H     H_    0.100125 0.546097 0.846784 0.158995
H56   H     H_    0.885752 0.408125 0.363675 0.030013
H57   H     H_    0.446988 0.576114 0.722060 0.097904
H58   H     H_    0.005704 0.594853 0.011111 0.072306
H59   H     H_    0.137349 0.541749 0.396724 0.067680
H60   H     H_    0.662046 0.463154 0.594182 0.081028
H61   H     H_    0.959772 0.214923 0.692878 0.110910
H62   H     H_    0.717981 0.607520 0.619378 -0.001959
H63   H     H_    0.925925 0.574194 0.619710 0.083048
H64   H     H_    0.691042 0.139447 0.266529 0.133568
H65   H     H_    0.711096 0.125145 0.331069 0.141990
H66   H     H_    0.516221 0.114548 0.296854 0.135806
H67   H     H_    0.100885 0.285479 0.309343 0.144757
H68   H     H_    0.700409 0.254134 0.324558 0.146469
H69   H     H_    0.506346 0.243496 0.291674 0.153031
H70   H     H_    0.460202 0.070104 0.372782 0.134096
H71   H     H_    0.601055 0.076998 0.426929 0.136809
H72   H     H_    0.641850 0.014481 0.370436 0.131554
H73   H     H_    0.538799 0.952654 0.436026 0.125605
H74   H     H_    0.405916 0.945110 0.381456 0.110000
H75   H     H_    0.087015 0.371975 0.291880 0.079632
H76   H     H_    0.908654 0.318892 0.286792 0.102121
N1    N     N_R   0.210949 0.502354 0.198775 -0.423635
N2    N     N_R   0.550219 0.488659 0.792699 -0.427231
O1    O     O_2   0.103290 0.325410 0.465600 -0.454298
O2    O     O_2   0.659944 0.562721 0.332962 -0.478042
O3    O     O_3   0.868035 0.661550 0.332300 -0.608128
O4    O     O_3   0.857760 0.414170 0.470020 -0.489013
O5    O     O_3   0.459840 0.537690 0.560170 -0.495679
O6    O     O_2   0.582520 0.462630 0.379680 -0.468484
O7    O     O_3   0.396794 0.349364 0.356494 -0.646748
O8    O     O_2   0.521156 0.760210 0.459611 -0.527651
O9    O     O_3   0.414014 0.713482 0.366989 -0.596010
O10   O     O_2   0.412602 0.419525 0.202361 -0.609422
O11   O     O_2   0.811773 0.472277 0.818382 -0.598524
O12   O     O_3   0.392823 0.651503 0.630203 -0.633300
O13   O     O_2   0.010512 0.582303 0.186158 -0.600670
O14   O     O_2   0.283558 0.509326 0.775101 -0.565874
O15   O     O_3   0.374170 0.371120 0.556000 -0.465422
O16   O     O_2   0.291660 0.245107 0.515558 -0.508158
O17   O     O_3   0.918328 0.312172 0.386026 -0.649888
O18   O     O_3   0.342422 0.261563 0.614424 -0.595458
O19   O     O_2   0.227790 0.537410 0.620340 -0.451819
O20   O     O_3   0.969630 0.407570 0.582610 -0.486943
O21   O     O_2   0.047740 0.473100 0.675837 -0.431338
O22   O     O_3   0.043078 0.332991 0.662223 -0.577994
O23   O     O_2   0.707020 0.674640 0.534420 -0.481891
O24   O     O_3   0.952550 0.585840 0.530020 -0.493546
O25   O     O_3   0.436140 0.628890 0.444040 -0.453065
O26   O     O_3   0.890381 0.680866 0.614526 -0.631737
O27   O     O_3   0.350480 0.462320 0.439870 -0.474504
O28   O     O_3   0.840680 0.592440 0.417430 -0.489679
P1    P     P_3+3 0.926760 0.336170 0.451740 0.974983
P2    P     P_3+3 0.399470 0.558680 0.614150 0.994140
P3    P     P_3+3 0.948392 0.410310 0.647259 0.996484
P4    P     P_3+3 0.883550 0.663840 0.548300 0.972676
P5    P     P_3+3 0.836531 0.579952 0.351232 0.981861
P6    P     P_3+3 0.407735 0.281729 0.557623 0.934551
P7    P     P_3+3 0.399651 0.441406 0.376413 0.962341
P8    P     P_3+3 0.386178 0.713425 0.431195 0.918706

loop_
_geom_bond_atom_site_label_1
_geom_bond_atom_site_label_2
_ccdc_geom_bond_type
C57   C58   A    
C53   C54   A    
C27   H40   S    
C75   O12   S    
C45   H17   S    
O15   P6    S    
C39   N1    S    
C3    H30   S    
C4    H27   S    
C17   C18   A    
Ba2   O27   S    
O23   P4    D    
C32   N1    Am   
C64   H76   S    
C7    P6    S    
C32   O10   D    
C28   H63   S    
C81   H70   S    
C75   C76   S    
C25   C31   A    
C2    P4    S    
O5    P2    S    
C72   H54   S    
C24   C25   A    
C33   N1    Am   
Ba1   O27   S    
C16   H16   S    
C60   C65   D    
C10   C26   S    
C47   C61   S    
C7    C14   A    
C22   C24   A    
C53   H48   S    
Ba1   Ba2   S    
O9    P8    S    
C8    C13   A    
C69   C74   A    
C80   H74   S    
O19   P2    D    
C79   H65   S    
C55   C57   A    
C81   H71   S    
Ba1   O5    S    
O27   P7    S    
O22   P3    S    
C38   H44   S    
C47   H60   S    
C31   H43   S    
C36   P5    S    
C10   C82   A    
O4    P1    S    
C67   O9    S    
C34   H14   S    
C30   H42   S    
C2    C11   A    
Ba2   O25   S    
C15   H36   S    
O21   P3    D    
Ba1   O15   S    
C52   H56   S    
C6    C7    A    
C63   C65   S    
C78   H25   S    
C48   C50   A    
C61   P3    S    
C34   H13   S    
C17   C80   S    
C40   H23   S    
Ba2   O4    S    
C36   C46   S    
C6    H31   S    
C16   H61   S    
C37   P7    S    
O26   P4    S    
C43   H46   S    
C47   C62   D    
C19   C20   A    
C43   C70   A    
C49   C69   A    
O3    P5    S    
C64   H75   S    
C62   P2    S    
C67   H24   S    
C28   H62   S    
C51   C53   A    
C76   H5    S    
C4    C16   S    
C75   H3    S    
O2    P5    D    
C48   C51   A    
O6    P7    D    
O25   P8    S    
C49   C50   A    
Ba2   O28   S    
C32   C42   A    
C3    C10   A    
C8    C9    A    
C14   H35   S    
C37   C38   D    
C3    C5    A    
C80   H73   S    
Ba1   O19   S    
C40   H34   S    
C70   H51   S    
C81   H72   S    
Ba1   O24   S    
O16   P6    D    
C76   H6    S    
C59   N2    Am   
C49   C72   A    
C4    O22   S    
Ba2   P4    S    
C28   O26   S    
C19   H39   S    
C41   C42   A    
Ba2   O24   S    
C35   C36   S    
C77   H69   S    
C63   H57   S    
C9    C14   A    
Ba2   O6    S    
C58   N2    Am   
C29   C30   A    
C2    C82   A    
C66   C70   A    
C79   H64   S    
C78   H28   S    
C60   C61   S    
C35   H52   S    
C51   H49   S    
C1    H9    S    
O20   P3    S    
C15   C21   A    
C21   C26   A    
C12   H8    S    
C18   H37   S    
C68   C69   A    
C1    C12   S    
O28   P5    S    
Ba1   P1    S    
C38   C39   S    
C75   H2    S    
C23   H11   S    
C41   C68   A    
C58   O14   D    
C71   C74   A    
C20   C22   A    
C56   H20   S    
C54   C55   A    
C4    H38   S    
C57   C73   A    
C72   C73   A    
O8    P8    D    
C8    H32   S    
C42   C43   A    
O7    P7    S    
C23   O7    S    
C52   H45   S    
C13   C22   S    
C67   H22   S    
C1    H4    S    
C54   C59   A    
C60   H47   S    
O24   P4    S    
C46   H59   S    
C12   H1    S    
C34   C77   S    
O18   P6    S    
C11   H33   S    
Ba1   O20   S    
C52   C64   S    
C76   H7    S    
C6    C13   A    
C77   C79   S    
C40   H12   S    
C56   H21   S    
C33   O13   D    
C62   C63   D    
C5    P8    S    
Ba2   O23   S    
C23   H10   S    
C64   H67   S    
C27   C29   A    
C82   H29   S    
C73   H55   S    
C30   C31   A    
C45   C56   S    
C65   N2    S    
C52   O17   S    
C71   H53   S    
Ba1   O4    S    
C45   O3    S    
C15   C17   A    
C16   H50   S    
C9    P1    S    
C35   C39   D    
C41   C44   A    
C50   C55   A    
C23   C34   S    
Ba1   P2    S    
C1    H15   S    
C5    C11   A    
O17   P1    S    
C18   C19   A    
Ba1   O1    S    
C24   C27   A    
C66   C68   A    
C80   C81   S    
C78   H26   S    
C25   C26   A    
C45   H18   S    
C59   O11   D    
C29   H41   S    
C20   C21   A    
C28   C40   S    
C67   C78   S    
O1    P1    D    
C56   H19   S    
C77   H68   S    
C33   C44   A    
C48   C66   A    
Ba2   O5    S    
C44   C71   A    
C12   O18   S    
C79   H66   S    
O12   P2    S    
C37   C46   D    
C74   H58   S    
