data_mof_unit_41307.cif
_audit_creation_date              2013-03-05T16:00:57-0500
_audit_creation_method            fapswitch 2.2
_symmetry_space_group_name_H-M    P1
_symmetry_Int_Tables_number       1
_space_group_crystal_system       triclinic
_cell_length_a                    10.630671
_cell_length_b                    14.838094
_cell_length_c                    14.833618
_cell_angle_alpha                 63.994505
_cell_angle_beta                  107.03151
_cell_angle_gamma                 103.543847
_cell_volume                      1995.4201871

loop_
_atom_site_label
_atom_site_type_symbol
_atom_site_description
_atom_site_fract_x
_atom_site_fract_y
_atom_site_fract_z
_atom_type_partial_charge
O1    O     O_R   0.454850 0.022100 0.338110 -0.515349
O2    O     O_R   0.545150 0.977900 0.661890 -0.520618
O3    O     O_R   0.512700 0.160150 0.379180 -0.568495
O4    O     O_R   0.487300 0.839850 0.620820 -0.523640
C1    C     C_R   0.483783 0.119554 0.311689 0.857571
C2    C     C_R   0.510300 0.880503 0.687719 0.879376
O5    O     O_R   0.287930 0.931000 0.479440 -0.577692
O6    O     O_R   0.712070 0.069000 0.520560 -0.572441
O7    O     O_R   0.345780 0.069050 0.520520 -0.535186
O8    O     O_R   0.654220 0.930950 0.479480 -0.539283
C3    C     C_R   0.259218 0.999874 0.498886 0.817495
C4    C     C_R   0.740683 0.000430 0.500677 0.832776
Cu1   Cu    Cu3+1 0.465750 0.918270 0.475680 1.080917
Cu2   Cu    Cu3+1 0.534250 0.081730 0.524320 1.074332
C5    C     C_3   0.005986 0.917118 0.485687 -0.151260
C6    C     C_3   0.993903 0.083281 0.514029 -0.141094
C7    C     C_3   0.922546 0.003437 0.411751 0.233439
C8    C     C_3   0.077393 0.996955 0.587928 0.229671
H1    H     H_    0.009992 0.848242 0.475975 0.229215
H2    H     H_    0.989439 0.151717 0.524458 0.230443
C9    C     C_3   0.877965 0.001696 0.501255 -0.086684
C10   C     C_3   0.121950 0.998684 0.498400 -0.085653
C11   C     C_3   0.961425 0.915384 0.577319 -0.186677
C12   C     C_3   0.038508 0.085041 0.422371 -0.180562
H3    H     H_    0.927973 0.846984 0.640785 0.199598
H4    H     H_    0.072019 0.153413 0.358905 0.197073
C13   C     C_R   0.467092 0.186876 0.200924 -0.242437
C14   C     C_R   0.493876 0.813400 0.795354 -0.247695
C15   C     C_R   0.342754 0.218132 0.026098 0.253928
C16   C     C_R   0.544367 0.780160 0.977657 0.269389
C17   C     C_R   0.400935 0.150199 0.123555 0.216993
C18   C     C_R   0.538540 0.848722 0.875303 0.195249
C19   C     C_R   0.505725 0.291510 0.172233 0.172460
C20   C     C_R   0.431834 0.712076 0.817860 0.191054
C21   C     C_R   0.437242 0.359937 0.078711 0.028630
C22   C     C_R   0.441703 0.640324 0.922272 -0.005087
C23   C     C_R   0.354297 0.321502 0.006063 -0.068235
C24   C     C_R   0.505134 0.676207 0.001429 -0.044022
C25   C     C_R   0.450353 0.465715 0.054175 0.133628
C26   C     C_R   0.399845 0.533346 0.952486 0.103763
C27   C     C_R   0.305201 0.490336 0.888686 -0.207689
C28   C     C_R   0.501584 0.504957 0.129989 -0.128896
C29   C     C_R   0.284511 0.387269 0.913895 -0.065281
C30   C     C_R   0.525574 0.607766 0.104404 -0.053257
H5    H     H_    0.212619 0.359476 0.860152 0.227065
H6    H     H_    0.564615 0.632686 0.166866 0.192807
H7    H     H_    0.239076 0.533082 0.821172 0.188378
H8    H     H_    0.517820 0.457091 0.210687 0.150663
N1    N     N_R   0.585750 0.204560 0.560800 -0.304229
N2    N     N_R   0.414250 0.795440 0.439200 -0.301162
C31   C     C_R   0.726537 0.285679 0.671853 0.218415
C32   C     C_R   0.270017 0.713194 0.330170 0.211964
C33   C     C_R   0.700358 0.211171 0.631797 0.396648
C34   C     C_R   0.298496 0.788645 0.369168 0.386148
C35   C     C_R   0.506355 0.281716 0.515343 0.401379
C36   C     C_R   0.492812 0.717851 0.484722 0.413641
C37   C     C_R   0.544674 0.369041 0.539707 -0.159423
C38   C     C_R   0.453070 0.630286 0.460840 -0.166076
C39   C     C_R   0.641586 0.361096 0.630357 -0.155121
C40   C     C_R   0.354812 0.637844 0.370948 -0.151837
C41   C     C_R   0.486290 0.461822 0.480374 0.086137
C42   C     C_R   0.510742 0.537320 0.520354 0.076404
C43   C     C_R   0.581964 0.513614 0.622187 -0.183544
C44   C     C_R   0.413239 0.485069 0.379053 -0.206905
C45   C     C_R   0.649138 0.428380 0.676780 0.401185
C46   C     C_R   0.345231 0.569866 0.324919 0.388302
H9    H     H_    0.580347 0.558081 0.662826 0.197567
H10   H     H_    0.412801 0.440130 0.338594 0.187912
N3    N     N_2   0.831110 0.006643 0.316646 -0.448867
H11   H     H_    0.758902 0.945203 0.327009 0.316149
C47   C     C_3   0.891328 0.029505 0.232292 -0.426281
H12   H     H_    0.812567 0.034165 0.162548 0.278605
H13   H     H_    0.951398 0.969284 0.251061 0.282927
H14   H     H_    0.954779 0.103442 0.215027 0.210857
N4    N     N_2   0.168985 0.993728 0.682979 -0.452823
H15   H     H_    0.241322 0.055075 0.672424 0.317209
C48   C     C_3   0.108995 0.971444 0.767281 -0.417626
H16   H     H_    0.187884 0.966381 0.837066 0.274185
H17   H     H_    0.044748 0.897858 0.784470 0.216124
H18   H     H_    0.049790 0.032185 0.748500 0.283596
N5    N     N_R   0.626302 0.733164 0.539421 0.135259
O9    O     O_R   0.650784 0.734155 0.630138 -0.364430
O10   O     O_R   0.724326 0.731488 0.504540 -0.354351
N6    N     N_R   0.372989 0.265742 0.460763 0.138759
O11   O     O_R   0.274711 0.266581 0.495878 -0.346714
O12   O     O_R   0.348671 0.264950 0.369967 -0.385778
N7    N     N_R   0.198855 0.852144 0.340773 0.151583
O13   O     O_R   0.213731 0.946173 0.277738 -0.308334
O14   O     O_R   0.080964 0.810104 0.356394 -0.368970
N8    N     N_R   0.800751 0.148156 0.660612 0.151513
O15   O     O_R   0.785781 0.053898 0.723032 -0.292557
O16   O     O_R   0.918879 0.190656 0.645917 -0.362060
N9    N     N_R   0.846632 0.289568 0.747162 0.189809
O17   O     O_R   0.877976 0.208744 0.828810 -0.192052
O18   O     O_R   0.929599 0.372055 0.730513 -0.319906
N10   N     N_R   0.147377 0.707748 0.257608 0.198514
O19   O     O_R   0.065484 0.624650 0.277071 -0.283344
O20   O     O_R   0.112588 0.787751 0.176038 -0.188657
N11   N     N_2   0.364919 0.684596 0.733572 -0.416212
H19   H     H_    0.388476 0.622864 0.730012 0.263587
C49   C     C_3   0.234851 0.717359 0.680632 -0.575363
H20   H     H_    0.198548 0.700333 0.610888 0.236960
H21   H     H_    0.239501 0.799758 0.657153 0.217738
H22   H     H_    0.162899 0.679363 0.731254 0.228464
N12   N     N_2   0.627628 0.326613 0.226668 -0.439083
H23   H     H_    0.627701 0.318714 0.299174 0.274660
C50   C     C_3   0.745464 0.297396 0.221950 -0.545569
H24   H     H_    0.834782 0.337190 0.256644 0.248485
H25   H     H_    0.748261 0.318666 0.140729 0.264418
H26   H     H_    0.747985 0.214635 0.265403 0.208217
N13   N     N_R   0.576892 0.954292 0.854064 0.184183
O21   O     O_R   0.487664 0.016305 0.805315 -0.315616
O22   O     O_R   0.691324 0.984379 0.901477 -0.206026
N14   N     N_R   0.406461 0.047896 0.139944 0.186894
O23   O     O_R   0.518958 0.010712 0.181567 -0.315208
O24   O     O_R   0.305875 0.996794 0.101129 -0.202140
N15   N     N_R   0.275889 0.182865 0.946351 0.155555
O25   O     O_R   0.152938 0.142166 0.941654 -0.232849
O26   O     O_R   0.331565 0.204074 0.870953 -0.281817
N16   N     N_R   0.591899 0.817055 0.057916 0.148774
O27   O     O_R   0.524226 0.875642 0.064543 -0.219234
O28   O     O_R   0.709582 0.801962 0.116415 -0.282319
N17   N     N_R   0.710977 0.405533 0.783199 0.151288
O29   O     O_R   0.772786 0.477991 0.812769 -0.304926
O30   O     O_R   0.685458 0.315865 0.852407 -0.276431
N18   N     N_R   0.279302 0.591049 0.219414 0.141291
O31   O     O_R   0.298880 0.681063 0.148872 -0.297267
O32   O     O_R   0.218222 0.517429 0.191457 -0.308878

loop_
_geom_bond_atom_site_label_1
_geom_bond_atom_site_label_2
_geom_bond_distance
_ccdc_geom_bond_type
C38   C42   1.438498 A    
N7    O13   1.298146 A    
C43   C45   1.396920 A    
C7    N3    1.448043 S    
C8    N4    1.448012 S    
C18   N13   1.436180 S    
C50   H25   1.111401 S    
N13   O21   1.301099 A    
N4    H15   1.030600 S    
N5    O9    1.299668 A    
N17   O29   1.301509 A    
C48   H16   1.110539 S    
C13   C19   1.408745 A    
O5    C3    1.294978 A    
N12   C50   1.447183 S    
C6    C9    1.544651 S    
O1    C1    1.305582 A    
C44   H10   1.073626 S    
C21   C23   1.418023 A    
N6    O12   1.299776 A    
N3    H11   1.030747 S    
N15   O26   1.300811 A    
C34   N7    1.430128 S    
C37   C39   1.410596 A    
Cu2   N1    2.034268 S    
C38   C40   1.410502 A    
C16   C24   1.409022 A    
O4    Cu1   1.918528 S    
N3    C47   1.444244 S    
C32   C40   1.409993 A    
C5    H1    1.104584 S    
C5    C10   1.544420 S    
C2    C14   1.502956 S    
C32   C34   1.409353 A    
N10   O20   1.301513 A    
O6    Cu2   1.962254 S    
C50   H24   1.110262 S    
C36   C38   1.432126 A    
C17   N14   1.441054 S    
C6    H2    1.105428 S    
C5    C11   1.553512 S    
C40   C46   1.417396 A    
C6    C12   1.553974 S    
C1    C13   1.483887 S    
Cu1   Cu2   2.707974 S    
C27   C29   1.384263 A    
O2    C2    1.311265 A    
C28   C30   1.379489 A    
N5    O10   1.301340 A    
C30   H6    1.082006 S    
N14   O23   1.301396 A    
C25   C28   1.402601 A    
C48   H17   1.110074 S    
C43   H9    1.076655 S    
C7    C12   1.537867 S    
C13   C17   1.415461 A    
C8    C11   1.537553 S    
C49   H20   1.110276 S    
C14   C18   1.416047 A    
C19   N12   1.429120 S    
N6    O11   1.301370 A    
O4    C2    1.312304 A    
C25   C26   1.421682 A    
C47   H13   1.108478 S    
N1    C35   1.385628 A    
C15   N15   1.433346 S    
C4    C9    1.452671 S    
N2    C36   1.384625 A    
C46   N18   1.438260 S    
C31   C33   1.409903 A    
C44   C46   1.396647 A    
C23   C29   1.395292 A    
C41   C44   1.402886 A    
C21   C25   1.428871 A    
O7    Cu2   1.954334 S    
C24   C30   1.400139 A    
C42   C43   1.402705 A    
N4    C48   1.444171 S    
N8    O16   1.300408 A    
N11   H19   1.030594 S    
C22   C26   1.442458 A    
O6    C4    1.294354 A    
N10   O19   1.301494 A    
C20   N11   1.423289 S    
C27   H7    1.067154 S    
N13   O22   1.301377 A    
N9    O17   1.301233 A    
C28   H8    1.076106 S    
C29   H5    1.083260 S    
O7    C3    1.294917 A    
O3    Cu2   1.918529 S    
O8    C4    1.295265 A    
C31   N9    1.437960 S    
C26   C27   1.409363 A    
N11   C49   1.452205 S    
C49   H22   1.109068 S    
C9    C11   1.542431 S    
C50   H26   1.111480 S    
C10   C12   1.542643 S    
O1    Cu1   1.933763 S    
N2    C34   1.374209 A    
N16   O27   1.300855 A    
N16   O28   1.301209 A    
C49   H21   1.107698 S    
C48   H18   1.108538 S    
C5    C7    1.536406 S    
N18   O32   1.301613 A    
C8    C10   1.523680 S    
C12   H4    1.109987 S    
O3    C1    1.312026 A    
O8    Cu1   1.954334 S    
C47   H14   1.110124 S    
N14   O24   1.300877 A    
C37   C41   1.439727 A    
N12   H23   1.029331 S    
C3    C10   1.453153 S    
C35   C37   1.432714 A    
C47   H12   1.110451 S    
C15   C17   1.406724 A    
N15   O25   1.300678 A    
C39   C45   1.417866 A    
C16   C18   1.401406 A    
N8    O15   1.298162 A    
N9    O18   1.301486 A    
C16   N16   1.435950 S    
N18   O31   1.301524 A    
N1    C33   1.373360 A    
C22   C24   1.425883 A    
C19   C21   1.415922 A    
C36   N5    1.435241 S    
C32   N10   1.438645 S    
C20   C22   1.433342 A    
C45   N17   1.437418 S    
C41   C42   1.424819 A    
O2    Cu2   1.933764 S    
C7    C9    1.523396 S    
N17   O30   1.301552 A    
C14   C20   1.425212 A    
Cu1   N2    2.034268 S    
O5    Cu1   1.962253 S    
C11   H3    1.109962 S    
C31   C39   1.410813 A    
C6    C8    1.536674 S    
C15   C23   1.410478 A    
C33   N8    1.430268 S    
N7    O14   1.300263 A    
C35   N6    1.435348 S    
