data_mof_unit_5503.cif
_audit_creation_date              2012-12-10T18:45:35-0500
_audit_creation_method            fapswitch 2.2
_symmetry_space_group_name_H-M    P1
_symmetry_Int_Tables_number       1
_space_group_crystal_system       triclinic
_cell_length_a                    19.527107
_cell_length_b                    18.314286
_cell_length_c                    10.716965
_cell_angle_alpha                 89.333433
_cell_angle_beta                  91.389374
_cell_angle_gamma                 90.416222
_cell_volume                      3831.17531441

loop_
_atom_site_label
_atom_site_type_symbol
_atom_type_description
_atom_site_fract_x
_atom_site_fract_y
_atom_site_fract_z
_atom_type_partial_charge
C1    C     C_R   0.367320 0.499470 0.508091 0.808394
C2    C     C_R   0.926368 0.491429 0.514437 0.106696
C3    C     C_R   0.443258 0.722500 0.460251 -0.003045
C4    C     C_R   0.537474 0.278925 0.590204 0.097774
C5    C     C_R   0.557887 0.722566 0.535419 0.001608
C6    C     C_R   0.463500 0.276967 0.411043 0.064447
C7    C     C_R   0.438881 0.797694 0.490174 0.311443
C8    C     C_R   0.532088 0.201701 0.602122 0.347349
C9    C     C_R   0.561537 0.798734 0.508160 0.296038
C10   C     C_R   0.473914 0.200350 0.401351 0.367193
C11   C     C_R   0.500060 0.838650 0.500739 0.052805
C12   C     C_R   0.631929 0.500244 0.501626 0.868260
C13   C     C_R   0.502788 0.161347 0.503217 0.097876
C14   C     C_R   0.548906 0.961571 0.576954 -0.115064
C15   C     C_R   0.443321 0.038373 0.461562 -0.126430
C16   C     C_R   0.451383 0.963757 0.432097 -0.118592
C17   C     C_R   0.558974 0.036778 0.549899 -0.112556
C18   C     C_R   0.501809 0.078299 0.505432 0.182462
C19   C     C_R   0.499994 0.921788 0.503264 0.177483
C20   C     C_R   0.509162 0.500847 0.262659 0.809262
C21   C     C_R   0.490886 0.499592 0.737469 0.948955
C22   C     C_R   0.530613 0.639300 0.104816 0.328082
C23   C     C_R   0.707246 0.500634 0.507768 -0.178988
C24   C     C_R   0.461819 0.366523 0.902847 0.428345
C25   C     C_R   0.448117 0.629301 0.887439 0.321140
C26   C     C_R   0.551634 0.371376 0.111006 0.467822
C27   C     C_R   0.506081 0.704115 0.045606 -0.159221
C28   C     C_R   0.483106 0.300322 0.961607 -0.258713
C29   C     C_R   0.461515 0.698761 0.939756 -0.141802
C30   C     C_R   0.533376 0.303126 0.059127 -0.182148
C31   C     C_R   0.480650 0.566569 0.938149 -0.030545
C32   C     C_R   0.521616 0.436382 0.061161 -0.155980
C33   C     C_R   0.510232 0.569903 0.058563 0.007806
C34   C     C_R   0.290646 0.497038 0.521684 -0.263215
C35   C     C_R   0.489781 0.433696 0.943030 -0.050683
C36   C     C_R   0.480380 0.499298 0.874420 -0.044425
C37   C     C_R   0.520979 0.503289 0.126175 -0.135025
C38   C     C_R   0.742297 0.471325 0.614457 -0.048918
C39   C     C_R   0.250488 0.561803 0.508480 -0.104193
C40   C     C_R   0.255430 0.429000 0.542994 -0.124699
C41   C     C_R   0.744290 0.529919 0.406625 -0.167964
C42   C     C_R   0.814217 0.463626 0.611749 0.298038
C43   C     C_R   0.179350 0.554864 0.483103 0.378785
C44   C     C_R   0.183148 0.427804 0.549045 0.374007
C45   C     C_R   0.964405 0.534426 0.600970 -0.050685
C46   C     C_R   0.816532 0.527128 0.410157 0.389452
C47   C     C_R   0.850603 0.494185 0.512424 0.008837
C48   C     C_R   0.145922 0.489420 0.512149 -0.030726
C49   C     C_2   0.568733 0.235184 0.102845 0.438023
C50   C     C_2   0.429980 0.764535 0.880078 0.530690
C51   C     C_2   0.453700 0.228662 0.921798 0.382844
C52   C     C_2   0.526449 0.776258 0.097478 0.552933
C53   C     C_2   0.706031 0.455826 0.733266 0.448651
C54   C     C_2   0.278365 0.635131 0.543819 0.436203
C55   C     C_2   0.291874 0.358612 0.561457 0.419661
C56   C     C_R   0.032169 0.447566 0.425393 -0.029092
C57   C     C_2   0.707196 0.564079 0.298904 0.442171
C58   C     C_2   0.929109 0.583588 0.688637 0.456624
C59   C     C_2   0.068233 0.413802 0.319449 0.513599
C60   C     C_2   0.076338 0.568545 0.705644 0.447151
C61   C     C_2   0.919319 0.389506 0.359068 0.512817
C62   C     C_2   0.394710 0.692385 0.364707 0.402265
C63   C     C_2   0.589530 0.316590 0.667613 0.462830
C64   C     C_2   0.610720 0.689561 0.620247 0.506583
C65   C     C_2   0.407960 0.311041 0.332645 0.406382
C66   C     C_2   0.584175 0.928856 0.689052 0.541799
C67   C     C_R   0.036396 0.528622 0.607089 -0.051102
C68   C     C_2   0.373419 0.070926 0.455199 0.531441
C69   C     C_2   0.414745 0.934549 0.319376 0.550412
C70   C     C_2   0.629849 0.067689 0.556602 0.512235
C71   C     C_R   0.959991 0.444490 0.431991 -0.043842
C72   C     C_R   0.070152 0.487425 0.516030 0.104184
Cu1   Cu    Cu3+1 0.500000 0.573360 0.500000 0.966378
Cu2   Cu    Cu3+1 0.500000 0.426640 0.500000 1.005410
H1    H     H_    0.567764 0.186888 0.045253 0.060690
H2    H     H_    0.327438 0.640768 0.590624 0.111793
H3    H     H_    0.336846 0.354924 0.621694 0.149957
H4    H     H_    0.658621 0.541479 0.267063 0.068984
H5    H     H_    0.824434 0.386392 0.735102 0.336269
H6    H     H_    0.168129 0.640368 0.378386 0.378413
H7    H     H_    0.175636 0.338748 0.649071 0.367105
H8    H     H_    0.830901 0.544736 0.233750 0.352845
H9    H     H_    0.948483 0.589884 0.783629 0.070770
H10   H     H_    0.120052 0.393727 0.331361 0.094064
H11   H     H_    0.059916 0.621765 0.736063 0.080237
H12   H     H_    0.423566 0.767640 0.779234 0.058398
H13   H     H_    0.866554 0.399738 0.331071 0.048744
H14   H     H_    0.402983 0.639874 0.323837 0.121089
H15   H     H_    0.575895 0.345025 0.751100 0.068905
H16   H     H_    0.598808 0.641436 0.674802 0.126552
H17   H     H_    0.404290 0.368658 0.316684 0.125930
H18   H     H_    0.341704 0.794085 0.521419 0.379187
H19   H     H_    0.569637 0.198932 0.773570 0.317697
H20   H     H_    0.656550 0.799588 0.462007 0.377061
H21   H     H_    0.452220 0.196215 0.223368 0.335336
H22   H     H_    0.629080 0.954520 0.730954 0.064253
H23   H     H_    0.454461 0.182291 0.985618 0.095659
H24   H     H_    0.331845 0.044687 0.403928 0.065354
H25   H     H_    0.369755 0.961241 0.280204 0.069291
H26   H     H_    0.670410 0.039820 0.608171 0.060559
H27   H     H_    0.531344 0.783066 0.197799 0.071155
H28   H     H_    0.605287 0.688492 0.197157 0.334940
H29   H     H_    0.372562 0.334338 0.844376 0.355376
H30   H     H_    0.363945 0.658408 0.799416 0.311833
H31   H     H_    0.622122 0.423346 0.206759 0.296299
H32   H     H_    0.727799 0.419968 0.804486 0.092167
N1    N     N_R   0.500000 0.683620 0.500000 -0.280798
N2    N     N_R   0.500000 0.316380 0.500000 -0.261796
O1    O     O_R   0.400190 0.561980 0.499980 -0.618389
O2    O     O_2   0.408412 0.814258 0.942712 -0.446608
O3    O     O_2   0.428850 0.220060 0.817334 -0.489421
O4    O     O_2   0.540695 0.827663 0.029110 -0.443433
O5    O     O_3   0.579847 0.641670 0.199594 -0.715317
O6    O     O_3   0.408735 0.368385 0.815812 -0.724823
O7    O     O_3   0.398513 0.619374 0.794767 -0.738591
O8    O     O_3   0.602312 0.373501 0.203363 -0.643574
O9    O     O_2   0.652212 0.485720 0.756336 -0.591726
O10   O     O_2   0.244773 0.690716 0.530137 -0.498385
O11   O     O_2   0.271193 0.303455 0.509347 -0.444689
O12   O     O_R   0.599810 0.438020 0.500020 -0.535209
O13   O     O_2   0.729509 0.618771 0.247314 -0.468979
O14   O     O_3   0.851082 0.429386 0.706832 -0.712499
O15   O     O_3   0.140210 0.612444 0.438752 -0.672814
O16   O     O_3   0.146877 0.366974 0.588707 -0.672897
O17   O     O_3   0.855712 0.553757 0.313778 -0.668133
O18   O     O_2   0.878993 0.618801 0.654881 -0.470991
O19   O     O_2   0.041373 0.411117 0.215494 -0.476064
O20   O     O_2   0.127150 0.541647 0.755789 -0.506312
O21   O     O_2   0.943452 0.330191 0.334574 -0.458096
O22   O     O_2   0.346766 0.728273 0.322857 -0.488343
O23   O     O_R   0.599810 0.561980 0.500020 -0.594735
O24   O     O_2   0.649885 0.310913 0.642697 -0.529513
O25   O     O_2   0.667118 0.717500 0.636494 -0.490246
O26   O     O_2   0.361517 0.273870 0.288023 -0.490268
O27   O     O_3   0.376770 0.831865 0.503592 -0.689597
O28   O     O_3   0.556570 0.164305 0.706845 -0.715507
O29   O     O_3   0.623181 0.834830 0.494126 -0.693110
O30   O     O_3   0.454921 0.162064 0.295423 -0.712656
O31   O     O_2   0.560682 0.875047 0.741525 -0.500265
O32   O     O_2   0.360021 0.125309 0.514506 -0.463941
O33   O     O_2   0.437108 0.882639 0.263253 -0.505851
O34   O     O_R   0.400190 0.438020 0.499980 -0.615009
O35   O     O_2   0.645106 0.122580 0.497476 -0.469622
O36   O     O_R   0.500000 0.561950 0.319660 -0.555250
O37   O     O_R   0.500000 0.438050 0.680340 -0.577456
O38   O     O_R   0.500000 0.561950 0.680340 -0.572675
O39   O     O_R   0.500000 0.438050 0.319660 -0.598254
O40   O     O_2   0.599451 0.231958 0.203341 -0.429060

loop_
_geom_bond_atom_site_label_1
_geom_bond_atom_site_label_2
_ccdc_geom_bond_type
C51   H23   S    
C15   C18   A    
Cu1   O23   S    
C24   O6    S    
C8    C13   A    
C12   O23   A    
C8    O28   S    
Cu1   Cu2   S    
C20   O36   A    
H31   O8    S    
C35   C36   A    
C64   H16   S    
C4    C8    A    
H19   O28   S    
C21   C36   S    
C55   O11   D    
C26   C32   A    
C4    N2    A    
C4    C63   S    
C11   C19   S    
C70   O35   D    
C13   C18   S    
C34   C40   A    
C38   C42   A    
C3    C7    A    
C25   O7    S    
C55   H3    S    
C28   C51   S    
C53   O9    D    
Cu1   N1    S    
C39   C54   S    
C27   C29   A    
C52   O4    D    
C59   O19   D    
C15   C16   A    
C50   O2    D    
C25   C31   A    
C67   C72   A    
C46   C47   A    
C62   O22   D    
C1    O34   A    
C61   H13   S    
C1    O1    A    
C12   O12   A    
C9    O29   S    
C53   H32   S    
C22   O5    S    
C66   O31   D    
C60   C67   S    
C56   C72   A    
C45   C67   A    
C41   C46   A    
C49   H1    S    
C43   C48   A    
C65   O26   D    
C61   O21   D    
C61   C71   S    
Cu2   O34   S    
C17   C70   S    
C14   C17   A    
C48   C72   S    
C57   H4    S    
C70   H26   S    
C1    C34   S    
C26   O8    S    
C29   C50   S    
C6    C65   S    
C2    C45   A    
C25   C29   A    
C45   C58   S    
H5    O14   S    
C52   H27   S    
C24   C35   A    
H7    O16   S    
C34   C39   A    
C32   C35   A    
Cu2   O39   S    
C60   O20   D    
H29   O6    S    
C59   H10   S    
C39   C43   A    
C3    N1    A    
C32   C37   A    
C62   H14   S    
C44   O16   S    
C33   C37   A    
C49   O40   D    
C21   O37   A    
C7    C11   A    
H8    O17   S    
C5    C9    A    
H30   O7    S    
C12   C23   S    
C40   C55   S    
C63   H15   S    
C31   C33   A    
C17   C18   A    
C14   C66   S    
C20   O39   A    
C63   O24   D    
Cu1   O1    S    
C9    C11   A    
Cu2   O37   S    
C54   H2    S    
C69   H25   S    
C30   C49   S    
C58   O18   D    
C22   C27   A    
C54   O10   D    
C68   O32   D    
H18   O27   S    
C2    C71   A    
C43   O15   S    
C27   C52   S    
C42   O14   S    
C66   H22   S    
C5    N1    A    
C3    C62   S    
C65   H17   S    
C22   C33   A    
C64   O25   D    
H21   O30   S    
C51   O3    D    
C14   C19   A    
Cu2   N2    S    
C16   C69   S    
C24   C28   A    
C10   C13   A    
C6    C10   A    
C46   O17   S    
C60   H11   S    
C26   C30   A    
C2    C47   S    
C23   C38   A    
Cu2   O12   S    
C23   C41   A    
C56   C59   S    
Cu1   O38   S    
C21   O38   A    
C28   C30   A    
C41   C57   S    
H28   O5    S    
C58   H9    S    
C20   C37   S    
C38   C53   S    
C16   C19   A    
C15   C68   S    
C42   C47   A    
C68   H24   S    
C7    O27   S    
C50   H12   S    
C57   O13   D    
C40   C44   A    
C5    C64   S    
H20   O29   S    
C6    N2    A    
C31   C36   A    
C10   O30   S    
C69   O33   D    
H6    O15   S    
C44   C48   A    
C56   C71   A    
Cu1   O36   S    
