data_mof_unit_63516.cif
_audit_creation_date              2012-12-10T21:34:57-0500
_audit_creation_method            fapswitch 2.2
_symmetry_space_group_name_H-M    P1
_symmetry_Int_Tables_number       1
_space_group_crystal_system       triclinic
_cell_length_a                    10.746665
_cell_length_b                    16.162249
_cell_length_c                    16.914064
_cell_angle_alpha                 89.851478
_cell_angle_beta                  90.282653
_cell_angle_gamma                 93.093505
_cell_volume                      2933.48379231

loop_
_atom_site_label
_atom_site_type_symbol
_atom_type_description
_atom_site_fract_x
_atom_site_fract_y
_atom_site_fract_z
_atom_type_partial_charge
C1    C     C_R   0.499409 0.490420 0.652388 0.868717
C2    C     C_R   0.574969 0.428692 0.775238 -0.214947
C3    C     C_R   0.520909 0.438251 0.136191 -0.114942
C4    C     C_R   0.742716 0.500532 0.499604 0.940061
C5    C     C_R   0.544832 0.445881 0.217292 0.304202
C6    C     C_R   0.453559 0.499564 0.097763 0.134662
C7    C     C_R   0.492177 0.510269 0.260694 -0.228307
C8    C     C_R   0.419360 0.567909 0.221427 0.364680
C9    C     C_R   0.401788 0.562209 0.140480 -0.184039
C10   C     C_R   0.473463 0.761360 0.447041 0.060634
C11   C     C_R   0.475130 0.848807 0.448490 -0.219737
C12   C     C_3   0.122514 0.501931 0.506609 -0.189644
C13   C     C_R   0.520246 0.892246 0.515916 0.306436
C14   C     C_R   0.561166 0.845894 0.579326 -0.293268
C15   C     C_R   0.559091 0.758981 0.576025 0.092352
C16   C     C_R   0.499716 0.509341 0.346977 1.082794
C17   C     C_R   0.554868 0.152162 0.537802 -0.235135
C18   C     C_R   0.553610 0.239350 0.542163 0.022839
C19   C     C_R   0.485532 0.108831 0.478276 0.321877
C20   C     C_R   0.416280 0.241605 0.432480 0.106465
C21   C     C_R   0.417592 0.155153 0.425440 -0.283256
C22   C     C_R   0.258498 0.499912 0.507228 0.992457
C23   C     C_3   0.079447 0.523520 0.420484 0.099395
C24   C     C_3   0.922233 0.423832 0.543454 -0.505019
C25   C     C_3   0.061830 0.415639 0.531386 0.224448
C26   C     C_3   0.934262 0.507267 0.410536 -0.269654
C27   C     C_3   0.933651 0.578627 0.549949 0.171553
C28   C     C_3   0.879680 0.502803 0.498754 -0.173837
C29   C     C_2   0.149261 0.650965 0.574476 1.057794
C30   C     C_2   0.879844 0.576614 0.360832 1.024490
C31   C     C_2   0.561006 0.364853 0.092059 1.034968
C32   C     C_2   0.604737 0.716628 0.646662 0.975096
C33   C     C_2   0.336392 0.284816 0.377488 1.001862
C34   C     C_3   0.074369 0.568466 0.566393 -0.366948
C35   C     C_2   0.903766 0.428267 0.361665 1.031940
C36   C     C_R   0.505298 0.487843 0.737253 -0.027602
C37   C     C_R   0.449522 0.549487 0.780297 -0.154378
C38   C     C_R   0.462973 0.551966 0.861481 -0.129222
C39   C     C_R   0.532494 0.492590 0.899769 0.315354
C40   C     C_R   0.589921 0.431938 0.856682 -0.132192
Cl1   Cl    Cl    0.637989 0.372435 0.263710 -0.477653
Cl2   Cl    Cl    0.340808 0.645536 0.270289 -0.538328
Cl3   Cl    Cl    0.128091 0.373522 0.619846 -0.589760
Cl4   Cl    Cl    0.169837 0.477790 0.343709 -0.531566
Cl5   Cl    Cl    0.900446 0.679470 0.510193 -0.491154
H1    H     H_    0.872040 0.364747 0.526707 0.254308
H2    H     H_    0.610387 0.119553 0.580019 0.169474
H3    H     H_    0.596151 0.878009 0.631805 0.180059
H4    H     H_    0.441561 0.881535 0.397415 0.182468
H5    H     H_    0.363079 0.123464 0.379436 0.171155
H6    H     H_    0.437807 0.729270 0.395497 0.211683
H7    H     H_    0.074528 0.370174 0.483458 0.230631
H8    H     H_    0.886652 0.576156 0.608413 0.147879
H9    H     H_    0.080600 0.540580 0.626473 0.182442
H10   H     H_    0.250008 0.728613 0.646305 0.350582
H11   H     H_    0.908385 0.680883 0.295631 0.370861
H12   H     H_    0.104780 0.590462 0.413593 0.257149
H13   H     H_    0.700076 0.291743 0.063199 0.351766
H14   H     H_    0.726455 0.639851 0.693927 0.328513
H15   H     H_    0.307486 0.323786 0.265932 0.368160
H16   H     H_    0.910504 0.372989 0.254599 0.393181
H17   H     H_    0.643979 0.386471 0.886520 0.167003
H18   H     H_    0.620164 0.381797 0.741835 0.159765
H19   H     H_    0.419689 0.599897 0.894567 0.170186
H20   H     H_    0.348191 0.607550 0.110015 0.201868
H21   H     H_    0.901360 0.430070 0.607560 0.201433
H22   H     H_    0.395944 0.595635 0.751036 0.206276
H23   H     H_    0.608735 0.272132 0.586990 0.136628
N1    N     N_2   0.543333 0.491515 0.982117 -0.168291
N2    N     N_2   0.442452 0.502709 0.015122 -0.136827
N3    N     N_R   0.515460 0.716920 0.509720 -0.134310
N4    N     N_2   0.527241 0.980906 0.523912 -0.157791
N5    N     N_2   0.480082 0.020309 0.468708 -0.153222
N6    N     N_R   0.484530 0.283060 0.490290 -0.127458
O1    O     O_R   0.494470 0.422540 0.612660 -0.623203
O2    O     O_R   0.199805 0.673694 0.648114 -0.809075
O3    O     O_2   0.768361 0.574154 0.345812 -0.634281
O4    O     O_R   0.956604 0.640405 0.327987 -0.706293
O5    O     O_2   0.486020 0.325409 0.050302 -0.594971
O6    O     O_R   0.684579 0.342178 0.096522 -0.736049
O7    O     O_2   0.560813 0.731419 0.711353 -0.647724
O8    O     O_R   0.702662 0.663934 0.640884 -0.749736
O9    O     O_2   0.234264 0.304763 0.399201 -0.594547
O10   O     O_R   0.371710 0.294967 0.298589 -0.751513
O11   O     O_2   0.852170 0.366298 0.390551 -0.586559
O12   O     O_R   0.504400 0.561840 0.618900 -0.635606
O13   O     O_R   0.930983 0.428497 0.280685 -0.692941
O14   O     O_R   0.680240 0.430340 0.496890 -0.612352
O15   O     O_R   0.690170 0.569650 0.503130 -0.534232
O16   O     O_R   0.495600 0.438160 0.381100 -0.584763
O17   O     O_R   0.505530 0.577460 0.387340 -0.580817
O18   O     O_R   0.309830 0.430350 0.496870 -0.559417
O19   O     O_R   0.319760 0.569660 0.503110 -0.628147
O20   O     O_2   0.167857 0.696436 0.517286 -0.549475
Zn1   Zn    Zn3+2 0.493370 0.406980 0.495830 1.055242
Zn2   Zn    Zn3+2 0.506630 0.593020 0.504170 1.056401

loop_
_geom_bond_atom_site_label_1
_geom_bond_atom_site_label_2
_ccdc_geom_bond_type
C16   O16   A    
H15   O10   S    
H14   O8    S    
C3    C6    A    
C25   Cl3   S    
C6    C9    A    
O1    Zn1   S    
C7    C8    A    
C29   O2    S    
C32   O7    D    
C12   C23   S    
C40   H17   S    
C36   C37   A    
C19   C21   A    
C8    Cl2   S    
C29   O20   D    
C18   H23   S    
C12   C22   S    
H11   O4    S    
C6    N2    S    
C23   C26   S    
H16   O13   S    
O17   Zn2   S    
C30   O3    D    
C35   O13   S    
C8    C9    A    
C24   H21   S    
C10   N3    A    
C27   Cl5   S    
O14   Zn1   S    
C18   N6    A    
C13   C14   A    
C10   H6    S    
C21   H5    S    
C4    C28   S    
C38   H19   S    
C27   C34   S    
C1    O1    A    
C17   H2    S    
C19   N5    S    
C24   C25   S    
C31   O6    S    
C39   C40   A    
C5    C7    A    
C14   H3    S    
N3    Zn2   S    
C29   C34   S    
O18   Zn1   S    
C23   Cl4   S    
C37   C38   A    
C11   H4    S    
C17   C18   A    
C39   N1    S    
C20   N6    A    
C3    C31   S    
C33   O9    D    
O12   Zn2   S    
H10   O2    S    
C7    C16   S    
C26   C30   S    
O19   Zn2   S    
C22   O19   A    
C20   C33   S    
C12   C34   S    
C15   N3    A    
C2    H18   S    
C4    O15   A    
C2    C36   A    
C1    O12   A    
C23   H12   S    
C5    Cl1   S    
C35   O11   D    
N6    Zn1   S    
C24   C28   S    
N4    N5    D    
C3    C5    A    
C15   C32   S    
C27   H8    S    
C31   O5    D    
C4    O14   A    
C13   N4    S    
H13   O6    S    
C32   O8    S    
C26   C28   S    
C12   C25   S    
C24   H1    S    
O15   Zn2   S    
C25   H7    S    
C11   C13   A    
C34   H9    S    
C38   C39   A    
C37   H22   S    
C17   C19   A    
N1    N2    D    
C33   O10   S    
C9    H20   S    
C10   C11   A    
C30   O4    S    
C2    C40   A    
C26   C35   S    
C20   C21   A    
C16   O17   A    
C27   C28   S    
C22   O18   A    
C14   C15   A    
O16   Zn1   S    
C1    C36   S    
