data_mof_unit_13359.cif
_audit_creation_date              2012-12-10T20:38:16-0500
_audit_creation_method            fapswitch 2.2
_symmetry_space_group_name_H-M    P1
_symmetry_Int_Tables_number       1
_space_group_crystal_system       triclinic
_cell_length_a                    9.858749
_cell_length_b                    10.66502
_cell_length_c                    16.741372
_cell_angle_alpha                 90.317657
_cell_angle_beta                  84.416678
_cell_angle_gamma                 90.078124
_cell_volume                      1751.87214816

loop_
_atom_site_label
_atom_site_type_symbol
_atom_type_description
_atom_site_fract_x
_atom_site_fract_y
_atom_site_fract_z
_atom_type_partial_charge
C1    C     C_R   0.501042 0.739950 0.495224 0.912550
C2    C     C_R   0.364752 0.478368 0.791356 0.372581
C3    C     C_R   0.470384 0.449221 0.130441 -0.179150
C4    C     C_R   0.456581 0.433117 0.212937 0.408441
C5    C     C_R   0.633294 0.590433 0.224591 -0.260382
C6    C     C_R   0.646111 0.607122 0.142041 0.472243
C7    C     C_R   0.562007 0.538048 0.095401 -0.023210
C8    C     C_2   0.455358 0.618176 0.982079 0.246537
C9    C     C_2   0.562511 0.560567 0.010170 0.311696
C10   C     C_R   0.536578 0.506130 0.260318 -0.209693
C11   C     C_R   0.379256 0.935955 0.492137 0.091783
C12   C     C_R   0.479923 0.502974 0.653087 0.920069
C13   C     C_R   0.502312 0.871307 0.480007 -0.213010
C14   C     C_R   0.622147 0.936788 0.451385 0.424534
C15   C     C_R   0.620484 0.066886 0.454191 -0.216348
C16   C     C_R   0.500455 0.128908 0.483287 -0.183231
C17   C     C_R   0.378311 0.063507 0.493531 0.198323
C18   C     C_3   0.265754 0.069643 0.559948 -0.378726
C19   C     C_3   0.266247 0.927536 0.558296 -0.446252
C20   C     C_R   0.923401 0.596763 0.534673 0.246543
C21   C     C_R   0.934415 0.410947 0.459340 -0.210451
C22   C     C_R   0.078372 0.410913 0.459249 0.694174
C23   C     C_R   0.500258 0.260008 0.497267 0.934744
C24   C     C_R   0.065851 0.595677 0.535570 0.042425
C25   C     C_3   0.056782 0.631830 0.622053 -0.493024
C26   C     C_3   0.903056 0.637079 0.620427 0.187888
C27   C     C_R   0.520004 0.498701 0.346895 0.941546
C28   C     C_R   0.464177 0.535444 0.737461 -0.135611
C29   C     C_R   0.543208 0.634468 0.762912 -0.222674
C30   C     C_R   0.529939 0.671873 0.842525 -0.053651
C31   C     C_R   0.438698 0.608885 0.897264 0.057146
C32   C     C_R   0.353063 0.515274 0.871576 -0.117446
H1    H     H_    0.615866 0.682272 0.721149 0.211658
H2    H     H_    0.713722 0.118421 0.437620 0.203913
H3    H     H_    0.298960 0.110152 0.616252 0.224839
H4    H     H_    0.171236 0.110913 0.540059 0.249229
H5    H     H_    0.299119 0.885098 0.613814 0.206619
H6    H     H_    0.172094 0.887199 0.536994 0.249757
H7    H     H_    0.884957 0.337721 0.427839 0.191539
H8    H     H_    0.090291 0.555165 0.660355 0.226644
H9    H     H_    0.104945 0.723883 0.632049 0.235310
H10   H     H_    0.846667 0.567715 0.660349 0.147218
H11   H     H_    0.695492 0.646368 0.261199 0.225222
H12   H     H_    0.284007 0.465528 0.914751 0.203804
H13   H     H_    0.407480 0.394657 0.093485 0.204404
H14   H     H_    0.597021 0.743626 0.862554 0.197194
N1    N     N_R   0.857140 0.500860 0.500530 -0.165076
N2    N     N_R   0.142780 0.500820 0.500530 -0.163224
O1    O     O_R   0.385310 0.683210 0.499990 -0.626800
O2    O     O_R   0.614650 0.683240 0.500000 -0.548315
O3    O     O_R   0.371780 0.500000 0.615800 -0.595954
O4    O     O_R   0.601120 0.500040 0.615800 -0.622738
O5    O     O_R   0.385350 0.316760 0.500000 -0.556092
O6    O     O_R   0.614690 0.316790 0.500010 -0.632980
O7    O     O_R   0.398880 0.499960 0.384200 -0.545101
O8    O     O_R   0.628220 0.500000 0.384200 -0.612928
Zn1   Zn    Zn3+2 0.346870 0.499980 0.499990 1.055284
Zn2   Zn    Zn3+2 0.653130 0.500020 0.500010 1.016362
Cl1   Cl    Cl    0.762718 0.718997 0.099409 -0.432104
Cl2   Cl    Cl    0.776566 0.863423 0.415189 -0.512935
F1    F     F_    0.152012 0.318762 0.419673 -0.598760
Cl3   Cl    Cl    0.341437 0.318783 0.254048 -0.449744
Cl4   Cl    Cl    0.838442 0.793395 0.629262 -0.554309
Cl5   Cl    Cl    0.694423 0.488276 0.946928 -0.496449
Cl6   Cl    Cl    0.261585 0.354509 0.762113 -0.573955
Cl7   Cl    Cl    0.321136 0.685172 0.045953 -0.481899

loop_
_geom_bond_atom_site_label_1
_geom_bond_atom_site_label_2
_ccdc_geom_bond_type
C10   C27   S    
C22   N2    A    
C26   Cl4   S    
C18   H4    S    
C8    Cl7   S    
C6    C7    A    
O3    Zn1   S    
C19   H6    S    
C29   H1    S    
C9    Cl5   S    
C14   Cl2   S    
C18   H3    S    
C15   H2    S    
C31   C32   A    
C21   H7    S    
C30   C31   A    
C2    Cl6   S    
C20   C24   A    
C27   O8    A    
O6    Zn2   S    
C17   C18   S    
C5    H11   S    
C3    H13   S    
N2    Zn1   S    
C13   C14   A    
C22   F1    S    
C11   C13   A    
C11   C19   S    
C29   C30   A    
C20   C26   S    
C12   C28   S    
C28   C29   A    
C12   O4    A    
O8    Zn2   S    
C23   O5    A    
C16   C23   S    
C3    C7    A    
O7    Zn1   S    
C25   H8    S    
C32   H12   S    
C5    C6    A    
O4    Zn2   S    
C27   O7    A    
C20   N1    A    
C1    C13   S    
C4    C10   A    
C15   C16   A    
O2    Zn2   S    
C4    Cl3   S    
C5    C10   A    
C12   O3    A    
O1    Zn1   S    
C24   C25   S    
C26   H10   S    
C23   O6    A    
C2    C32   A    
C18   C19   S    
C1    O2    A    
C25   H9    S    
C7    C9    S    
O5    Zn1   S    
C14   C15   A    
C11   C17   A    
C2    C28   A    
C19   H5    S    
N1    Zn2   S    
C25   C26   S    
C21   C22   A    
C8    C31   S    
C1    O1    A    
C6    Cl1   S    
C30   H14   S    
C3    C4    A    
C16   C17   A    
C8    C9    D    
C21   N1    A    
C24   N2    A    
