data_mof_unit_47795.cif
_audit_creation_date              2012-12-10T20:36:33-0500
_audit_creation_method            fapswitch 2.2
_symmetry_space_group_name_H-M    P1
_symmetry_Int_Tables_number       1
_space_group_crystal_system       triclinic
_cell_length_a                    10.496188
_cell_length_b                    10.656057
_cell_length_c                    9.945224
_cell_angle_alpha                 89.963359
_cell_angle_beta                  90.440125
_cell_angle_gamma                 91.24289
_cell_volume                      1112.05854892

loop_
_atom_site_label
_atom_site_type_symbol
_atom_type_description
_atom_site_fract_x
_atom_site_fract_y
_atom_site_fract_z
_atom_type_partial_charge
C1    C     C_R   0.499877 0.260540 0.499619 0.946395
C2    C     C_3   0.956584 0.474354 0.375732 -0.142420
C3    C     C_3   0.038221 0.390304 0.465518 0.180054
C4    C     C_3   0.122420 0.503760 0.500174 0.008450
C5    C     C_R   0.600360 0.066526 0.560117 -0.122012
C6    C     C_R   0.502199 0.128399 0.495254 -0.141953
C7    C     C_R   0.417050 0.062114 0.409718 0.445055
C8    C     C_R   0.418853 0.931473 0.410846 -0.326999
C9    C     C_R   0.503314 0.870909 0.497029 -0.043472
C10   C     C_R   0.599068 0.938425 0.563628 -0.017311
C11   C     C_3   0.651038 0.933375 0.704024 0.164567
C12   C     C_R   0.257619 0.501888 0.499798 0.871274
C13   C     C_3   0.654374 0.076712 0.699648 0.250401
C14   C     C_R   0.390807 0.474389 0.070761 0.081158
C15   C     C_R   0.602195 0.543276 0.074179 -0.120203
C16   C     C_R   0.602175 0.546586 0.931006 0.234251
C17   C     C_R   0.391254 0.470121 0.929219 0.141254
C18   C     C_3   0.309843 0.350847 0.932725 0.499342
C19   C     C_3   0.306695 0.362176 0.085548 -0.411674
C20   C     C_R   0.501380 0.739244 0.499895 0.888555
C21   C     C_R   0.742298 0.500912 0.500278 0.868605
C22   C     C_3   0.042344 0.532213 0.624441 -0.182010
C23   C     C_3   0.956684 0.416859 0.589350 -0.160256
C24   C     C_3   0.877133 0.502354 0.500269 -0.010691
C25   C     C_3   0.959697 0.617684 0.535584 -0.192556
C26   C     C_3   0.042357 0.589542 0.411505 -0.198583
H1    H     H_    0.918033 0.346643 0.661584 0.203142
H2    H     H_    0.745369 0.887842 0.711136 0.092174
H3    H     H_    0.590345 0.122020 0.771794 0.170838
H4    H     H_    0.685126 0.575792 0.130510 0.153208
H5    H     H_    0.212056 0.387136 0.125918 0.207282
H6    H     H_    0.354667 0.285920 0.141165 0.228508
H7    H     H_    0.080342 0.557644 0.725485 0.187433
H8    H     H_    0.922129 0.710386 0.564525 0.132458
H9    H     H_    0.081678 0.659769 0.339565 0.145045
H10   H     H_    0.918244 0.449823 0.274499 0.152800
H11   H     H_    0.350593 0.877530 0.350777 0.148402
N1    N     N_R   0.499140 0.499140 0.142800 -0.120070
N2    N     N_R   0.499140 0.499180 0.857150 -0.123433
O1    O     O_R   0.500020 0.316790 0.614690 -0.640452
O2    O     O_R   0.500000 0.316760 0.385350 -0.575245
O3    O     O_R   0.313960 0.499990 0.614650 -0.636697
O4    O     O_R   0.313940 0.499950 0.385310 -0.611550
O5    O     O_R   0.500000 0.683240 0.614650 -0.571635
O6    O     O_R   0.499980 0.683210 0.385310 -0.630411
O7    O     O_R   0.686060 0.500050 0.614690 -0.623842
O8    O     O_R   0.686040 0.500010 0.385350 -0.637726
Zn1   Zn    Zn3+2 0.500010 0.500020 0.653130 0.965489
Zn2   Zn    Zn3+2 0.499990 0.499980 0.346870 0.958938
O9    O     O_3   0.778660 0.129105 0.702936 -0.780135
H12   H     H_    0.829516 0.089784 0.631041 0.329151
C27   C     C_3   0.717520 0.603943 0.865356 -0.807332
H13   H     H_    0.689162 0.665226 0.781042 0.277373
H14   H     H_    0.772608 0.664717 0.936656 0.187948
H15   H     H_    0.781979 0.528964 0.832538 0.253555
O10   O     O_3   0.187982 0.366552 0.876846 -0.756606
H16   H     H_    0.196087 0.357059 0.778219 0.350425
C28   C     C_3   0.373053 0.229317 0.888397 -0.855761
H17   H     H_    0.474265 0.229690 0.921583 0.212473
H18   H     H_    0.323040 0.147352 0.934704 0.249516
H19   H     H_    0.365931 0.217303 0.778254 0.247174
C29   C     C_3   0.083590 0.261314 0.426148 -0.870178
H20   H     H_    0.000471 0.195904 0.415048 0.235698
H21   H     H_    0.134086 0.268176 0.328922 0.272961
H22   H     H_    0.148784 0.225431 0.504999 0.253711
O11   O     O_3   0.329793 0.125753 0.332556 -0.806266
H23   H     H_    0.278019 0.064544 0.279115 0.330326
O12   O     O_3   0.560235 0.886748 0.794909 -0.742774
H24   H     H_    0.602584 0.889013 0.884413 0.334867

loop_
_geom_bond_atom_site_label_1
_geom_bond_atom_site_label_2
_ccdc_geom_bond_type
C4    C26   S    
C23   C24   S    
C15   N1    A    
C6    C7    A    
C18   O10   S    
C8    H11   S    
C4    C12   S    
C4    C22   S    
C9    C10   A    
C9    C20   S    
C29   H21   S    
C20   O6    A    
C29   H22   S    
C27   H15   S    
O6    Zn2   S    
C25   H8    S    
C19   H5    S    
C28   H19   S    
C17   C18   S    
C28   H17   S    
C7    C8    A    
C2    C26   S    
N1    Zn2   S    
O3    Zn1   S    
C3    C4    S    
C24   C25   S    
C7    O11   S    
C11   C13   S    
C14   C17   A    
C29   H20   S    
C11   H2    S    
C19   H6    S    
C5    C13   S    
C1    O2    A    
C20   O5    A    
C27   H14   S    
O11   H23   S    
C12   O4    A    
C2    C3    S    
C23   H1    S    
C2    C24   S    
C5    C6    A    
O12   H24   S    
O7    Zn1   S    
C21   C24   S    
C14   N1    A    
O10   H16   S    
C16   N2    A    
C28   H18   S    
C13   O9    S    
O5    Zn1   S    
C26   H9    S    
C5    C10   A    
C2    H10   S    
C27   H13   S    
C15   H4    S    
O8    Zn2   S    
C21   O7    A    
C10   C11   S    
C3    C29   S    
C13   H3    S    
C1    C6    S    
O1    Zn1   S    
C22   H7    S    
C17   N2    A    
C11   O12   S    
C18   C19   S    
C12   O3    A    
C1    O1    A    
O9    H12   S    
C25   C26   S    
C22   C23   S    
C3    C23   S    
C14   C19   S    
O2    Zn2   S    
C15   C16   A    
O4    Zn2   S    
C18   C28   S    
C16   C27   S    
C21   O8    A    
C8    C9    A    
N2    Zn1   S    
C22   C25   S    
