data_mof_unit_12135.cif
_audit_creation_date              2012-12-11T15:20:42-0500
_audit_creation_method            fapswitch 2.2
_symmetry_space_group_name_H-M    P1
_symmetry_Int_Tables_number       1
_space_group_crystal_system       monoclinic
_cell_length_a                    21.44314
_cell_length_b                    7.248094
_cell_length_c                    20.04898
_cell_angle_alpha                 90.0
_cell_angle_beta                  87.691593
_cell_angle_gamma                 90.0
_cell_volume                      3113.52176395

loop_
_atom_site_label
_atom_site_type_symbol
_atom_type_description
_atom_site_fract_x
_atom_site_fract_y
_atom_site_fract_z
_atom_type_partial_charge
O1    O     O_R   0.688010 0.379840 0.189360 -0.527320
O2    O     O_R   0.311990 0.620160 0.810640 -0.527320
O3    O     O_R   0.811990 0.879840 0.310640 -0.527320
O4    O     O_R   0.188010 0.120160 0.689360 -0.527320
O5    O     O_R   0.808630 0.708850 0.184280 -0.518473
O6    O     O_R   0.191370 0.291150 0.815720 -0.518474
O7    O     O_R   0.691370 0.208850 0.315720 -0.518473
O8    O     O_R   0.308630 0.791150 0.684280 -0.518473
C1    C     C_R   0.830280 0.540828 0.166516 0.709212
C2    C     C_R   0.169720 0.459172 0.833484 0.709212
C3    C     C_R   0.669720 0.040828 0.333484 0.709212
C4    C     C_R   0.330280 0.959172 0.666516 0.709212
O9    O     O_R   0.688260 0.709510 0.181570 -0.538055
O10   O     O_R   0.311740 0.290490 0.818430 -0.538056
O11   O     O_R   0.811740 0.209510 0.318430 -0.538056
O12   O     O_R   0.188260 0.790490 0.681570 -0.538056
O13   O     O_R   0.690760 0.880550 0.307920 -0.523004
O14   O     O_R   0.309240 0.119450 0.692080 -0.523004
O15   O     O_R   0.809240 0.380550 0.192080 -0.523004
O16   O     O_R   0.190760 0.619450 0.807920 -0.523004
C5    C     C_R   0.668149 0.541024 0.166436 0.708928
C6    C     C_R   0.331851 0.458976 0.833564 0.708928
C7    C     C_R   0.831851 0.041024 0.333564 0.708928
C8    C     C_R   0.168149 0.958975 0.666436 0.708928
O17   O     O_3   0.750960 0.546580 0.291460 -0.367690
O18   O     O_3   0.249040 0.453420 0.708540 -0.367690
O19   O     O_3   0.749040 0.046580 0.208540 -0.367690
O20   O     O_3   0.250960 0.953420 0.791460 -0.367690
V1    V     V_3+5 0.749820 0.821150 0.242310 1.425901
V2    V     V_3+5 0.250180 0.178850 0.757690 1.425901
V3    V     V_3+5 0.750180 0.321150 0.257690 1.425901
V4    V     V_3+5 0.249820 0.678850 0.742310 1.425901
C9    C     C_R   0.055334 0.013010 0.640204 -0.052472
C10   C     C_R   0.944666 0.986989 0.359796 -0.052472
C11   C     C_R   0.444665 0.513010 0.859796 -0.052472
C12   C     C_R   0.555334 0.486990 0.140204 -0.052472
C13   C     C_R   0.117276 0.968208 0.618765 -0.100489
C14   C     C_R   0.882724 0.031792 0.381235 -0.100489
C15   C     C_R   0.382724 0.468208 0.881235 -0.100489
C16   C     C_R   0.617276 0.531792 0.118765 -0.100489
C17   C     C_R   0.131477 0.936218 0.550974 -0.231210
C18   C     C_R   0.868523 0.063782 0.449026 -0.231210
C19   C     C_R   0.368523 0.436218 0.949026 -0.231210
C20   C     C_R   0.631477 0.563782 0.050974 -0.231210
C21   C     C_R   0.085303 0.950259 0.503641 0.108428
C22   C     C_R   0.914697 0.049741 0.496359 0.108428
C23   C     C_R   0.414697 0.450260 0.996359 0.108428
C24   C     C_R   0.585303 0.549740 0.003641 0.108429
C25   C     C_R   0.023328 0.993869 0.524119 0.043767
C26   C     C_R   0.976672 0.006131 0.475881 0.043767
C27   C     C_R   0.476672 0.493869 0.975881 0.043767
C28   C     C_R   0.523328 0.506130 0.024119 0.043767
C29   C     C_R   0.007895 0.024586 0.592638 0.062451
C30   C     C_R   0.992105 0.975414 0.407362 0.062451
C31   C     C_R   0.492105 0.524585 0.907362 0.062451
C32   C     C_R   0.507895 0.475415 0.092638 0.062451
C33   C     C_R   0.100452 0.922525 0.435832 -0.183204
C34   C     C_R   0.899548 0.077475 0.564168 -0.183204
C35   C     C_R   0.399548 0.422526 0.064168 -0.183205
C36   C     C_R   0.600452 0.577474 0.935832 -0.183205
C37   C     C_R   0.054813 0.936171 0.388351 -0.188092
C38   C     C_R   0.945187 0.063829 0.611649 -0.188092
C39   C     C_R   0.445187 0.436172 0.111649 -0.188091
C40   C     C_R   0.554813 0.563828 0.888351 -0.188092
H1    H     H_    0.179092 0.902984 0.534989 0.111533
H2    H     H_    0.820908 0.097015 0.465010 0.111533
H3    H     H_    0.320908 0.402985 0.965011 0.111533
H4    H     H_    0.679092 0.597015 0.034989 0.111533
H5    H     H_    0.147990 0.890853 0.419286 0.125216
H6    H     H_    0.852010 0.109147 0.580714 0.125216
H7    H     H_    0.352010 0.390854 0.080714 0.125216
H8    H     H_    0.647990 0.609145 0.919286 0.125216
H9    H     H_    0.069448 0.916185 0.336622 0.142362
H10   H     H_    0.930552 0.083814 0.663378 0.142363
H11   H     H_    0.430552 0.416186 0.163378 0.142362
H12   H     H_    0.569449 0.583813 0.836622 0.142363
C41   C     C_1   0.382119 0.969748 0.613953 -0.198990
C42   C     C_1   0.617881 0.030252 0.386047 -0.198990
C43   C     C_1   0.117881 0.469748 0.886047 -0.198990
C44   C     C_1   0.882119 0.530252 0.113953 -0.198990
C45   C     C_1   0.425653 0.980669 0.571071 -0.027744
C46   C     C_1   0.574347 0.019331 0.428929 -0.027744
C47   C     C_1   0.074347 0.480669 0.928929 -0.027744
C48   C     C_1   0.925653 0.519331 0.071070 -0.027744
C49   C     C_1   0.477897 0.994243 0.521022 -0.025308
C50   C     C_1   0.522103 0.005757 0.478978 -0.025308
C51   C     C_1   0.022103 0.494243 0.978978 -0.025308
C52   C     C_1   0.977897 0.505757 0.021022 -0.025308
C53   C     C_R   0.040486 0.044358 0.712219 0.080939
C54   C     C_R   0.042015 0.896804 0.757548 -0.127448
C55   C     C_R   0.025956 0.925444 0.825026 -0.122923
C56   C     C_R   0.007989 0.100826 0.847502 -0.081529
C57   C     C_R   0.006599 0.248300 0.802627 -0.125917
C58   C     C_R   0.023454 0.220913 0.735321 -0.140137
H13   H     H_    0.055011 0.759733 0.740505 0.100990
H14   H     H_    0.026882 0.811426 0.859781 0.118349
H15   H     H_    0.995086 0.122388 0.899665 0.115024
H16   H     H_    0.992441 0.383966 0.819954 0.115366
H17   H     H_    0.022268 0.336172 0.700998 0.111535
C59   C     C_R   0.959513 0.955642 0.287781 0.080939
C60   C     C_R   0.976546 0.779087 0.264680 -0.140137
C61   C     C_R   0.993401 0.751700 0.197373 -0.125917
C62   C     C_R   0.992010 0.899173 0.152498 -0.081529
C63   C     C_R   0.974043 0.074555 0.174974 -0.122922
C64   C     C_R   0.957984 0.103195 0.242451 -0.127447
H18   H     H_    0.977733 0.663828 0.299002 0.111535
H19   H     H_    0.007558 0.616034 0.180046 0.115367
H20   H     H_    0.004913 0.877611 0.100335 0.115024
H21   H     H_    0.973117 0.188572 0.140218 0.118349
H22   H     H_    0.944988 0.240267 0.259494 0.100990
C65   C     C_R   0.459514 0.544357 0.787781 0.080939
C66   C     C_R   0.457984 0.396804 0.742451 -0.127447
C67   C     C_R   0.474043 0.425444 0.674974 -0.122923
C68   C     C_R   0.492010 0.600825 0.652498 -0.081529
C69   C     C_R   0.493401 0.748299 0.697373 -0.125917
C70   C     C_R   0.476547 0.720912 0.764679 -0.140137
H23   H     H_    0.444988 0.259733 0.759494 0.100991
H24   H     H_    0.473117 0.311427 0.640218 0.118350
H25   H     H_    0.504913 0.622388 0.600335 0.115024
H26   H     H_    0.507559 0.883965 0.680046 0.115367
H27   H     H_    0.477733 0.836171 0.799002 0.111535
C71   C     C_R   0.540486 0.455643 0.212219 0.080939
C72   C     C_R   0.523454 0.279088 0.235321 -0.140137
C73   C     C_R   0.506599 0.251701 0.302627 -0.125917
C74   C     C_R   0.507989 0.399175 0.347502 -0.081528
C75   C     C_R   0.525957 0.574557 0.325026 -0.122923
C76   C     C_R   0.542015 0.603196 0.257548 -0.127448
H28   H     H_    0.522267 0.163828 0.200998 0.111535
H29   H     H_    0.492441 0.116035 0.319954 0.115366
H30   H     H_    0.495086 0.377613 0.399665 0.115024
H31   H     H_    0.526882 0.688575 0.359781 0.118349
H32   H     H_    0.555011 0.740268 0.240505 0.100990

loop_
_geom_bond_atom_site_label_1
_geom_bond_atom_site_label_2
_ccdc_geom_bond_type
C34   C38   A    
C47   C51   S    
C64   H22   S    
O17   V3    S    
C57   C58   A    
O19   V1    S    
O13   V1    S    
O3    C7    A    
C65   C66   A    
C44   C48   T    
O15   V3    S    
C68   C69   A    
C72   H28   S    
C72   C73   A    
C49   C50   T    
O1    C5    A    
C21   C33   A    
C59   C64   A    
C26   C30   A    
C75   H31   S    
O9    V1    S    
C14   C18   A    
C11   C15   A    
O4    C8    A    
C36   H8    S    
C69   C70   A    
O1    V3    S    
O2    V4    S    
C18   C22   A    
C71   C76   A    
O3    V1    S    
C76   H32   S    
C66   C67   A    
C55   H14   S    
C74   H30   S    
C1    O15   A    
C2    O16   A    
O2    C6    A    
C10   C59   S    
C62   H20   S    
O14   V2    S    
C21   C25   A    
C16   C20   A    
C68   H25   S    
O11   C7    A    
O12   C8    A    
C4    C41   S    
O10   V2    S    
C63   C64   A    
C56   H15   S    
C24   C36   A    
O5    V1    S    
C9    C29   A    
O7    V3    S    
C70   H27   S    
C11   C31   A    
C27   C28   A    
O8    V4    S    
C60   C61   A    
C12   C16   A    
C55   C56   A    
O18   V4    S    
C34   H6    S    
C17   H1    S    
C37   H9    S    
C46   C50   S    
C9    C13   A    
C1    C44   S    
C12   C71   S    
O5    C1    A    
C12   C32   A    
C3    C42   S    
C9    C53   S    
C29   C38   A    
C42   C46   T    
O7    C3    A    
C41   C45   T    
O8    C4    A    
C31   C40   A    
C8    C13   S    
C40   H12   S    
C32   C39   A    
O9    C5    A    
C61   H19   S    
C33   C37   A    
C65   C70   A    
O6    V2    S    
C10   C30   A    
C74   C75   A    
C20   H4    S    
C11   C65   S    
C67   C68   A    
O16   V4    S    
C60   H18   S    
C3    O13   A    
C10   C14   A    
C48   C52   S    
C54   H13   S    
C53   C58   A    
C23   C27   A    
C2    C43   S    
C69   H26   S    
O11   V3    S    
C30   C37   A    
O12   V4    S    
C7    C14   S    
C22   C26   A    
C35   C39   A    
C66   H23   S    
C36   C40   A    
O10   C6    A    
O20   V2    S    
C53   C54   A    
C43   C47   T    
C54   C55   A    
C63   H21   S    
C5    C16   S    
C39   H11   S    
C58   H17   S    
C75   C76   A    
C25   C29   A    
C6    C15   S    
C56   C57   A    
C73   H29   S    
C27   C31   A    
C13   C17   A    
C61   C62   A    
O4    V2    S    
O6    C2    A    
C23   C35   A    
C67   H24   S    
C28   C32   A    
C24   C28   A    
C15   C19   A    
C51   C52   T    
C19   H3    S    
C25   C26   A    
C22   C34   A    
C4    O14   A    
C62   C63   A    
C18   H2    S    
C17   C21   A    
C38   H10   S    
C59   C60   A    
C33   H5    S    
C71   C72   A    
C19   C23   A    
C57   H16   S    
C45   C49   S    
C20   C24   A    
C35   H7    S    
C73   C74   A    
