data_mof_unit_6329.cif
_audit_creation_date              2012-12-10T18:43:48-0500
_audit_creation_method            fapswitch 2.2
_symmetry_space_group_name_H-M    P1
_symmetry_Int_Tables_number       1
_space_group_crystal_system       triclinic
_cell_length_a                    10.704716
_cell_length_b                    10.863675
_cell_length_c                    9.790868
_cell_angle_alpha                 90.735115
_cell_angle_beta                  102.156934
_cell_angle_gamma                 88.771165
_cell_volume                      1112.7749791

loop_
_atom_site_label
_atom_site_type_symbol
_atom_type_description
_atom_site_fract_x
_atom_site_fract_y
_atom_site_fract_z
_atom_type_partial_charge
C1    C     C_R   0.497513 0.260296 0.498536 0.896328
C2    C     C_2   0.883978 0.485197 0.584724 -0.057799
C3    C     C_2   0.070802 0.578864 0.519127 -0.179055
C4    C     C_2   0.947694 0.514092 0.482657 -0.139560
C5    C     C_R   0.575852 0.063880 0.421594 -0.084342
C6    C     C_R   0.432679 0.939654 0.585824 -0.085746
C7    C     C_R   0.579042 0.935407 0.420849 0.104945
C8    C     C_R   0.418662 0.067253 0.573318 0.085925
C9    C     C_R   0.506658 0.873675 0.504185 -0.166631
C10   C     C_R   0.495563 0.128281 0.496118 -0.182163
C11   C     C_2   0.894193 0.488023 0.331493 0.948580
C12   C     C_R   0.503013 0.740450 0.501553 0.868141
C13   C     C_2   0.094574 0.661825 0.642755 1.027113
C14   C     C_3   0.955973 0.438768 0.726571 -0.404568
C15   C     C_3   0.936429 0.518936 0.850258 -0.785612
C16   C     C_3   0.145255 0.714497 0.354465 -0.325219
C17   C     C_3   0.154461 0.706331 0.200742 -0.793665
C18   C     C_2   0.660592 0.131173 0.348039 0.955449
C19   C     C_2   0.371529 0.877139 0.687452 0.946665
C20   C     C_3   0.668191 0.866683 0.340735 -0.415183
C21   C     C_3   0.784336 0.813106 0.440485 -0.732396
C22   C     C_3   0.316870 0.136056 0.635925 -0.379166
C23   C     C_R   0.259984 0.516164 0.444331 0.889126
C24   C     C_3   0.356675 0.151991 0.794742 -0.753602
C25   C     C_R   0.742828 0.491767 0.555907 0.938476
C26   C     C_R   0.592790 0.559060 0.094164 -0.081245
C27   C     C_R   0.403380 0.446779 0.905007 -0.035297
C28   C     C_R   0.593297 0.558485 0.950200 -0.039954
C29   C     C_R   0.404362 0.444935 0.049323 -0.063627
C30   C     C_2   0.141206 0.589059 0.421273 -0.042505
H1    H     H_    0.665406 0.607684 0.166337 0.172462
H2    H     H_    0.059972 0.428466 0.729381 0.220188
H3    H     H_    0.923142 0.344398 0.741123 0.220349
H4    H     H_    0.252814 0.680338 0.190382 0.264185
H5    H     H_    0.086497 0.638705 0.143049 0.286178
H6    H     H_    0.131206 0.797828 0.151556 0.242085
H7    H     H_    0.227762 0.766627 0.413155 0.191984
H8    H     H_    0.057763 0.769318 0.360339 0.234711
H9    H     H_    0.691472 0.188644 0.162919 0.347015
H10   H     H_    0.395280 0.797453 0.876816 0.337635
H11   H     H_    0.756452 0.749972 0.516334 0.248569
H12   H     H_    0.324781 0.407358 0.831338 0.148604
H13   H     H_    0.844510 0.761264 0.379783 0.259304
H14   H     H_    0.841076 0.888911 0.498450 0.292583
H15   H     H_    0.618012 0.796092 0.269074 0.231332
H16   H     H_    0.705071 0.925759 0.267502 0.219749
H17   H     H_    0.447321 0.202788 0.823451 0.273232
H18   H     H_    0.280011 0.203128 0.833291 0.216641
H19   H     H_    0.370096 0.062996 0.849801 0.272176
H20   H     H_    0.291820 0.227644 0.588050 0.199171
H21   H     H_    0.224947 0.087162 0.609261 0.238919
H22   H     H_    0.666697 0.606750 0.913047 0.154687
H23   H     H_    0.328016 0.400857 0.085874 0.139494
H24   H     H_    0.812514 0.366675 0.184998 0.322281
H25   H     H_    0.196723 0.692603 0.837275 0.335700
H26   H     H_    0.927120 0.617960 0.823376 0.280697
H27   H     H_    0.849780 0.490527 0.885825 0.258603
H28   H     H_    0.019137 0.505622 0.938892 0.241371
N1    N     N_R   0.499970 0.499970 0.857200 -0.074938
N2    N     N_R   0.500030 0.500030 0.142800 -0.085945
O1    O     O_R   0.499990 0.316750 0.614620 -0.616750
O2    O     O_R   0.842311 0.373428 0.290139 -0.749939
O3    O     O_2   0.020640 0.747434 0.651007 -0.634627
O4    O     O_R   0.197479 0.637234 0.753328 -0.793940
O5    O     O_2   0.762652 0.169242 0.413455 -0.597485
O6    O     O_R   0.623724 0.147666 0.203662 -0.798560
O7    O     O_2   0.255507 0.870544 0.665829 -0.646838
O8    O     O_R   0.447278 0.833503 0.812317 -0.775164
O9    O     O_R   0.500010 0.683250 0.385380 -0.636124
O10   O     O_R   0.499990 0.316780 0.385290 -0.593939
O11   O     O_R   0.500010 0.683220 0.614710 -0.577225
O12   O     O_R   0.317810 0.500000 0.571850 -0.599209
O13   O     O_R   0.682190 0.500000 0.428150 -0.605321
O14   O     O_R   0.317810 0.500030 0.342520 -0.620804
O15   O     O_R   0.682190 0.499970 0.657480 -0.617246
O16   O     O_2   0.898825 0.565405 0.243333 -0.693156
Zn1   Zn    Zn3+2 0.500000 0.499980 0.653120 0.984758
Zn2   Zn    Zn3+2 0.500000 0.500020 0.346880 0.969136

loop_
_geom_bond_atom_site_label_1
_geom_bond_atom_site_label_2
_ccdc_geom_bond_type
C3    C13   S    
C3    C30   D    
C8    C22   S    
C12   O9    A    
C5    C7    A    
C19   O7    D    
O12   Zn1   S    
C17   H6    S    
C18   O6    S    
C21   H14   S    
C28   H22   S    
C2    C4    D    
C20   H15   S    
C13   O3    D    
C29   N2    A    
C22   H20   S    
C16   H7    S    
O13   Zn2   S    
C11   O2    S    
H25   O4    S    
N1    Zn1   S    
C14   H3    S    
C26   H1    S    
H9    O6    S    
C27   N1    A    
C15   H26   S    
C4    C11   S    
C6    C19   S    
C15   H27   S    
C27   H12   S    
N2    Zn2   S    
O9    Zn2   S    
C16   C17   S    
C13   O4    S    
C29   H23   S    
C6    C9    A    
C21   H11   S    
C5    C10   A    
C26   C28   A    
C9    C12   S    
C12   O11   A    
C2    C25   S    
C25   O13   A    
C11   O16   D    
O14   Zn2   S    
C2    C14   S    
C15   H28   S    
C22   C24   S    
C28   N1    A    
C27   C29   A    
C17   H4    S    
C23   O14   A    
C16   C30   S    
C3    C4    S    
C24   H18   S    
C23   C30   S    
O11   Zn1   S    
O15   Zn1   S    
C20   C21   S    
C8    C10   A    
C7    C20   S    
H10   O8    S    
O10   Zn2   S    
O1    Zn1   S    
C24   H19   S    
C7    C9    A    
C14   C15   S    
H24   O2    S    
C25   O15   A    
C6    C8    A    
C5    C18   S    
C17   H5    S    
C16   H8    S    
C21   H13   S    
C24   H17   S    
C26   N2    A    
C23   O12   A    
C20   H16   S    
C1    C10   S    
C1    O10   A    
C19   O8    S    
C14   H2    S    
C22   H21   S    
C18   O5    D    
C1    O1    A    
