data_mof_unit_33000.cif
_audit_creation_date              2012-10-26T19:10:02-0400
_audit_creation_method            fapswitch 2.2
_symmetry_space_group_name_H-M    P1
_symmetry_Int_Tables_number       1
_space_group_crystal_system       triclinic
_cell_length_a                    15.106822
_cell_length_b                    15.316902
_cell_length_c                    9.431506
_cell_angle_alpha                 90.134401
_cell_angle_beta                  90.172901
_cell_angle_gamma                 89.901911
_cell_volume                      2182.33434542

loop_
_atom_site_label
_atom_site_type_symbol
_atom_type_description
_atom_site_fract_x
_atom_site_fract_y
_atom_site_fract_z
_atom_type_partial_charge
C1    C     C_R   0.122351 0.382353 0.499969 0.581785
C2    C     C_R   0.881390 0.621460 0.499835 0.559868
C3    C     C_R   0.380115 0.879685 0.499891 0.603867
C4    C     C_R   0.381391 0.121460 0.499835 0.559866
C5    C     C_3   0.802404 0.270516 0.650849 -0.250956
C6    C     C_3   0.839257 0.234570 0.399499 -0.226011
C7    C     C_3   0.830664 0.756902 0.621411 -0.207766
C8    C     C_3   0.816482 0.743635 0.358445 -0.219308
C9    C     C_3   0.302398 0.770522 0.650851 -0.250952
C10   C     C_3   0.339259 0.734568 0.399507 -0.226006
C11   C     C_3   0.330664 0.256901 0.621413 -0.207756
C12   C     C_R   0.121874 0.618175 0.500444 0.608608
C13   C     C_3   0.316483 0.243637 0.358447 -0.219305
C14   C     C_3   0.228593 0.701701 0.654377 0.116251
C15   C     C_3   0.268535 0.661464 0.399133 0.119373
C16   C     C_3   0.260362 0.330022 0.622393 0.105307
C17   C     C_3   0.241783 0.312211 0.354182 0.135257
C18   C     C_3   0.728598 0.201696 0.654376 0.116251
C19   C     C_3   0.768532 0.161466 0.399125 0.119374
C20   C     C_3   0.760360 0.830021 0.622393 0.105320
C21   C     C_3   0.741783 0.812211 0.354182 0.135256
C22   C     C_3   0.719650 0.347596 0.449272 0.410237
C23   C     C_R   0.622350 0.882352 0.499969 0.581816
C24   C     C_3   0.717400 0.650060 0.513472 0.433166
C25   C     C_3   0.219651 0.847595 0.449263 0.410237
C26   C     C_3   0.217400 0.150060 0.513471 0.433166
C27   C     C_3   0.811204 0.310261 0.499889 0.051492
C28   C     C_3   0.812513 0.690888 0.499070 -0.006537
C29   C     C_3   0.311203 0.810262 0.499889 0.051493
C30   C     C_3   0.312513 0.190888 0.499071 -0.006539
C31   C     C_3   0.191521 0.686320 0.501452 0.074923
C32   C     C_3   0.192490 0.314660 0.499696 0.045978
C33   C     C_3   0.691522 0.186319 0.501452 0.074925
C34   C     C_R   0.621874 0.118175 0.500444 0.608622
C35   C     C_3   0.692489 0.814659 0.499695 0.045996
C36   C     C_3   0.149628 0.772859 0.448755 -0.275945
C37   C     C_3   0.147916 0.224854 0.523892 -0.221355
C38   C     C_3   0.649627 0.272860 0.448765 -0.275947
C39   C     C_3   0.647915 0.724854 0.523890 -0.221365
C40   C     C_3   0.955256 0.578248 0.084370 0.213027
C41   C     C_3   0.955840 0.578604 0.915772 0.212325
C42   C     C_3   0.955765 0.421621 0.083904 0.204738
C43   C     C_3   0.955199 0.421970 0.915303 0.212971
C44   C     C_3   0.455256 0.078248 0.084370 0.213027
C45   C     C_3   0.092766 0.500076 0.084035 -0.061639
C46   C     C_3   0.455839 0.078604 0.915772 0.212326
C47   C     C_3   0.455765 0.921621 0.083904 0.204737
C48   C     C_3   0.455199 0.921969 0.915303 0.212972
C49   C     C_3   0.092730 0.499486 0.916847 -0.067663
C50   C     C_3   0.592765 0.000076 0.084035 -0.061639
C51   C     C_3   0.592730 0.999487 0.916847 -0.067665
C52   C     C_R   0.880115 0.379684 0.499891 0.603869
Cu1   Cu    Cu3+1 0.000100 0.500000 0.642410 1.017030
Cu2   Cu    Cu3+1 0.000100 0.500000 0.357590 1.022496
Cu3   Cu    Cu3+1 0.500100 0.000000 0.642410 1.017033
Cu4   Cu    Cu3+1 0.500100 0.000000 0.357590 1.022500
H1    H     H_    0.788305 0.321481 0.731840 0.090917
H2    H     H_    0.904836 0.208268 0.432963 0.140301
H3    H     H_    0.898126 0.785134 0.609170 0.176148
H4    H     H_    0.882315 0.775726 0.349028 0.156145
H5    H     H_    0.366648 0.740104 0.681362 0.166212
H6    H     H_    0.404837 0.708268 0.432978 0.140303
H7    H     H_    0.398127 0.285132 0.609175 0.176152
H8    H     H_    0.382315 0.275729 0.349032 0.156147
H9    H     H_    0.173744 0.726558 0.722731 0.126908
H10   H     H_    0.241271 0.655082 0.289404 0.106625
H11   H     H_    0.225419 0.326975 0.726560 0.096382
H12   H     H_    0.847148 0.258967 0.289524 0.127193
H13   H     H_    0.193372 0.292810 0.270056 0.137989
H14   H     H_    0.673751 0.226551 0.722736 0.126908
H15   H     H_    0.741265 0.155089 0.289397 0.106626
H16   H     H_    0.725417 0.826971 0.726560 0.096356
H17   H     H_    0.693372 0.792811 0.270054 0.137981
H18   H     H_    0.091801 0.790320 0.516138 0.101152
H19   H     H_    0.122651 0.763323 0.339755 0.155169
H20   H     H_    0.114578 0.224465 0.629038 0.120929
H21   H     H_    0.094332 0.214867 0.444019 0.151972
H22   H     H_    0.591802 0.290320 0.516155 0.101154
H23   H     H_    0.830394 0.723684 0.725845 0.073814
H24   H     H_    0.622646 0.263328 0.339767 0.155165
H25   H     H_    0.614574 0.724464 0.629034 0.120932
H26   H     H_    0.594333 0.714866 0.444013 0.151970
H27   H     H_    0.884624 0.576515 0.118773 0.065891
H28   H     H_    0.885438 0.578042 0.879464 0.072467
H29   H     H_    0.885387 0.422483 0.119634 0.102778
H30   H     H_    0.884574 0.423981 0.880313 0.068191
H31   H     H_    0.384624 0.076515 0.118773 0.065891
H32   H     H_    0.385437 0.078041 0.879464 0.072464
H33   H     H_    0.385387 0.922483 0.119633 0.102781
H34   H     H_    0.809018 0.699944 0.264828 0.115041
H35   H     H_    0.384574 0.923980 0.880313 0.068190
H36   H     H_    0.129988 0.558040 0.122386 0.149516
H37   H     H_    0.130297 0.556865 0.878451 0.166150
H38   H     H_    0.130508 0.442598 0.122931 0.158302
H39   H     H_    0.129947 0.441439 0.878705 0.142710
H40   H     H_    0.629988 0.058040 0.122386 0.149516
H41   H     H_    0.630297 0.056866 0.878451 0.166146
H42   H     H_    0.630508 0.942598 0.122931 0.158298
H43   H     H_    0.629947 0.941440 0.878704 0.142702
H44   H     H_    0.270374 0.634189 0.815260 0.299762
H45   H     H_    0.288297 0.821489 0.731837 0.090920
H46   H     H_    0.344457 0.562325 0.358635 0.343190
H47   H     H_    0.263086 0.455323 0.654442 0.375561
H48   H     H_    0.291504 0.393670 0.218758 0.294150
H49   H     H_    0.770388 0.134180 0.815249 0.299757
H50   H     H_    0.844456 0.062329 0.358616 0.343182
H51   H     H_    0.763095 0.955318 0.654498 0.375522
H52   H     H_    0.791503 0.893672 0.218760 0.294146
H53   H     H_    0.673310 0.392928 0.630505 0.314452
H54   H     H_    0.672101 0.409487 0.285233 0.355753
H55   H     H_    0.716783 0.630666 0.719909 0.292030
H56   H     H_    0.347153 0.758962 0.289530 0.127193
H57   H     H_    0.737879 0.550065 0.388667 0.389899
H58   H     H_    0.173304 0.892931 0.630487 0.314453
H59   H     H_    0.172107 0.909482 0.285216 0.355750
H60   H     H_    0.216785 0.130661 0.719905 0.292030
H61   H     H_    0.237879 0.050069 0.388658 0.389897
H62   H     H_    0.950453 0.702339 0.128720 0.293274
H63   H     H_    0.953837 0.703311 0.876379 0.298665
H64   H     H_    0.953733 0.296947 0.122958 0.299576
H65   H     H_    0.950633 0.297754 0.872772 0.296687
H66   H     H_    0.450453 0.202339 0.128719 0.293275
H67   H     H_    0.330391 0.223683 0.725846 0.073812
H68   H     H_    0.453836 0.203311 0.876378 0.298666
H69   H     H_    0.453732 0.796948 0.122959 0.299578
H70   H     H_    0.450635 0.797754 0.872773 0.296690
H71   H     H_    0.309021 0.199946 0.264828 0.115040
H72   H     H_    0.866655 0.240097 0.681353 0.166210
N1    N     N_3   0.001260 0.500000 0.143650 -0.205282
N2    N     N_3   0.001260 0.500000 0.856350 -0.201907
N3    N     N_3   0.501260 0.000000 0.143650 -0.205283
N4    N     N_3   0.501260 1.000000 0.856350 -0.201906
O1    O     O_R   0.091250 0.408820 0.620260 -0.506030
O2    O     O_R   0.908940 0.408800 0.379740 -0.471136
O3    O     O_R   0.908940 0.591200 0.620260 -0.480920
O4    O     O_R   0.908940 0.591200 0.379740 -0.508674
O5    O     O_R   0.408940 0.908800 0.620260 -0.497656
O6    O     O_R   0.408940 0.908800 0.379740 -0.471133
O7    O     O_R   0.408940 0.091200 0.620260 -0.480923
O8    O     O_R   0.408940 0.091200 0.379740 -0.508676
O9    O     O_3   0.261442 0.623547 0.712305 -0.653084
O10   O     O_3   0.306696 0.581445 0.438938 -0.584568
O11   O     O_3   0.302280 0.411467 0.609108 -0.596434
O12   O     O_R   0.091250 0.408820 0.379740 -0.461466
O13   O     O_3   0.276531 0.394775 0.321186 -0.640015
O14   O     O_3   0.761448 0.123540 0.712295 -0.653087
O15   O     O_3   0.806693 0.081445 0.438919 -0.584544
O16   O     O_3   0.802276 0.911468 0.609108 -0.596401
O17   O     O_3   0.776532 0.894775 0.321189 -0.639993
O18   O     O_3   0.692549 0.416953 0.538102 -0.625468
O19   O     O_3   0.728583 0.379971 0.310390 -0.702944
O20   O     O_3   0.711770 0.594755 0.632719 -0.624354
O21   O     O_3   0.696937 0.600613 0.391576 -0.662360
O22   O     O_3   0.192547 0.916954 0.538086 -0.625471
O23   O     O_R   0.091250 0.591180 0.620260 -0.460554
O24   O     O_3   0.228588 0.879967 0.310379 -0.702945
O25   O     O_3   0.211770 0.094753 0.632714 -0.624357
O26   O     O_3   0.196937 0.100616 0.391572 -0.662360
O27   O     O_3   0.994439 0.654585 0.139144 -0.659722
O28   O     O_3   0.996433 0.654612 0.863391 -0.662154
O29   O     O_3   0.996298 0.345474 0.136728 -0.660753
O30   O     O_3   0.994286 0.345470 0.860929 -0.657845
O31   O     O_3   0.494439 0.154585 0.139144 -0.659722
O32   O     O_3   0.496432 0.154612 0.863390 -0.662153
O33   O     O_3   0.496298 0.845474 0.136729 -0.660754
O34   O     O_R   0.091250 0.591180 0.379740 -0.490131
O35   O     O_3   0.494287 0.845470 0.860929 -0.657846
O36   O     O_R   0.591250 0.908820 0.620260 -0.506022
O37   O     O_R   0.591250 0.908820 0.379740 -0.461471
O38   O     O_R   0.591250 0.091180 0.620260 -0.460555
O39   O     O_R   0.591250 0.091180 0.379740 -0.490129
O40   O     O_R   0.908940 0.408800 0.620260 -0.497650

loop_
_geom_bond_atom_site_label_1
_geom_bond_atom_site_label_2
_ccdc_geom_bond_type
C51   H41   S    
Cu2   O12   S    
C40   N1    S    
C22   O18   S    
C18   H14   S    
Cu4   O37   S    
C52   O2    A    
C6    H2    S    
C40   O27   S    
C19   H15   S    
Cu1   O3    S    
C14   C31   S    
Cu3   Cu4   S    
H55   O20   S    
C52   O40   A    
C42   O29   S    
Cu1   Cu2   S    
C27   C52   S    
C44   N3    S    
C17   H13   S    
C6    C19   S    
H54   O19   S    
C9    H5    S    
C3    O6    A    
Cu3   N4    S    
C11   H7    S    
H44   O9    S    
C12   O34   A    
C41   N2    S    
C47   O33   S    
H65   O30   S    
Cu2   O2    S    
C21   H17   S    
C24   C39   S    
Cu3   O7    S    
C26   O25   S    
C3    C29   S    
C45   H36   S    
C24   O20   S    
Cu1   O40   S    
C5    C27   S    
C20   C35   S    
C20   H16   S    
H69   O33   S    
C47   C48   S    
C11   C30   S    
H63   O28   S    
C48   H35   S    
C48   O35   S    
C20   O16   S    
C10   H56   S    
C3    O5    A    
C44   O31   S    
C21   O17   S    
C44   H31   S    
Cu3   O38   S    
C34   O38   A    
C9    C29   S    
C7    C28   S    
C6    H12   S    
C25   O22   S    
C14   O9    S    
C46   O32   S    
C25   O24   S    
C51   H43   S    
C47   H33   S    
C40   H27   S    
H62   O27   S    
C10   H6    S    
Cu3   O36   S    
Cu2   O34   S    
C1    O1    A    
C45   H38   S    
C7    H3    S    
C44   C46   S    
C8    C21   S    
C46   H32   S    
C25   C29   S    
C50   H42   S    
C13   C30   S    
C16   O11   S    
Cu1   O1    S    
C39   H25   S    
H70   O35   S    
C19   C33   S    
C16   H11   S    
C5    C18   S    
C38   H22   S    
C15   H10   S    
C37   H21   S    
C1    C32   S    
C19   O15   S    
H50   O15   S    
H52   O17   S    
C2    O3    A    
C47   N3    S    
C17   O13   S    
C9    C14   S    
C36   H19   S    
C35   C39   S    
C4    O8    A    
C41   O28   S    
Cu4   O6    S    
C11   C16   S    
C6    C27   S    
C23   O37   A    
C45   C49   S    
Cu2   O4    S    
C50   C51   S    
C42   H29   S    
C32   C37   S    
C49   H39   S    
C15   C31   S    
C36   H18   S    
H64   O29   S    
C40   C41   S    
C37   H20   S    
Cu1   O23   S    
C23   C35   S    
C22   C27   S    
C12   C31   S    
C8    C28   S    
C8    H34   S    
C42   C43   S    
C12   O23   A    
C24   O21   S    
C7    H23   S    
Cu2   N1    S    
C22   O19   S    
H61   O26   S    
C43   H30   S    
H48   O13   S    
C43   N2    S    
C11   H67   S    
C24   C28   S    
C39   H26   S    
H57   O21   S    
C18   O14   S    
H47   O11   S    
C51   N4    S    
C26   C37   S    
C26   C30   S    
C21   C35   S    
C13   C17   S    
C16   C32   S    
C49   N2    S    
C15   O10   S    
C33   C38   S    
Cu3   O5    S    
C5    H1    S    
C10   C15   S    
H53   O18   S    
H60   O25   S    
Cu4   O39   S    
C1    O12   A    
C8    H4    S    
C4    O7    A    
C46   N4    S    
H51   O16   S    
C41   H28   S    
C10   C29   S    
C50   H40   S    
C45   N1    S    
C13   H8    S    
C38   H24   S    
Cu4   O8    S    
H49   O14   S    
C5    H72   S    
C14   H9    S    
C33   C34   S    
C26   O26   S    
C42   N1    S    
C18   C33   S    
C2    O4    A    
Cu4   N3    S    
C50   N3    S    
H66   O31   S    
C25   C36   S    
C23   O36   A    
C13   H71   S    
C43   O30   S    
H59   O24   S    
C9    H45   S    
C7    C20   S    
C17   C32   S    
C31   C36   S    
C48   N4    S    
C2    C28   S    
Cu1   N2    S    
H46   O10   S    
C49   H37   S    
H58   O22   S    
C4    C30   S    
C34   O39   A    
H68   O32   S    
C22   C38   S    
