data_mof_unit_52924.cif
_audit_creation_date              2012-12-11T17:39:29-0500
_audit_creation_method            fapswitch 2.2
_symmetry_space_group_name_H-M    P1
_symmetry_Int_Tables_number       1
_space_group_crystal_system       triclinic
_cell_length_a                    15.110389
_cell_length_b                    14.960094
_cell_length_c                    14.957713
_cell_angle_alpha                 108.348962
_cell_angle_beta                  110.301439
_cell_angle_gamma                 109.911368
_cell_volume                      2597.4755457

loop_
_atom_site_label
_atom_site_type_symbol
_atom_type_description
_atom_site_fract_x
_atom_site_fract_y
_atom_site_fract_z
_atom_type_partial_charge
C1    C     C_R   0.909203 0.973649 0.721581 -0.124333
C2    C     C_R   0.997574 0.324908 0.539401 0.053571
C3    C     C_R   0.363694 0.302274 0.802117 0.139097
C4    C     C_R   0.639927 0.943639 0.441765 0.056874
C5    C     C_R   0.751480 0.687203 0.279379 -0.161337
C6    C     C_R   0.251468 0.032068 0.438640 -0.100846
C7    C     C_R   0.092908 0.792612 0.594716 -0.144497
C8    C     C_R   0.907601 0.003234 0.201271 -0.152397
C9    C     C_R   0.088604 0.094898 0.289285 -0.132132
C10   C     C_R   0.912196 0.704302 0.511553 -0.131995
C11   C     C_R   0.751385 0.779861 0.187350 -0.123479
C12   C     C_R   0.090591 0.315100 0.557758 -0.132785
C13   C     C_R   0.259926 0.945390 0.537179 -0.137744
C14   C     C_R   0.725286 0.677405 0.177327 0.129019
C15   C     C_R   0.289614 0.967921 0.465824 0.049898
C16   C     C_R   0.004979 0.704038 0.575563 0.068171
C17   C     C_R   0.994978 0.063660 0.194917 0.069169
C18   C     C_R   0.487282 0.605611 0.286638 -0.096831
C19   C     C_R   0.477413 0.697936 0.302487 -0.148225
C20   C     C_R   0.446899 0.738777 0.377872 0.118941
C21   C     C_R   0.419761 0.681262 0.431694 -0.162884
C22   C     C_R   0.426613 0.586855 0.412979 -0.123751
C23   C     C_R   0.301771 0.208225 0.799592 -0.150781
C24   C     C_R   0.461682 0.549819 0.341534 -0.081944
C25   C     C_R   0.365875 0.855754 0.414702 -0.250462
C26   C     C_R   0.374173 0.958025 0.450996 0.076937
C27   C     C_R   0.466691 0.052012 0.479577 0.006099
C28   C     C_R   0.547945 0.040425 0.466711 -0.253145
C29   C     C_R   0.541592 0.939448 0.432481 0.071013
C30   C     C_R   0.451062 0.845246 0.406741 0.022399
C31   C     C_R   0.466458 0.221870 0.485591 -0.184566
C32   C     C_R   0.500911 0.332177 0.544772 -0.117893
C33   C     C_R   0.562792 0.387346 0.658949 -0.102063
C34   C     C_R   0.699399 0.999718 0.407069 -0.170692
C35   C     C_R   0.589053 0.331866 0.714067 -0.090807
C36   C     C_R   0.552846 0.221068 0.655263 -0.140853
C37   C     C_R   0.491576 0.165303 0.540528 0.133091
C38   C     C_R   0.692979 0.234736 0.234853 -0.136563
C39   C     C_R   0.790001 0.317276 0.332217 -0.140334
C40   C     C_R   0.795005 0.341701 0.433184 0.109212
C41   C     C_R   0.701046 0.284814 0.435437 -0.187472
C42   C     C_R   0.605052 0.200184 0.337641 -0.130157
C43   C     C_R   0.601038 0.175217 0.237764 -0.110990
C44   C     C_R   0.905147 0.531990 0.566924 -0.225969
C45   C     C_R   0.300798 0.300153 0.708362 -0.126517
C46   C     C_R   0.006427 0.624817 0.614750 0.053359
C47   C     C_R   0.102697 0.623467 0.672946 0.044760
C48   C     C_R   0.093204 0.523586 0.660074 -0.243118
C49   C     C_R   0.994255 0.426248 0.580493 0.064387
C50   C     C_R   0.897597 0.431201 0.534887 0.019756
C51   C     C_R   0.283091 0.711927 0.687763 -0.173364
C52   C     C_R   0.379412 0.805627 0.725809 -0.141471
C53   C     C_R   0.408354 0.905674 0.806798 -0.165952
C54   C     C_R   0.344071 0.912284 0.854914 -0.023084
C55   C     C_R   0.248011 0.816804 0.818200 -0.239833
C56   C     C_R   0.699326 0.910112 0.501064 -0.130376
C57   C     C_R   0.214608 0.717592 0.730686 0.104013
C58   C     C_2   0.531703 0.472726 0.882872 -0.147587
C59   C     C_2   0.479225 0.379055 0.881078 -0.179934
C60   C     C_2   0.632815 0.568287 0.979567 -0.126403
C61   C     C_2   0.670651 0.574441 0.077798 -0.182897
C62   C     C_R   0.399487 0.296005 0.129324 -0.133534
C63   C     C_R   0.297463 0.230859 0.112647 -0.083880
C64   C     C_R   0.205732 0.235096 0.051346 0.083408
C65   C     C_R   0.218485 0.307392 0.009202 -0.156367
C66   C     C_R   0.320807 0.372018 0.025684 -0.075156
C67   C     C_R   0.907885 0.220807 0.470942 -0.127883
C68   C     C_R   0.410797 0.365325 0.084674 -0.145525
C69   C     C_R   0.089996 0.163161 0.122351 -0.237449
C70   C     C_R   0.990616 0.095090 0.109570 0.064174
C71   C     C_R   0.892771 0.049881 0.009853 0.027444
C72   C     C_R   0.900019 0.055559 0.921767 -0.236990
C73   C     C_R   0.001201 0.097206 0.927637 0.060871
C74   C     C_R   0.097183 0.164601 0.032251 0.044446
C75   C     C_R   0.726188 0.870937 0.928144 -0.170866
C76   C     C_R   0.624475 0.809260 0.914498 -0.145944
C77   C     C_R   0.578066 0.861432 0.960792 -0.075773
C78   C     C_R   0.091945 0.061575 0.812903 -0.107833
C79   C     C_R   0.630953 0.975386 0.016697 -0.123803
C80   C     C_R   0.731620 0.037670 0.028538 -0.168423
C81   C     C_R   0.781546 0.985498 0.987735 0.111514
C82   C     C_R   0.001998 0.050353 0.824992 0.049568
H1    H     H_    0.824778 0.942027 0.699058 0.093607
H2    H     H_    0.260488 0.063753 0.384923 0.098750
H3    H     H_    0.178229 0.825420 0.644748 0.130632
H4    H     H_    0.823666 0.978972 0.155857 0.130863
H5    H     H_    0.171973 0.153938 0.319678 0.084678
H6    H     H_    0.829268 0.655840 0.490998 0.088120
H7    H     H_    0.740957 0.801636 0.123773 0.106191
H8    H     H_    0.281999 0.901812 0.578027 0.110455
H9    H     H_    0.469758 0.478462 0.329484 0.108396
H10   H     H_    0.516544 0.578831 0.232977 0.114638
H11   H     H_    0.497421 0.739749 0.258883 0.116309
H12   H     H_    0.175193 0.379397 0.607146 0.090292
H13   H     H_    0.396570 0.711197 0.490612 0.104581
H14   H     H_    0.406994 0.543751 0.455669 0.101538
H15   H     H_    0.294226 0.785298 0.395093 0.134231
H16   H     H_    0.621773 0.113194 0.493420 0.139081
H17   H     H_    0.420170 0.180771 0.397152 0.099741
H18   H     H_    0.480944 0.375231 0.502050 0.102249
H19   H     H_    0.590984 0.473215 0.704650 0.098729
H20   H     H_    0.638538 0.374912 0.802397 0.128905
H21   H     H_    0.575071 0.179387 0.698859 0.115664
H22   H     H_    0.526465 0.109717 0.162826 0.139604
H23   H     H_    0.331756 0.176962 0.852048 0.136091
H24   H     H_    0.689233 0.216911 0.157309 0.133441
H25   H     H_    0.861203 0.362431 0.329209 0.115123
H26   H     H_    0.703183 0.304111 0.512547 0.132272
H27   H     H_    0.533669 0.152833 0.338504 0.125478
H28   H     H_    0.829973 0.532617 0.531108 0.124571
H29   H     H_    0.166706 0.521989 0.702005 0.124686
H30   H     H_    0.258727 0.636192 0.620429 0.114183
H31   H     H_    0.430231 0.801378 0.690271 0.123748
H32   H     H_    0.481523 0.977849 0.831964 0.167757
H33   H     H_    0.671065 0.026290 0.348998 0.115987
H34   H     H_    0.194740 0.821010 0.850651 0.162055
H35   H     H_    0.492412 0.487370 0.817597 0.116720
H36   H     H_    0.517522 0.360306 0.942784 0.133451
H37   H     H_    0.661061 0.641619 0.973016 0.119855
H38   H     H_    0.647396 0.502751 0.087234 0.119640
H39   H     H_    0.489922 0.415454 0.097743 0.100222
H40   H     H_    0.469832 0.292739 0.176934 0.121598
H41   H     H_    0.289752 0.175993 0.146168 0.124702
H42   H     H_    0.149153 0.312743 0.962832 0.118689
H43   H     H_    0.330369 0.427043 0.992476 0.117798
H44   H     H_    0.328670 0.350981 0.675125 0.089663
H45   H     H_    0.164161 0.210870 0.201370 0.114977
H46   H     H_    0.824492 0.016200 0.845502 0.126090
H47   H     H_    0.763085 0.829716 0.894809 0.118943
H48   H     H_    0.582207 0.721066 0.869191 0.103813
H49   H     H_    0.500089 0.813565 0.951660 0.120013
H50   H     H_    0.593555 0.015049 0.050587 0.126674
H51   H     H_    0.772887 0.125873 0.073384 0.116990
H52   H     H_    0.671723 0.855523 0.530982 0.105317
H53   H     H_    0.823879 0.194547 0.444941 0.125544
H54   H     H_    0.177190 0.108751 0.874417 0.143502
H55   H     H_    0.741604 0.623167 0.300645 0.101914
N1    N     N_R   0.941940 0.944580 0.650780 -0.042813
N2    N     N_R   0.206190 0.054080 0.497260 -0.040890
N3    N     N_R   0.056380 0.847410 0.553580 -0.042644
N4    N     N_R   0.944890 0.999100 0.292900 -0.042093
N5    N     N_R   0.058060 0.055420 0.349220 -0.040445
N6    N     N_R   0.943200 0.791100 0.497260 -0.039129
N7    N     N_R   0.795540 0.849750 0.292910 -0.044657
N8    N     N_R   0.205730 0.996760 0.553580 -0.040300
N9    N     N_R   0.056800 0.208900 0.502740 -0.040459
N10   N     N_R   0.204460 0.150250 0.707090 -0.047230
N11   N     N_R   0.794270 0.003240 0.446420 -0.038673
N12   N     N_R   0.204920 0.207570 0.650770 -0.044257
N13   N     N_R   0.793810 0.945920 0.502740 -0.039506
N14   N     N_R   0.943620 0.152590 0.446420 -0.042478
N15   N     N_R   0.055110 0.000900 0.707100 -0.045831
N16   N     N_R   0.795080 0.792430 0.349230 -0.038985
Ni1   Ni    Ni4+2 0.869690 0.869690 0.500000 0.212724
Ni2   Ni    Ni4+2 0.130310 0.130310 0.500000 0.213893
Ni3   Ni    Ni4+2 0.129250 0.998840 0.629170 0.223686
Ni4   Ni    Ni4+2 0.870750 0.001160 0.370830 0.213430
C83   C     C_2   0.374289 0.019969 0.937850 0.921492
O1    O     O_2   0.319619 0.027121 0.980940 -0.674639
O2    O     O_R   0.465414 0.114111 0.966183 -0.846407
H56   H     H_    0.477837 0.183085 0.022711 0.314151

loop_
_geom_bond_atom_site_label_1
_geom_bond_atom_site_label_2
_ccdc_geom_bond_type
C66   C68   A    
C40   C41   A    
C51   H30   S    
C41   H26   S    
C13   H8    S    
C41   C42   A    
C3    C23   A    
C35   C36   A    
N3    N6    A    
C13   N8    A    
C33   H19   S    
C35   H20   S    
C2    C12   A    
N11   Ni4   S    
C78   N15   A    
C20   C30   S    
C53   C54   A    
C53   H32   S    
C39   H25   S    
C10   H6    S    
C26   C27   A    
C29   C30   A    
C72   H46   S    
C36   H21   S    
C18   C24   A    
N14   Ni4   S    
C36   C37   A    
N10   N12   A    
C42   H27   S    
N11   N13   A    
C77   H49   S    
C7    N3    A    
C11   C14   A    
C5    N16   A    
C47   C57   S    
C55   H34   S    
C58   C60   S    
C23   H23   S    
N7    N16   A    
C60   H37   S    
C18   C19   A    
C73   C74   A    
C65   H42   S    
C12   N9    A    
C6    N2    A    
C78   C82   A    
C43   H22   S    
C6    C15   A    
C54   C55   A    
N8    Ni3   S    
C76   H48   S    
N9    Ni2   S    
N15   Ni3   S    
C70   C71   A    
C51   C57   A    
C31   H17   S    
N5    Ni2   S    
C11   N7    A    
C45   N12   A    
C4    C29   S    
C19   H11   S    
C72   C73   A    
N1    Ni1   S    
C17   C70   S    
N16   Ni1   S    
C21   C22   A    
C4    C56   A    
C61   H38   S    
C83   O2    S    
C12   H12   S    
C34   N11   A    
C44   C46   A    
C77   C79   A    
C4    C34   A    
C6    H2    S    
C63   C64   A    
C67   N14   A    
C51   C52   A    
C47   C48   A    
C76   C77   A    
C2    C67   A    
C16   C46   S    
C39   C40   A    
C75   C81   A    
C15   C26   S    
C21   H13   S    
N1    N15   A    
C25   C26   A    
C52   H31   S    
C14   C61   S    
C23   N10   A    
C3    C45   A    
C58   H35   S    
C80   H51   S    
C31   C37   A    
C60   C61   D    
C38   H24   S    
C67   H53   S    
C75   C76   A    
C62   C63   A    
C2    C49   S    
C28   H16   S    
C54   C83   S    
C11   H7    S    
C63   H41   S    
C31   C32   A    
N2    Ni2   S    
C45   H44   S    
C69   C74   A    
C9    C17   A    
N10   Ni3   S    
C5    C14   A    
C8    N4    A    
N3    Ni3   S    
N4    Ni4   S    
C48   C49   A    
C49   C50   A    
C59   H36   S    
C13   C15   A    
C83   O1    D    
C22   C24   A    
C79   C80   A    
C58   C59   D    
C42   C43   A    
C56   N13   A    
C28   C29   A    
C24   H9    S    
C73   C82   S    
C62   H40   S    
C52   C53   A    
C44   C50   A    
C25   C30   A    
C46   C47   A    
N2    N8    A    
C7    H3    S    
C22   H14   S    
C7    C16   A    
C25   H15   S    
C80   C81   A    
N6    Ni1   S    
C68   H39   S    
C56   H52   S    
C9    N5    A    
C5    H55   S    
C1    H1    S    
C8    C17   A    
C66   H43   S    
C62   C68   A    
C18   H10   S    
C32   C33   A    
C19   C20   A    
C55   C57   A    
C34   H33   S    
C38   C43   A    
C10   C16   A    
N4    N5    A    
C64   C65   A    
C1    C82   A    
C38   C39   A    
C27   C37   S    
C40   C50   S    
C79   H50   S    
C33   C35   A    
C8    H4    S    
C10   N6    A    
N12   Ni2   S    
C69   C70   A    
O2    H56   S    
N9    N14   A    
C32   H18   S    
C71   C72   A    
C48   H29   S    
C20   C21   A    
C69   H45   S    
C65   C66   A    
N13   Ni1   S    
C27   C28   A    
C64   C74   S    
N7    Ni4   S    
C78   H54   S    
C9    H5    S    
C1    N1    A    
C75   H47   S    
C44   H28   S    
C71   C81   S    
C3    C59   S    
