data_mof_unit_45495.cif
_audit_creation_date              2013-03-05T15:49:48-0500
_audit_creation_method            fapswitch 2.2
_symmetry_space_group_name_H-M    P1
_symmetry_Int_Tables_number       1
_space_group_crystal_system       triclinic
_cell_length_a                    19.817873
_cell_length_b                    19.858415
_cell_length_c                    20.094239
_cell_angle_alpha                 107.366155
_cell_angle_beta                  110.90918
_cell_angle_gamma                 110.079134
_cell_volume                      6087.36813901

loop_
_atom_site_label
_atom_site_type_symbol
_atom_site_description
_atom_site_fract_x
_atom_site_fract_y
_atom_site_fract_z
_atom_type_partial_charge
C1    C     C_R   0.070741 0.334932 0.023656 -0.099502
H1    H     H_    0.134862 0.349880 0.047385 0.140691
N1    N     N_R   0.043550 0.386750 0.043430 -0.043684
C2    C     C_R   0.930549 0.506651 0.775854 -0.107009
H2    H     H_    0.867111 0.489041 0.735209 0.194173
N2    N     N_R   0.956690 0.500260 0.843560 -0.053780
C3    C     C_R   0.770473 0.272211 0.841333 0.468041
N3    N     N_R   0.843320 0.343600 0.886740 -0.120936
C4    C     C_R   0.229456 0.568131 0.000951 0.321452
N4    N     N_R   0.156920 0.543410 0.000250 -0.132819
C5    C     C_R   0.775797 0.338003 0.768788 0.543124
N5    N     N_R   0.843210 0.386780 0.843560 -0.122940
C6    C     C_R   0.230796 0.502813 0.074127 0.502920
N6    N     N_R   0.157030 0.500230 0.043430 -0.112960
C7    C     C_R   0.069252 0.573845 0.843956 0.004955
H3    H     H_    0.132593 0.618050 0.865715 0.193283
N7    N     N_R   0.043140 0.543420 0.886740 -0.071919
C8    C     C_R   0.931312 0.265600 0.953189 -0.092712
H4    H     H_    0.867770 0.217389 0.911277 0.104523
N8    N     N_R   0.957090 0.343580 0.000250 -0.039348
C9    C     C_R   0.001386 0.259488 0.965705 0.024588
C10   C     C_R   0.999707 0.551940 0.775197 -0.007353
C11   C     C_R   0.726061 0.267759 0.767158 -0.285998
C12   C     C_R   0.277685 0.545501 0.047601 -0.264444
C13   C     C_R   0.195067 0.666581 0.235216 0.331628
N9    N     N_R   0.156790 0.613220 0.156440 -0.090094
C14   C     C_R   0.808821 0.545098 0.974692 -0.010567
H5    H     H_    0.801195 0.586597 0.952415 0.169358
N10   N     N_R   0.842970 0.499770 0.956570 -0.054098
C15   C     C_R   0.930539 0.433073 0.159479 0.288829
N11   N     N_R   0.956860 0.456580 0.113260 -0.098386
C16   C     C_R   0.067961 0.727630 0.997929 0.238035
N12   N     N_R   0.042910 0.656420 0.999750 -0.113687
C17   C     C_R   0.929341 0.657713 0.928147 0.251475
N13   N     N_R   0.956450 0.613250 0.956570 -0.117958
C18   C     C_R   0.069270 0.504131 0.229716 -0.148547
H6    H     H_    0.132220 0.525131 0.274202 0.203166
N14   N     N_R   0.043310 0.499740 0.156440 -0.079403
C19   C     C_R   0.188070 0.734831 0.165019 -0.121942
H7    H     H_    0.194756 0.783660 0.150191 0.170015
N15   N     N_R   0.156680 0.656400 0.113260 -0.056631
C20   C     C_R   0.808524 0.475454 0.043793 -0.073208
H8    H     H_    0.800117 0.452995 0.084440 0.142519
N16   N     N_R   0.843080 0.456590 0.999750 -0.041925
Ni1   Ni    Ni4+2 0.099270 0.499990 0.099040 0.279950
Ni2   Ni    Ni4+2 0.900730 0.500010 0.900960 0.292069
Ni3   Ni    Ni4+2 0.900990 0.400990 0.000000 0.304256
Ni4   Ni    Ni4+2 0.099010 0.599010 0.000000 0.284035
C21   C     C_R   0.210411 0.742061 0.241101 -0.141061
C22   C     C_R   0.788367 0.531688 0.029945 -0.014842
C23   C     C_R   0.999909 0.464891 0.233345 -0.080627
C24   C     C_R   0.998049 0.730850 0.955477 -0.212409
C25   C     C_3   0.572122 0.598402 0.026662 0.436691
C26   C     C_3   0.507474 0.533824 0.031632 -0.288199
H9    H     H_    0.449389 0.477655 0.978939 0.179902
H10   H     H_    0.580884 0.483417 0.105145 0.161556
C27   C     C_1   0.363223 0.574142 0.071949 0.067648
C28   C     C_1   0.747492 0.565294 0.061916 0.025503
C29   C     C_3   0.575609 0.668738 0.089331 -0.233944
C30   C     C_3   0.512023 0.603946 0.096029 0.037611
C31   C     C_3   0.648506 0.672519 0.158465 -0.332237
C32   C     C_3   0.643210 0.601603 0.093660 -0.000820
C33   C     C_3   0.582745 0.607229 0.163440 0.643432
C34   C     C_3   0.578717 0.536893 0.100109 -0.357954
C35   C     C_1   0.433072 0.593003 0.087378 0.058177
C36   C     C_1   0.705754 0.587439 0.081903 0.073081
H11   H     H_    0.706951 0.728417 0.210898 0.161443
H12   H     H_    0.572535 0.721586 0.083435 0.186882
C37   C     C_3   0.908606 0.493769 0.502636 -0.436250
C38   C     C_3   0.043839 0.491744 0.568562 0.262388
C39   C     C_3   0.046154 0.470958 0.489190 -0.477340
H13   H     H_    0.876241 0.400223 0.387534 0.212802
H14   H     H_    0.869427 0.439188 0.503993 0.227470
H15   H     H_    0.109531 0.529318 0.620164 0.143979
H16   H     H_    0.016643 0.403859 0.451263 0.213320
H17   H     H_    0.112404 0.498644 0.504137 0.183877
C40   C     C_1   0.000707 0.471148 0.304838 0.103896
C41   C     C_3   0.999626 0.543525 0.575870 0.033946
C42   C     C_3   0.909549 0.468093 0.422670 -0.317385
C43   C     C_3   0.000986 0.504941 0.441087 0.241526
C44   C     C_3   0.047384 0.599467 0.492736 -0.481085
C45   C     C_3   0.045427 0.623006 0.572769 0.178076
C46   C     C_1   0.001032 0.483821 0.366339 -0.022800
C47   C     C_1   0.998691 0.561259 0.650171 -0.006892
C48   C     C_1   0.999013 0.563400 0.709712 0.058810
H18   H     H_    0.007747 0.653848 0.570841 0.090804
H19   H     H_    0.016484 0.624867 0.457742 0.159562
H20   H     H_    0.878100 0.531435 0.505085 0.167125
H21   H     H_    0.875225 0.489475 0.384939 0.162489
H22   H     H_    0.112723 0.626577 0.505234 0.234842
C49   C     C_3   0.359330 0.957714 0.524065 0.072169
C50   C     C_3   0.367350 0.029280 0.441338 -0.828753
C51   C     C_3   0.445392 0.111693 0.518401 0.877466
H23   H     H_    0.301130 0.960130 0.513081 0.120564
H24   H     H_    0.363402 0.024483 0.383475 0.237885
H25   H     H_    0.307983 0.025910 0.434755 0.207384
C52   C     C_1   0.639813 0.211486 0.708244 0.097267
C53   C     C_3   0.368174 0.954139 0.448904 -0.032250
C54   C     C_3   0.434906 0.037903 0.603328 0.256429
C55   C     C_3   0.495182 0.088235 0.580623 -0.203766
C56   C     C_3   0.524376 0.030576 0.542307 -0.079947
C57   C     C_3   0.451565 0.959328 0.458166 0.344908
C58   C     C_1   0.570659 0.159302 0.653687 0.152651
C59   C     C_1   0.300819 0.879679 0.374902 0.143474
C60   C     C_1   0.255511 0.816796 0.313329 0.066997
H26   H     H_    0.457611 0.971943 0.409355 0.110790
H27   H     H_    0.540840 0.003079 0.582226 0.164692
H28   H     H_    0.471197 0.022160 0.646420 0.075737
C61   C     C_3   0.086791 0.066945 0.967969 -0.487082
C62   C     C_3   0.962138 0.981033 0.821728 0.152970
C63   C     C_3   0.959078 0.900741 0.821635 0.315543
H29   H     H_    0.124897 0.976993 0.935175 0.262816
H30   H     H_    0.133218 0.100941 0.954617 0.244547
H31   H     H_    0.896375 0.965070 0.784049 0.104650
H32   H     H_    0.892333 0.851623 0.786908 0.079890
C64   C     C_1   0.997363 0.790268 0.930721 0.180806
C65   C     C_3   0.997313 0.046715 0.910194 0.009172
C66   C     C_3   0.087113 0.987923 0.962320 -0.345841
C67   C     C_3   0.996026 0.914715 0.910597 -0.029394
C68   C     C_3   0.945594 0.937322 0.949120 0.046225
C69   C     C_3   0.939439 0.010923 0.941652 0.279667
C70   C     C_1   0.996861 0.844065 0.916391 0.087748
C71   C     C_1   0.999945 0.122259 0.916338 0.056181
C72   C     C_1   0.001448 0.185779 0.934254 -0.038385
H33   H     H_    0.964726 0.058498 0.004682 0.024450
H34   H     H_    0.983357 0.958750 0.015437 0.073346
H35   H     H_    0.107852 0.107982 0.031715 0.168237
H36   H     H_    0.118249 0.995768 0.024682 0.176347
N17   N     N_R   0.849921 0.365432 0.128207 0.220971
O1    O     O_R   0.827417 0.348339 0.177202 -0.406901
O2    O     O_R   0.801023 0.316833 0.050391 -0.376374
N18   N     N_R   0.149504 0.776714 0.012605 0.233872
O3    O     O_R   0.173523 0.849651 0.020100 -0.386898
O4    O     O_R   0.200321 0.748503 0.018284 -0.363475
N19   N     N_R   0.847850 0.623112 0.859571 0.231506
O5    O     O_R   0.822597 0.669833 0.838540 -0.333504
O6    O     O_R   0.798513 0.544261 0.817051 -0.383651
N20   N     N_R   0.563912 0.593443 0.950027 0.244628
O7    O     O_R   0.498461 0.589407 0.898085 -0.330174
O8    O     O_R   0.622111 0.594934 0.933721 -0.356910
O9    O     O_3   0.583397 0.612281 0.235225 -0.677505
C73   C     C_3   0.654545 0.612993 0.287108 0.177681
H37   H     H_    0.686195 0.666129 0.348122 0.141097
H38   H     H_    0.702123 0.620301 0.268255 0.086229
C74   C     C_3   0.626943 0.534647 0.294071 -0.284475
H39   H     H_    0.581997 0.528928 0.315838 0.219609
H40   H     H_    0.594823 0.480948 0.233347 0.200655
C75   C     C_3   0.701510 0.534676 0.352873 -0.977823
H41   H     H_    0.746434 0.538540 0.331317 0.262553
H42   H     H_    0.679417 0.477265 0.356778 0.282701
H43   H     H_    0.733931 0.587217 0.414452 0.267602
N21   N     N_R   0.004431 0.417229 0.573756 0.238810
O10   O     O_R   0.933142 0.354062 0.513262 -0.420696
O11   O     O_R   0.043867 0.411961 0.637720 -0.376331
O12   O     O_3   0.734844 0.232564 0.876360 -0.599677
C76   C     C_3   0.698899 0.146876 0.832280 0.212565
H44   H     H_    0.738179 0.128476 0.868825 0.100542
H45   H     H_    0.693997 0.124438 0.771824 0.089804
C77   C     C_3   0.612583 0.104462 0.821652 -0.326672
H46   H     H_    0.617944 0.124753 0.882115 0.244439
H47   H     H_    0.572086 0.122495 0.785917 0.199262
C78   C     C_3   0.573184 0.011642 0.778814 -0.915239
H48   H     H_    0.569791 0.989930 0.719355 0.278934
H49   H     H_    0.508908 0.982375 0.768374 0.284166
H50   H     H_    0.610704 0.992729 0.816715 0.268969
N22   N     N_R   0.129552 0.681153 0.644566 0.251818
O13   O     O_R   0.143320 0.748843 0.697180 -0.357376
O14   O     O_R   0.192178 0.669227 0.653870 -0.358063
O15   O     O_3   0.406686 0.085439 0.641136 -0.598429
C79   C     C_3   0.377018 0.054419 0.686034 0.203252
H51   H     H_    0.429153 0.061419 0.738483 0.104793
H52   H     H_    0.327568 0.988764 0.647513 0.130511
C80   C     C_3   0.339841 0.102650 0.718179 -0.294702
H53   H     H_    0.388639 0.168427 0.757153 0.221928
H54   H     H_    0.287683 0.096360 0.666266 0.219091
C81   C     C_3   0.306868 0.072216 0.767612 -0.868216
H55   H     H_    0.256968 0.006841 0.729405 0.281846
H56   H     H_    0.280209 0.108385 0.789908 0.280656
H57   H     H_    0.358392 0.079387 0.820754 0.265318
O16   O     O_3   0.418209 0.159969 0.557722 -0.612771
C82   C     C_3   0.371523 0.184746 0.508823 0.192121
H58   H     H_    0.304527 0.147525 0.488526 0.110377
H59   H     H_    0.376064 0.176799 0.453605 0.123695
C83   C     C_3   0.401297 0.274526 0.560045 -0.216054
H60   H     H_    0.394463 0.282480 0.614001 0.219100
H61   H     H_    0.468520 0.312529 0.581584 0.249409
C84   C     C_3   0.351127 0.303952 0.511501 -0.944354
H62   H     H_    0.358460 0.298116 0.458112 0.271251
H63   H     H_    0.374193 0.369190 0.550485 0.293256
H64   H     H_    0.283787 0.267647 0.490446 0.265444
N23   N     N_R   0.262590 0.629935 0.980832 0.249157
O17   O     O_R   0.260558 0.607572 0.912050 -0.358427
O18   O     O_R   0.318832 0.703845 0.039461 -0.329382
N24   N     N_R   0.501179 0.161151 0.497597 0.217125
O19   O     O_R   0.556781 0.237199 0.550794 -0.423968
O20   O     O_R   0.486044 0.136506 0.423422 -0.387431
O21   O     O_3   0.449625 0.884779 0.449668 -0.592429
C85   C     C_3   0.494572 0.866966 0.412569 0.259801
H65   H     H_    0.520987 0.833280 0.437886 0.157256
H66   H     H_    0.548731 0.922668 0.426405 0.125906
C86   C     C_3   0.435650 0.812133 0.320623 -0.356219
H67   H     H_    0.383200 0.756430 0.308443 0.254409
H68   H     H_    0.409260 0.845006 0.293768 0.208378
C87   C     C_3   0.480790 0.786458 0.279601 -0.864317
H69   H     H_    0.533221 0.841070 0.290093 0.270500
H70   H     H_    0.436274 0.747171 0.213197 0.288218
H71   H     H_    0.505553 0.751164 0.303629 0.263240
N25   N     N_R   0.348846 0.884476 0.532862 0.261686
O22   O     O_R   0.411983 0.873540 0.561752 -0.329820
O23   O     O_R   0.276845 0.833141 0.518629 -0.352565
N26   N     N_R   0.600498 0.072929 0.540519 0.225755
O24   O     O_R   0.670536 0.082786 0.591544 -0.443507
O25   O     O_R   0.597557 0.090354 0.482456 -0.379929
O26   O     O_3   0.755482 0.362154 0.710086 -0.623282
C88   C     C_3   0.742532 0.305649 0.637250 0.259893
H72   H     H_    0.710515 0.317294 0.587758 0.185851
H73   H     H_    0.700320 0.241432 0.618823 0.174368
C89   C     C_3   0.824841 0.315743 0.641726 -0.504437
H74   H     H_    0.857134 0.372236 0.639436 0.234184
H75   H     H_    0.866699 0.319923 0.699011 0.221377
C90   C     C_3   0.808889 0.244304 0.570240 -0.660331
H76   H     H_    0.779797 0.186507 0.571772 0.284816
H77   H     H_    0.869178 0.254724 0.574012 0.287567
H78   H     H_    0.767185 0.238589 0.511919 0.264619
N27   N     N_R   0.008363 0.012335 0.784414 0.259645
O27   O     O_R   0.085949 0.030674 0.811345 -0.356686
O28   O     O_R   0.970386 0.019625 0.721448 -0.385058
O29   O     O_3   0.005071 0.877749 0.788277 -0.607287
C91   C     C_3   0.952465 0.817013 0.705627 0.284913
H79   H     H_    0.989951 0.824577 0.675651 0.157054
H80   H     H_    0.898712 0.823881 0.672426 0.083892
C92   C     C_3   0.922341 0.731637 0.698548 -0.330089
H81   H     H_    0.977213 0.723979 0.724839 0.230346
H82   H     H_    0.889901 0.724443 0.733192 0.231304
C93   C     C_3   0.862220 0.664993 0.610245 -0.981601
H83   H     H_    0.804799 0.668892 0.584320 0.280501
H84   H     H_    0.844148 0.604094 0.606953 0.280036
H85   H     H_    0.892328 0.671400 0.573596 0.250877
O30   O     O_3   0.855231 0.986149 0.887512 -0.615144
C94   C     C_3   0.826301 0.033826 0.923277 0.225299
H86   H     H_    0.772807 0.027642 0.873061 0.122946
H87   H     H_    0.874123 0.100096 0.960278 0.074406
C95   C     C_3   0.795131 0.002323 0.973500 -0.288132
H88   H     H_    0.743777 0.937566 0.933765 0.257644
H89   H     H_    0.846701 0.005155 0.022806 0.207404
C96   C     C_3   0.763078 0.053172 0.011385 -0.910532
H90   H     H_    0.814095 0.117874 0.052682 0.275546
H91   H     H_    0.740542 0.028812 0.047015 0.286386
H92   H     H_    0.710453 0.050498 0.963458 0.265335
N28   N     N_R   0.863647 0.867185 0.918242 0.273562
O31   O     O_R   0.849402 0.843277 0.967908 -0.362771
O32   O     O_R   0.804609 0.828498 0.842397 -0.319667
O33   O     O_3   0.256924 0.486641 0.138912 -0.641230
C97   C     C_3   0.327635 0.476799 0.157480 0.253587
H93   H     H_    0.340720 0.465650 0.210493 0.150186
H94   H     H_    0.384787 0.534106 0.180046 0.124230
C98   C     C_3   0.312270 0.402332 0.088402 -0.414467
H95   H     H_    0.259941 0.345906 0.075416 0.211537
H96   H     H_    0.295068 0.407618 0.032013 0.210116
C99   C     C_3   0.390107 0.394151 0.111724 -0.929522
H97   H     H_    0.443156 0.449400 0.124086 0.275647
H98   H     H_    0.377542 0.340164 0.061032 0.276915
H99   H     H_    0.407564 0.386077 0.166630 0.264386
N29   N     N_R   0.238242 0.653873 0.300137 0.211457
O34   O     O_R   0.258955 0.699304 0.373873 -0.321898
O35   O     O_R   0.266968 0.604371 0.287523 -0.393147

loop_
_geom_bond_atom_site_label_1
_geom_bond_atom_site_label_2
_geom_bond_distance
_ccdc_geom_bond_type
C56   H27   1.115815 S    
H29   C66   1.112557 S    
C15   C23   1.370961 A    
C1    C9    1.375481 A    
C56   C57   1.539930 S    
C14   N10   1.341406 A    
C8    C9    1.375194 A    
C86   H68   1.110928 S    
O15   C79   1.414484 S    
N24   O20   1.302189 A    
C51   N24   1.480240 S    
C75   H43   1.110895 S    
C74   C75   1.527286 S    
N23   O18   1.300653 A    
C44   C45   1.553886 S    
C25   C29   1.537235 S    
C50   C53   1.549307 S    
C3    N3    1.344927 A    
C19   N15   1.341804 A    
N21   O11   1.301223 A    
C26   C30   1.541606 S    
C80   H53   1.111823 S    
C56   N26   1.473094 S    
C54   H28   1.111886 S    
N29   O34   1.300521 A    
C91   H79   1.110896 S    
C64   C70   1.188785 T    
C30   C33   1.527397 S    
C63   O29   1.423960 S    
C76   H44   1.107356 S    
C55   C56   1.576431 S    
C75   H42   1.110341 S    
C8    H4    1.070277 S    
C90   H78   1.110942 S    
C88   H73   1.108006 S    
C74   H39   1.111701 S    
C15   N11   1.337886 A    
C17   N13   1.342451 A    
C3    C11   1.391272 A    
C82   C83   1.528047 S    
C38   C41   1.570695 S    
C79   H51   1.110981 S    
C40   C46   1.182441 T    
N28   O32   1.301128 A    
C95   H88   1.111500 S    
C50   H25   1.111637 S    
C83   H60   1.111790 S    
C79   C80   1.527199 S    
C63   C67   1.561664 S    
C98   H95   1.110648 S    
C86   H67   1.109623 S    
C10   C48   1.396958 S    
C31   C33   1.549073 S    
C65   C69   1.564031 S    
C66   C67   1.552161 S    
C16   C24   1.378841 A    
N14   Ni1   1.863581 S    
C32   C34   1.546465 S    
N9    Ni1   1.854501 S    
N12   N13   1.381985 A    
C62   C63   1.574108 S    
N19   O6    1.300662 A    
C61   H35   1.113908 S    
C81   H57   1.110995 S    
O30   C94   1.415015 S    
N25   O22   1.301202 A    
C95   H89   1.110783 S    
C38   H15   1.111040 S    
C97   H94   1.106299 S    
C93   H83   1.110754 S    
C77   H47   1.107893 S    
C37   H14   1.110543 S    
C85   H65   1.110778 S    
N16   Ni3   1.845402 S    
N19   O5    1.300717 A    
C4    N4    1.343305 A    
C62   H31   1.113992 S    
C14   C22   1.375326 A    
C61   H30   1.110004 S    
C96   H90   1.111038 S    
N7    Ni4   1.867219 S    
C45   H18   1.114359 S    
C24   C64   1.412974 S    
N24   O19   1.300192 A    
C29   C30   1.540365 S    
N11   Ni3   1.867217 S    
C6    N6    1.343953 A    
N22   O14   1.301556 A    
C86   C87   1.525896 S    
C93   H84   1.110450 S    
C73   C74   1.529568 S    
C37   C41   1.552131 S    
C31   C32   1.547990 S    
C20   N16   1.342897 A    
C99   H99   1.110799 S    
C62   C65   1.566641 S    
C92   H82   1.110898 S    
C59   C60   1.187968 T    
C74   H40   1.110867 S    
C51   O16   1.428215 S    
C28   C36   1.191767 T    
C61   C66   1.541600 S    
C49   N25   1.470322 S    
N6    Ni1   1.863178 S    
C78   H49   1.110201 S    
C7    C10   1.366788 A    
C63   H32   1.112187 S    
C96   H91   1.110271 S    
C19   C21   1.376984 A    
C29   C31   1.566296 S    
C89   H74   1.108661 S    
C32   C36   1.442210 S    
C61   C65   1.554571 S    
N23   O17   1.300276 A    
C84   H64   1.110878 S    
C71   C72   1.190417 T    
C38   N21   1.472181 S    
C47   C48   1.182068 T    
C99   H98   1.110270 S    
N4    N6    1.390039 A    
C82   H59   1.113837 S    
C19   H7    1.076584 S    
C13   N29   1.430267 S    
O26   C88   1.421563 S    
N18   O3    1.300905 A    
C21   C60   1.409032 S    
C97   C98   1.539497 S    
N28   O31   1.301188 A    
C82   H58   1.111386 S    
N1    Ni1   1.854488 S    
C92   C93   1.525111 S    
C25   N20   1.458499 S    
C6    C12   1.395946 A    
C1    N1    1.340391 A    
N5    Ni2   1.854501 S    
C22   C28   1.414582 S    
C88   H72   1.110291 S    
C23   C40   1.398350 S    
N26   O24   1.301531 A    
C69   H33   1.120453 S    
C97   H93   1.110881 S    
C53   C57   1.558365 S    
C29   H12   1.110004 S    
C78   H50   1.110083 S    
C2    C10   1.364230 A    
C25   C32   1.528031 S    
C41   C45   1.560245 S    
C89   H75   1.110928 S    
C77   H46   1.111754 S    
C87   H71   1.110965 S    
N3    N5    1.390039 A    
C95   C96   1.526233 S    
C6    O33   1.395902 S    
C85   C86   1.532587 S    
C94   H87   1.113299 S    
N27   O27   1.301385 A    
C33   O9    1.410805 S    
C77   C78   1.527450 S    
N1    N8    1.381985 A    
C44   H19   1.113716 S    
C75   H41   1.111010 S    
C18   C23   1.368204 A    
C51   C55   1.592672 S    
C52   C58   1.195072 T    
C80   H54   1.111820 S    
C31   H11   1.109869 S    
C20   C22   1.377143 A    
C83   C84   1.525952 S    
C54   O15   1.420831 S    
C44   H22   1.112704 S    
C2    N2    1.334395 A    
C81   H55   1.111018 S    
N26   O25   1.300270 A    
C87   H70   1.110478 S    
C30   C35   1.440612 S    
C91   C92   1.533483 S    
N10   N16   1.390041 A    
N4    Ni4   1.845400 S    
N22   O13   1.301152 A    
C93   H85   1.109944 S    
C73   H38   1.116904 S    
C42   C43   1.550884 S    
C88   C89   1.539163 S    
C20   H8    1.075809 S    
C50   H24   1.109480 S    
C57   O21   1.423956 S    
C18   N14   1.338716 A    
N29   O35   1.301243 A    
C39   H17   1.113820 S    
C16   N18   1.433597 S    
C38   C39   1.545464 S    
C68   C69   1.553707 S    
C89   C90   1.525577 S    
C43   C46   1.434268 S    
N17   O1    1.300889 A    
C45   N22   1.470087 S    
C67   C70   1.447181 S    
C7    N7    1.336005 A    
N2    N7    1.381823 A    
C26   H9    1.110734 S    
C18   H6    1.074061 S    
N2    Ni2   1.863581 S    
C94   H86   1.109155 S    
C11   C52   1.423456 S    
C39   C43   1.541944 S    
C76   C77   1.524386 S    
C94   C95   1.532291 S    
C27   C35   1.192023 T    
C43   C44   1.554657 S    
C62   N27   1.471479 S    
C90   H76   1.109086 S    
C80   C81   1.526243 S    
C67   C68   1.566061 S    
N11   N14   1.381823 A    
C4    C12   1.378805 A    
C25   C26   1.528265 S    
C78   H48   1.110476 S    
N20   O8    1.300231 A    
H13   C42   1.113169 S    
C15   N17   1.434475 S    
C12   C27   1.419996 S    
C17   C24   1.377426 A    
C54   C55   1.573379 S    
N10   Ni2   1.863175 S    
C90   H77   1.110106 S    
C98   C99   1.525480 S    
C49   C54   1.568897 S    
C16   N12   1.345115 A    
C9    C72   1.411222 S    
C76   H45   1.116540 S    
C13   N9    1.339292 A    
N3    Ni3   1.866914 S    
C84   H62   1.110903 S    
C91   H80   1.115918 S    
N25   O23   1.301152 A    
C69   O30   1.425280 S    
O9    C73   1.415444 S    
C99   H97   1.108871 S    
C49   H23   1.115315 S    
C39   H16   1.113063 S    
H10   C34   1.110039 S    
O33   C97   1.414071 S    
C26   C34   1.547465 S    
C17   N19   1.436490 S    
O12   C76   1.416017 S    
C53   C59   1.447341 S    
C2    H2    1.079165 S    
C1    H1    1.074366 S    
C5    C11   1.387083 A    
C50   C51   1.583683 S    
N27   O28   1.301058 A    
N15   Ni4   1.866913 S    
C83   H61   1.111203 S    
C57   H26   1.117622 S    
C8    N8    1.338316 A    
C55   C58   1.459717 S    
C49   C53   1.565338 S    
C65   C71   1.449003 S    
O21   C85   1.416751 S    
C13   C21   1.381567 A    
C84   H63   1.110369 S    
N8    Ni3   1.845424 S    
C37   C42   1.543114 S    
N20   O7    1.300248 A    
C96   H92   1.110184 S    
C5    O26   1.383789 S    
O29   C91   1.415915 S    
C33   C34   1.538393 S    
C41   C47   1.436599 S    
C68   H34   1.117102 S    
C3    O12   1.384771 S    
C87   H69   1.110708 S    
N9    N15   1.390041 A    
N18   O4    1.297937 A    
C14   H5    1.076947 S    
N12   Ni4   1.845427 S    
C73   H37   1.111027 S    
C68   N28   1.474469 S    
C42   H21   1.113664 S    
C85   H66   1.114042 S    
N21   O10   1.301624 A    
C79   H52   1.112756 S    
C98   H96   1.109499 S    
C4    N23   1.425934 S    
N13   Ni2   1.854488 S    
C66   H36   1.113938 S    
O16   C82   1.419836 S    
C7    H3    1.077032 S    
C5    N5    1.338076 A    
C92   H81   1.111846 S    
C81   H56   1.110487 S    
N17   O2    1.300352 A    
C37   H20   1.112305 S    
