data_mof_unit_57100.cif
_audit_creation_date              2012-12-10T20:48:20-0500
_audit_creation_method            fapswitch 2.2
_symmetry_space_group_name_H-M    P1
_symmetry_Int_Tables_number       1
_space_group_crystal_system       monoclinic
_cell_length_a                    10.671
_cell_length_b                    8.928011
_cell_length_c                    8.109232
_cell_angle_alpha                 90.0
_cell_angle_beta                  90.187095
_cell_angle_gamma                 90.0
_cell_volume                      772.568944695

loop_
_atom_site_label
_atom_site_type_symbol
_atom_type_description
_atom_site_fract_x
_atom_site_fract_y
_atom_site_fract_z
_atom_type_partial_charge
C1    C     C_R   0.500000 0.217995 0.500000 0.941500
C2    C     C_1   0.500000 0.934755 0.500000 -0.205115
C3    C     C_3   0.073827 0.672765 0.486928 0.227590
C4    C     C_3   0.926173 0.672765 0.513071 0.227589
C5    C     C_3   0.121210 0.503448 0.498785 0.055455
C6    C     C_3   0.878790 0.503448 0.501215 0.055455
C7    C     C_R   0.257153 0.497605 0.499649 0.836113
C8    C     C_R   0.742847 0.497605 0.500351 0.836113
C9    C     C_R   0.500000 0.781953 0.500000 0.908124
C10   C     C_1   0.500000 0.065166 0.500000 -0.195128
C11   C     C_3   0.071266 0.424072 0.657544 -0.435165
C12   C     C_3   0.071054 0.409397 0.350921 -0.436920
C13   C     C_3   0.928945 0.409397 0.649080 -0.436920
C14   C     C_3   0.928734 0.424072 0.342456 -0.435165
H1    H     H_    0.098007 0.484129 0.772083 0.175835
H2    H     H_    0.140959 0.716676 0.727105 0.173789
H3    H     H_    0.064568 0.680307 0.226276 0.172554
H4    H     H_    0.201516 0.740302 0.305401 0.189463
H5    H     H_    0.798483 0.740303 0.694599 0.189463
H6    H     H_    0.935432 0.680307 0.773723 0.172554
H7    H     H_    0.859040 0.716675 0.272894 0.173789
H8    H     H_    0.772648 0.792781 0.421627 0.174302
H9    H     H_    0.112483 0.442467 0.230763 0.185585
H10   H     H_    0.887517 0.442467 0.769237 0.185585
H11   H     H_    0.901993 0.484128 0.227917 0.175835
H12   H     H_    0.112722 0.309946 0.668749 0.191539
H13   H     H_    0.096598 0.289370 0.368160 0.194204
H14   H     H_    0.903402 0.289370 0.631841 0.194204
H15   H     H_    0.887278 0.309945 0.331252 0.191539
H16   H     H_    0.227352 0.792781 0.578372 0.174302
N1    N     N_1   0.500000 0.500030 0.073640 -0.041643
N2    N     N_1   0.500000 0.500030 0.926360 -0.041643
N3    N     N_3   0.135094 0.768864 0.612445 -0.421692
N4    N     N_3   0.104744 0.738721 0.324337 -0.436361
N5    N     N_3   0.895256 0.738721 0.675663 -0.436361
N6    N     N_3   0.864906 0.768864 0.387554 -0.421692
O1    O     O_R   0.500000 0.285340 0.636850 -0.612015
O2    O     O_R   0.500000 0.285340 0.363150 -0.612015
O3    O     O_R   0.314790 0.499970 0.636880 -0.629693
O4    O     O_R   0.314790 0.499970 0.363120 -0.634621
O5    O     O_R   0.685210 0.499970 0.636880 -0.634621
O6    O     O_R   0.685210 0.499970 0.363120 -0.629693
O7    O     O_R   0.500000 0.714650 0.636900 -0.617244
O8    O     O_R   0.500000 0.714650 0.363100 -0.617244
Zn1   Zn    Zn3+2 0.500000 0.499990 0.682780 0.964235
Zn2   Zn    Zn3+2 0.500000 0.499990 0.317220 0.964235

loop_
_geom_bond_atom_site_label_1
_geom_bond_atom_site_label_2
_ccdc_geom_bond_type
C6    C8    S    
C7    O4    A    
C4    N6    S    
C13   H14   S    
H2    N3    S    
C6    C14   S    
O7    Zn1   S    
N2    Zn1   S    
N1    N2    T    
C11   H12   S    
C1    O1    A    
O3    Zn1   S    
C12   C14   S    
C4    N5    S    
H16   N3    S    
H7    N6    S    
H5    N5    S    
C6    C13   S    
O4    Zn2   S    
C11   C13   S    
C12   H9    S    
C1    O2    A    
O8    Zn2   S    
C5    C11   S    
H4    N4    S    
C14   H11   S    
O2    Zn2   S    
C9    O7    A    
H3    N4    S    
C3    N3    S    
C14   H15   S    
O1    Zn1   S    
C3    C4    S    
C2    C10   T    
H8    N6    S    
C8    O5    A    
C5    C12   S    
C4    C6    S    
O6    Zn2   S    
C5    C7    S    
C7    O3    A    
C9    O8    A    
O5    Zn1   S    
C12   H13   S    
C3    N4    S    
C2    C9    S    
C11   H1    S    
H6    N5    S    
C1    C10   S    
C13   H10   S    
C8    O6    A    
C3    C5    S    
N1    Zn2   S    
