data_mof_unit_15015.cif
_audit_creation_date              2013-03-05T16:30:42-0500
_audit_creation_method            fapswitch 2.2
_symmetry_space_group_name_H-M    P1
_symmetry_Int_Tables_number       1
_space_group_crystal_system       triclinic
_cell_length_a                    10.906854
_cell_length_b                    10.830275
_cell_length_c                    9.5994
_cell_angle_alpha                 91.541363
_cell_angle_beta                  91.454622
_cell_angle_gamma                 90.96933
_cell_volume                      1132.97038823

loop_
_atom_site_label
_atom_site_type_symbol
_atom_site_description
_atom_site_fract_x
_atom_site_fract_y
_atom_site_fract_z
_atom_type_partial_charge
O1    O     O_R   0.500000 0.319640 0.618810 -0.585983
O2    O     O_R   0.500010 0.319680 0.381230 -0.541332
C1    C     C_R   0.498696 0.263016 0.498059 0.838982
O3    O     O_R   0.321940 0.499980 0.618760 -0.550590
O4    O     O_R   0.321950 0.500020 0.381180 -0.560162
C2    C     C_R   0.265678 0.504953 0.498640 0.769965
Cu1   Cu    Cu3+1 0.499990 0.499980 0.640670 1.021250
Cu2   Cu    Cu3+1 0.500010 0.500020 0.359330 1.020518
O5    O     O_R   0.499990 0.680320 0.618770 -0.540259
O6    O     O_R   0.500000 0.680360 0.381190 -0.611794
O7    O     O_R   0.678050 0.499980 0.618820 -0.590746
O8    O     O_R   0.678060 0.500020 0.381240 -0.582786
C3    C     C_R   0.496766 0.737437 0.501418 0.766688
C4    C     C_R   0.734354 0.495052 0.501646 0.834206
C5    C     C_2   0.931030 0.470774 0.392175 -0.080913
C6    C     C_2   0.865966 0.481693 0.507624 -0.206624
H1    H     H_    0.886443 0.461406 0.289978 0.191210
H2    H     H_    0.910535 0.478733 0.609900 0.195286
C7    C     C_2   0.064307 0.461797 0.401280 -0.182175
C8    C     C_2   0.134978 0.527060 0.494757 0.167631
H3    H     H_    0.105212 0.394924 0.331288 0.221902
C9    C     C_R   0.581623 0.067735 0.575532 0.059031
C10   C     C_R   0.500240 0.130498 0.492049 -0.130461
C11   C     C_R   0.422117 0.062799 0.399066 -0.131120
H4    H     H_    0.360943 0.111493 0.329957 0.226534
C12   C     C_R   0.415081 0.932867 0.403846 -0.058098
C13   C     C_R   0.491199 0.871210 0.501819 -0.077830
C14   C     C_R   0.576585 0.941929 0.582319 -0.028119
C15   C     C_3   0.624363 0.945857 0.731605 -0.182758
C16   C     C_3   0.628557 0.088050 0.721742 0.115376
H5    H     H_    0.562460 0.138417 0.788033 0.119918
C17   C     C_R   0.606150 0.517843 0.077228 0.193861
N1    N     N_R   0.500780 0.500930 0.147930 -0.254061
C18   C     C_R   0.398129 0.464564 0.068050 0.400677
C19   C     C_R   0.398022 0.468445 0.920458 -0.061445
H6    H     H_    0.315712 0.441549 0.861628 0.206027
N2    N     N_R   0.500780 0.500890 0.852020 -0.239143
C20   C     C_R   0.607173 0.513900 0.930335 0.258868
C21   C     C_3   0.696279 0.619916 0.930096 -0.290043
C22   C     C_3   0.691243 0.626694 0.088612 -0.426532
H7    H     H_    0.656515 0.700146 0.878640 0.139132
H8    H     H_    0.778897 0.605562 0.143654 0.222976
H9    H     H_    0.645486 0.710939 0.128824 0.199740
N3    N     N_R   0.751963 0.144186 0.730067 0.169782
O9    O     O_R   0.806924 0.179415 0.618634 -0.337740
O10   O     O_R   0.801654 0.171749 0.851775 -0.250690
N4    N     N_R   0.291306 0.414389 0.129449 0.128461
O11   O     O_R   0.183880 0.452551 0.089342 -0.334629
O12   O     O_R   0.298735 0.309369 0.191297 -0.358416
C23   C     C_2   0.820172 0.584542 0.877197 0.501979
H10   H     H_    0.868034 0.645780 0.808534 0.115059
O13   O     O_2   0.868519 0.488676 0.911744 -0.468062
N5    N     N_R   0.088787 0.627433 0.579122 0.104105
O14   O     O_R   0.135908 0.651266 0.703008 -0.290898
O15   O     O_R   0.015741 0.707474 0.523816 -0.350782
C24   C     C_2   0.321063 0.865350 0.314871 0.467595
H11   H     H_    0.295216 0.770673 0.335807 0.091197
O16   O     O_2   0.269866 0.915470 0.217472 -0.472915
C25   C     C_2   0.534655 0.905029 0.839703 0.373596
H12   H     H_    0.563038 0.908343 0.948955 0.104241
O17   O     O_2   0.430118 0.871193 0.807613 -0.463272
C26   C     C_2   0.747607 0.885369 0.744571 0.396097
H13   H     H_    0.780110 0.826450 0.660441 0.092528
O18   O     O_2   0.811202 0.900594 0.850373 -0.474040

loop_
_geom_bond_atom_site_label_1
_geom_bond_atom_site_label_2
_geom_bond_distance
_ccdc_geom_bond_type
O1    C1    1.296343 A    
O4    Cu2   1.958655 S    
C23   O13   1.222371 D    
C10   C11   1.401912 A    
Cu1   O5    1.970026 S    
N2    C20   1.369694 A    
C17   C20   1.409914 A    
C2    C8    1.449191 S    
N5    O15   1.301806 A    
C1    C10   1.435217 S    
N4    O11   1.301512 A    
O8    C4    1.297780 A    
Cu2   O8    1.948006 S    
C17   N1    1.361665 A    
C26   H13   1.086064 S    
C22   H8    1.110773 S    
N1    C18   1.386306 A    
Cu1   N2    2.028391 S    
Cu1   Cu2   2.700712 S    
N4    O12   1.299892 A    
C9    C14   1.366067 A    
N5    O14   1.301148 A    
C24   H11   1.084177 S    
C5    C7    1.459086 S    
C16   N3    1.466938 S    
C12   C13   1.425680 A    
C15   C16   1.545412 S    
O3    Cu1   1.948006 S    
O1    Cu1   1.958755 S    
O4    C2    1.297654 A    
O3    C2    1.295219 A    
C14   C15   1.511647 S    
C7    H3    1.083965 S    
C24   O16   1.221342 D    
C23   H10   1.084475 S    
O2    C1    1.293098 A    
Cu2   N1    2.029833 S    
C17   C22   1.487938 S    
C16   H5    1.113613 S    
Cu2   O6    1.958754 S    
O7    C4    1.295414 A    
C4    C6    1.445027 S    
C25   O17   1.221112 D    
C5    C6    1.334723 D    
C21   C22   1.523885 S    
C15   C25   1.513682 S    
C25   H12   1.085412 S    
C21   C23   1.507475 S    
C20   C21   1.491768 S    
C11   H4    1.082432 S    
C21   H7    1.100930 S    
C6    H2    1.085925 S    
C18   C19   1.418522 A    
C13   C14   1.399483 A    
C5    H1    1.085344 S    
O5    C3    1.299662 A    
C15   C26   1.509049 S    
C3    C13   1.451004 S    
Cu1   O7    1.958654 S    
C26   O18   1.221136 D    
C18   N4    1.425066 S    
C9    C16   1.491112 S    
C19   N2    1.359289 A    
C9    C10   1.380496 A    
O6    C3    1.296060 A    
C22   H9    1.112110 S    
O2    Cu2   1.970026 S    
N3    O9    1.302278 A    
C7    C8    1.345827 D    
C11   C12   1.410029 A    
C8    N5    1.443358 S    
N3    O10   1.300549 A    
C19   H6    1.079947 S    
C12   C24   1.487379 S    
