data_mof_unit_53636.cif
_audit_creation_date              2012-10-26T18:27:06-0400
_audit_creation_method            fapswitch 2.2
_symmetry_space_group_name_H-M    P1
_symmetry_Int_Tables_number       1
_space_group_crystal_system       triclinic
_cell_length_a                    15.074556
_cell_length_b                    10.924992
_cell_length_c                    9.68469
_cell_angle_alpha                 88.809175
_cell_angle_beta                  89.664958
_cell_angle_gamma                 90.6759
_cell_volume                      1594.48078124

loop_
_atom_site_label
_atom_site_type_symbol
_atom_type_description
_atom_site_fract_x
_atom_site_fract_y
_atom_site_fract_z
_atom_type_partial_charge
C1    C     C_R   0.494488 0.265764 0.501702 0.555820
C2    C     C_R   0.187510 0.432845 0.412326 -0.150388
C3    C     C_R   0.232468 0.510218 0.501619 -0.001401
C4    C     C_R   0.329023 0.504536 0.500473 0.524188
C5    C     C_R   0.185482 0.588601 0.590681 -0.001888
C6    C     C_2   0.458179 0.935917 0.410525 -0.049608
C7    C     C_2   0.513083 0.866397 0.490553 0.250578
C8    C     C_2   0.474129 0.068109 0.396213 -0.089102
C9    C     C_2   0.477058 0.135584 0.508870 -0.067543
C10   C     C_2   0.449868 0.427231 0.924188 -0.026543
C11   C     C_2   0.447649 0.430228 0.079891 -0.019436
C12   C     C_R   0.904638 0.567198 0.590818 0.003596
C13   C     C_R   0.501115 0.734654 0.498153 0.573750
C14   C     C_R   0.670980 0.494468 0.499608 0.583552
C15   C     C_R   0.812855 0.561418 0.590964 -0.127940
C16   C     C_R   0.767595 0.487034 0.498994 0.009649
C17   C     C_R   0.814421 0.409340 0.408896 -0.006494
C18   C     C_R   0.908687 0.414432 0.408806 0.032647
C19   C     C_R   0.953286 0.494574 0.499875 0.047717
C20   C     C_3   0.764367 0.316990 0.321340 -0.251729
C21   C     C_3   0.755021 0.362395 0.171690 -0.412105
C22   C     C_3   0.235224 0.681979 0.677382 -0.261709
C23   C     C_R   0.960011 0.341834 0.320757 -0.128627
C24   C     C_3   0.244943 0.637575 0.827372 -0.408506
C25   C     C_3   0.379024 0.879594 0.335675 -0.284609
C26   C     C_3   0.311654 0.972476 0.281588 -0.451059
C27   C     C_R   0.052037 0.348746 0.322188 -0.136388
C28   C     C_R   0.095604 0.427918 0.411321 0.006150
C29   C     C_R   0.046857 0.501610 0.501101 0.045967
C30   C     C_R   0.091332 0.582437 0.591566 0.029399
C31   C     C_R   0.040011 0.654674 0.679959 -0.131207
C32   C     C_R   0.948105 0.646358 0.679986 -0.134012
Cu1   Cu    Cu3+1 0.500020 0.500020 0.638630 0.976803
Cu2   Cu    Cu3+1 0.499980 0.499980 0.361370 0.933215
H1    H     H_    0.776005 0.617399 0.661857 0.154673
H2    H     H_    0.224757 0.373975 0.344737 0.111958
H3    H     H_    0.069315 0.718004 0.751033 0.115664
H4    H     H_    0.910778 0.702891 0.749754 0.115354
H5    H     H_    0.737809 0.843863 0.626820 0.357777
H6    H     H_    0.718887 0.450226 0.166783 0.181021
H7    H     H_    0.820853 0.376592 0.121831 0.143346
H8    H     H_    0.717196 0.293618 0.112245 0.157149
H9    H     H_    0.797580 0.226884 0.324829 0.156497
H10   H     H_    0.697408 0.296004 0.364294 0.189196
H11   H     H_    0.179323 0.624786 0.878267 0.138029
H12   H     H_    0.480937 0.109245 0.293550 0.148357
H13   H     H_    0.280215 0.549125 0.832659 0.178956
H14   H     H_    0.283697 0.706148 0.885715 0.139888
H15   H     H_    0.302068 0.703190 0.634257 0.154310
H16   H     H_    0.201649 0.771815 0.673187 0.122731
H17   H     H_    0.287318 0.029743 0.367051 0.152300
H18   H     H_    0.341731 0.031998 0.199153 0.146811
H19   H     H_    0.254106 0.923082 0.236991 0.143936
H20   H     H_    0.403394 0.826286 0.247001 0.180857
H21   H     H_    0.342714 0.816020 0.407776 0.128857
H22   H     H_    0.464566 0.093660 0.609933 0.145959
H23   H     H_    0.406608 0.361615 0.874621 0.132867
H24   H     H_    0.538044 0.563863 0.892120 0.217582
H25   H     H_    0.400330 0.370106 0.133139 0.131733
H26   H     H_    0.546080 0.552814 0.104327 0.208036
H27   H     H_    0.930595 0.279138 0.249064 0.117458
H28   H     H_    0.089355 0.291641 0.253026 0.106848
N1    N     N_2   0.499020 0.498660 0.846910 -0.346584
N2    N     N_2   0.499000 0.498630 0.153040 -0.350144
O1    O     O_R   0.500020 0.321960 0.617040 -0.486622
O2    O     O_2   0.591685 0.970773 0.708010 -0.303334
O3    O     O_3   0.684172 0.806447 0.585797 -0.533084
O4    O     O_R   0.499980 0.321920 0.382900 -0.508191
O5    O     O_R   0.370270 0.499990 0.617090 -0.512230
O6    O     O_R   0.370240 0.499950 0.382940 -0.508973
O7    O     O_R   0.500020 0.678080 0.617100 -0.469008
O8    O     O_R   0.499980 0.678040 0.382960 -0.512348
O9    O     O_R   0.629760 0.500050 0.617060 -0.476295
O10   O     O_R   0.629730 0.500010 0.382910 -0.496582
O11   O     O_2   0.655089 0.021463 0.479328 -0.306727
S1    S     S_3+6 0.612438 0.922089 0.567615 -0.000762

loop_
_geom_bond_atom_site_label_1
_geom_bond_atom_site_label_2
_ccdc_geom_bond_type
C10   N1    D    
C17   C20   S    
C4    O6    A    
Cu1   O1    S    
C24   H11   S    
C14   O10   A    
C28   C29   A    
C30   C31   A    
C6    C25   S    
C15   C16   A    
C1    O4    A    
C18   C19   A    
C5    C22   S    
C8    C9    D    
C1    O1    A    
C32   H4    S    
Cu2   O6    S    
Cu1   O5    S    
C22   H16   S    
C12   C32   A    
C11   H25   S    
C15   H1    S    
C4    O5    A    
C20   H10   S    
Cu1   Cu2   S    
C18   C23   A    
C24   H14   S    
C14   O9    A    
C10   H23   S    
C1    C9    S    
C25   H20   S    
C11   N2    D    
Cu2   O4    S    
C16   C17   A    
C6    C8    S    
C13   O7    A    
C25   C26   S    
C31   H3    S    
O11   S1    D    
C29   C30   A    
C27   H28   S    
C26   H18   S    
C31   C32   A    
C12   C15   A    
C23   H27   S    
Cu1   N1    S    
O2    S1    D    
Cu2   N2    S    
C17   C18   A    
C9    H22   S    
C6    C7    D    
Cu2   O10   S    
C22   H15   S    
C21   H7    S    
Cu1   O9    S    
C23   C27   A    
C22   C24   S    
C3    C4    S    
C19   C29   A    
C26   H19   S    
Cu2   O8    S    
C20   H9    S    
C5    C30   A    
C2    H2    S    
H24   N1    S    
C24   H13   S    
H5    O3    S    
C25   H21   S    
C3    C5    A    
C7    S1    S    
C13   O8    A    
H26   N2    S    
C2    C3    A    
C26   H17   S    
C21   H6    S    
C12   C19   A    
C14   C16   S    
C8    H12   S    
C10   C11   S    
Cu1   O7    S    
C21   H8    S    
C7    C13   S    
C20   C21   S    
C27   C28   A    
C2    C28   A    
O3    S1    S    
