data_mof_unit_12584.cif
_audit_creation_date              2012-12-10T18:22:35-0500
_audit_creation_method            fapswitch 2.2
_symmetry_space_group_name_H-M    P1
_symmetry_Int_Tables_number       1
_space_group_crystal_system       triclinic
_cell_length_a                    23.503621
_cell_length_b                    10.75467
_cell_length_c                    9.403126
_cell_angle_alpha                 89.610608
_cell_angle_beta                  89.963258
_cell_angle_gamma                 90.255005
_cell_volume                      2376.78386713

loop_
_atom_site_label
_atom_site_type_symbol
_atom_type_description
_atom_site_fract_x
_atom_site_fract_y
_atom_site_fract_z
_atom_type_partial_charge
C1    C     C_R   0.500008 0.259076 0.500437 0.783942
C2    C     C_R   0.499994 0.740924 0.499564 0.784067
C3    C     C_R   0.239584 0.486704 0.633548 -0.090690
C4    C     C_R   0.761887 0.487735 0.375531 -0.088499
C5    C     C_R   0.298806 0.490340 0.631497 -0.211830
C6    C     C_R   0.702505 0.488725 0.373447 -0.216938
C7    C     C_R   0.328287 0.496388 0.501442 -0.043356
C8    C     C_R   0.671698 0.501373 0.500752 -0.042244
C9    C     C_R   0.297320 0.498647 0.373499 -0.215455
C10   C     C_R   0.701328 0.514410 0.629653 -0.214005
C11   C     C_R   0.237937 0.495286 0.375949 -0.089283
C12   C     C_R   0.760574 0.513980 0.631308 -0.088532
C13   C     C_R   0.209008 0.489224 0.506026 0.348626
C14   C     C_R   0.791049 0.499903 0.504553 0.347821
C15   C     C_3   0.500023 0.039357 0.635294 -0.137763
C16   C     C_3   0.499982 0.960646 0.364709 -0.138023
C17   C     C_3   0.546703 0.958221 0.566866 -0.157068
C18   C     C_3   0.453302 0.041781 0.433138 -0.157089
C19   C     C_3   0.499997 0.878190 0.498769 0.009076
C20   C     C_3   0.500007 0.121812 0.501235 0.009406
C21   C     C_3   0.453317 0.957328 0.567105 -0.156638
C22   C     C_3   0.546688 0.042675 0.432899 -0.156769
C23   C     C_R   0.390946 0.499242 0.500188 0.798935
C24   C     C_R   0.609046 0.500506 0.499986 0.798845
C25   C     C_3   0.500247 0.612365 0.049506 -0.034908
C26   C     C_3   0.499752 0.387634 0.950493 -0.035324
C27   C     C_3   0.455622 0.556215 0.948959 -0.037806
C28   C     C_3   0.544377 0.443784 0.051040 -0.035008
C29   C     C_3   0.544666 0.556102 0.948964 -0.035590
C30   C     C_3   0.455333 0.443898 0.051035 -0.038233
C31   C     C_R   0.882412 0.596386 0.461263 0.570344
C32   C     C_R   0.119984 0.379148 0.537695 0.552768
C33   C     C_R   0.878278 0.393769 0.563597 0.565061
C34   C     C_R   0.119738 0.597310 0.492975 0.592473
C35   C     C_R   0.938362 0.383115 0.557161 -0.074561
C36   C     C_R   0.060575 0.601407 0.511512 -0.092184
C37   C     C_R   0.969931 0.491273 0.523682 -0.011469
C38   C     C_R   0.030039 0.489106 0.526012 -0.024939
C39   C     C_R   0.941574 0.602578 0.486154 -0.096375
C40   C     C_R   0.059520 0.376182 0.544851 -0.075458
C41   C     C_R   0.967758 0.270289 0.584055 -0.114191
C42   C     C_R   0.030886 0.714201 0.521663 -0.067155
C43   C     C_R   0.027736 0.265947 0.571339 -0.084674
C44   C     C_R   0.973083 0.715433 0.482961 -0.080843
Cu1   Cu    Cu3+1 0.500010 0.499990 0.643150 0.939704
Cu2   Cu    Cu3+1 0.499990 0.500010 0.356850 0.939851
H1    H     H_    0.418342 0.603654 0.901019 0.116426
H2    H     H_    0.581653 0.396325 0.098975 0.114480
H3    H     H_    0.500453 0.707162 0.095400 0.115618
H4    H     H_    0.499544 0.292838 0.904598 0.115724
H5    H     H_    0.582186 0.603468 0.901040 0.113648
H6    H     H_    0.417805 0.396562 0.098962 0.115807
H7    H     H_    0.217309 0.482539 0.734333 0.145100
H8    H     H_    0.785266 0.476585 0.277212 0.149751
H9    H     H_    0.321417 0.488319 0.731804 0.154436
H10   H     H_    0.680796 0.478487 0.272617 0.152944
H11   H     H_    0.318893 0.503202 0.271776 0.153726
H12   H     H_    0.678805 0.524899 0.729343 0.152986
H13   H     H_    0.214378 0.497536 0.277055 0.146521
H14   H     H_    0.782935 0.523821 0.731291 0.148533
H15   H     H_    0.585040 0.921713 0.621651 0.138778
H16   H     H_    0.414964 0.078289 0.378355 0.139460
H17   H     H_    0.500040 0.073349 0.746510 0.131177
H18   H     H_    0.499965 0.926655 0.253493 0.131129
H19   H     H_    0.414992 0.920090 0.622085 0.140286
H20   H     H_    0.585012 0.079918 0.377921 0.138735
N1    N     N_R   0.852040 0.495940 0.507890 -0.472699
N2    N     N_R   0.148053 0.488065 0.509764 -0.478688
N3    N     N_3   0.500040 0.499970 0.858290 -0.156240
N4    N     N_3   0.499960 0.500030 0.141710 -0.156172
O1    O     O_R   0.500030 0.316850 0.620870 -0.586527
O2    O     O_R   0.499970 0.683150 0.379130 -0.586526
O3    O     O_R   0.500000 0.316860 0.379090 -0.581094
O4    O     O_R   0.500000 0.683140 0.620910 -0.580949
O5    O     O_R   0.417890 0.499960 0.620920 -0.585099
O6    O     O_R   0.582110 0.500040 0.379080 -0.584292
O7    O     O_R   0.417870 0.499970 0.379140 -0.584247
O8    O     O_R   0.582130 0.500030 0.620860 -0.584452
O9    O     O_2   0.855128 0.688839 0.392383 -0.497844
O10   O     O_2   0.150918 0.275249 0.557876 -0.494984
O11   O     O_2   0.845995 0.304532 0.625153 -0.497738
O12   O     O_2   0.148650 0.700530 0.453354 -0.477025
C45   C     C_2   0.936366 0.154261 0.617147 0.943753
O13   O     O_2   0.901444 0.114389 0.532644 -0.523580
O14   O     O_R   0.945643 0.093140 0.746518 -0.715355
H21   H     H_    0.919873 0.018131 0.759777 0.378626
C46   C     C_2   0.050601 0.808321 0.627256 0.860986
O15   O     O_2   0.101138 0.828355 0.647539 -0.513319
O16   O     O_R   0.010455 0.864697 0.715320 -0.747326
H22   H     H_    0.028443 0.913220 0.795725 0.388418
C47   C     C_2   0.056172 0.144060 0.573526 0.958731
O17   O     O_2   0.075170 0.102764 0.685024 -0.517907
O18   O     O_R   0.064259 0.081343 0.445553 -0.716372
H23   H     H_    0.088451 0.004299 0.456648 0.372368
C48   C     C_2   0.946636 0.837087 0.453726 0.982076
O19   O     O_2   0.905058 0.869797 0.521645 -0.504135
O20   O     O_R   0.970457 0.914852 0.349750 -0.724859
H24   H     H_    0.947905 0.993692 0.333816 0.369190

loop_
_geom_bond_atom_site_label_1
_geom_bond_atom_site_label_2
_ccdc_geom_bond_type
C46   O15   D    
O18   H23   S    
C8    C24   S    
Cu1   O1    S    
C18   C21   S    
C11   C13   A    
C36   C42   A    
C48   O19   D    
Cu2   O6    S    
O20   H24   S    
Cu1   Cu2   S    
C31   N1    A    
C1    O1    A    
C28   C29   S    
C10   H12   S    
C26   H4    S    
C33   C35   A    
C2    O2    A    
C47   O18   S    
C41   C45   S    
C7    C9    A    
C22   H20   S    
C17   H15   S    
C40   C43   A    
C14   N1    S    
Cu1   O8    S    
C9    H11   S    
C27   N3    S    
C32   N2    A    
C4    H8    S    
C27   C30   S    
C41   C43   A    
C42   C44   A    
C11   H13   S    
C30   N4    S    
C29   N3    S    
C6    H10   S    
C25   C29   S    
C15   C20   S    
C28   N4    S    
Cu1   N3    S    
C4    C6    A    
C34   N2    A    
C47   O17   D    
C5    C7    A    
C24   O6    A    
C6    C8    A    
O14   H21   S    
C43   C47   S    
Cu1   O4    S    
C37   C38   A    
C32   O10   S    
C45   O13   D    
C16   C18   S    
C23   O7    A    
C9    C11   A    
C2    O4    A    
C10   C12   A    
C24   O8    A    
C45   O14   S    
C20   C22   S    
C26   C30   S    
C46   O16   S    
C23   O5    A    
C33   N1    A    
C29   H5    S    
C27   H1    S    
C15   C17   S    
C30   H6    S    
C28   H2    S    
C1    C20   S    
C16   C22   S    
C21   H19   S    
C2    C19   S    
Cu2   O2    S    
C5    H9    S    
C18   H16   S    
C12   C14   A    
C3    C5    A    
C3    C13   A    
Cu2   O7    S    
C48   O20   S    
C31   O9    S    
C39   C44   A    
C25   N4    S    
C25   C27   S    
C34   O12   S    
C26   C28   S    
C17   C22   S    
Cu1   O5    S    
C1    O3    A    
C36   C38   A    
C35   C37   A    
C37   C39   A    
C44   C48   S    
C38   C40   A    
C3    H7    S    
C16   C19   S    
C7    C23   S    
C17   C19   S    
C34   C36   A    
C31   C39   A    
C18   C20   S    
C32   C40   A    
C4    C14   A    
C35   C41   A    
C25   H3    S    
Cu2   N4    S    
C12   H14   S    
C15   C21   S    
C8    C10   A    
C26   N3    S    
C15   H17   S    
C42   C46   S    
C16   H18   S    
O16   H22   S    
C33   O11   S    
Cu2   O3    S    
C19   C21   S    
C13   N2    S    
