data_mof_unit_38593.cif
_audit_creation_date              2013-03-05T15:53:41-0500
_audit_creation_method            fapswitch 2.2
_symmetry_space_group_name_H-M    P1
_symmetry_Int_Tables_number       1
_space_group_crystal_system       triclinic
_cell_length_a                    12.95925
_cell_length_b                    13.301464
_cell_length_c                    27.723685
_cell_angle_alpha                 95.096888
_cell_angle_beta                  89.913717
_cell_angle_gamma                 119.07742
_cell_volume                      4155.3244128

loop_
_atom_site_label
_atom_site_type_symbol
_atom_site_description
_atom_site_fract_x
_atom_site_fract_y
_atom_site_fract_z
_atom_type_partial_charge
O1    O     O_R   0.296680 0.802170 0.437540 -0.520459
O2    O     O_R   0.525380 0.838530 0.443500 -0.501032
C1    C     C_R   0.627465 0.896626 0.426928 0.546236
O3    O     O_R   0.702130 0.995190 0.446810 -0.517881
O4    O     O_R   0.661770 0.181390 0.458760 -0.500405
C2    C     C_R   0.600971 0.221671 0.440484 0.548450
O5    O     O_R   0.499820 0.198480 0.455280 -0.487103
O6    O     O_R   0.311660 0.976250 0.449080 -0.495083
C3    C     C_R   0.271561 0.877105 0.424937 0.544738
O7    O     O_R   0.297580 0.804960 0.544440 -0.503032
O8    O     O_R   0.526220 0.841130 0.542590 -0.492603
C4    C     C_R   0.626878 0.899240 0.565119 0.546964
O9    O     O_R   0.703030 0.997990 0.553710 -0.507851
O10   O     O_R   0.662610 0.183990 0.557860 -0.500859
C5    C     C_R   0.601791 0.225629 0.578909 0.544124
O11   O     O_R   0.500730 0.201280 0.562180 -0.520604
O12   O     O_R   0.312500 0.978850 0.548170 -0.497275
C6    C     C_R   0.272023 0.879790 0.563495 0.546515
Cr1   Cr    Cr6+3 0.416430 0.829200 0.492370 1.034459
Cr2   Cr    Cr6+3 0.674630 0.087020 0.504170 1.030310
Cr3   Cr    Cr6+3 0.408920 0.083740 0.503490 1.046522
O13   O     O_3   0.499990 0.999990 0.500010 -0.251624
C7    C     C_1   0.633350 0.268774 0.394762 0.005387
C8    C     C_R   0.697954 0.250284 0.271422 -0.102534
C9    C     C_R   0.706121 0.266449 0.222051 -0.102425
C10   C     C_R   0.656985 0.420270 0.237588 -0.098723
C11   C     C_R   0.648935 0.404151 0.286901 -0.085930
C12   C     C_R   0.669447 0.319140 0.303969 0.041182
C13   C     C_R   0.685070 0.351197 0.204988 0.036067
C14   C     C_1   0.694523 0.370662 0.154470 -0.056687
C15   C     C_1   0.652914 0.296261 0.354035 -0.037496
C16   C     C_1   0.703540 0.396128 0.113382 -0.013210
H1    H     H_    0.712418 0.183241 0.284154 0.117800
H2    H     H_    0.728250 0.212771 0.197292 0.111964
H3    H     H_    0.640873 0.486371 0.224833 0.120489
H4    H     H_    0.625446 0.456956 0.311543 0.126277
C17   C     C_R   0.220028 0.766939 0.344926 -0.123072
C18   C     C_R   0.212539 0.764987 0.295167 0.015337
C19   C     C_R   0.194480 0.757695 0.194813 0.021918
C20   C     C_R   0.214213 0.676158 0.215590 -0.121225
C21   C     C_R   0.221247 0.678666 0.265615 -0.118622
C22   C     C_R   0.171724 0.745986 0.145239 -0.125777
H5    H     H_    0.171818 0.674468 0.123176 0.131325
H6    H     H_    0.231714 0.700236 0.359826 0.140444
H7    H     H_    0.219443 0.607812 0.193229 0.108923
H8    H     H_    0.233229 0.612952 0.281222 0.114588
C23   C     C_R   0.133020 0.815568 0.125216 -0.000792
C24   C     C_R   0.208881 0.944649 0.355289 -0.108559
C25   C     C_R   0.197186 0.942741 0.304738 -0.003686
C26   C     C_R   0.199859 0.852006 0.274769 0.024019
C27   C     C_R   0.183589 0.028593 0.283101 0.219231
C28   C     C_R   0.163561 0.017097 0.232663 -0.112038
C29   C     C_R   0.164905 0.926511 0.203314 -0.033333
C30   C     C_R   0.188098 0.846553 0.224291 0.050941
C31   C     C_R   0.136985 0.910405 0.153573 -0.129173
C32   C     C_R   0.224171 0.859146 0.375181 -0.018901
H9    H     H_    0.109608 0.966007 0.137846 0.127852
H10   H     H_    0.148726 0.080231 0.216217 0.142755
H11   H     H_    0.209481 0.013327 0.379460 0.186262
C33   C     C_R   0.740829 0.951925 0.354033 -0.123054
C34   C     C_R   0.742037 0.942711 0.304003 0.001886
C35   C     C_R   0.741340 0.926228 0.203187 0.005603
C36   C     C_R   0.823596 0.028265 0.230286 -0.133140
C37   C     C_R   0.824801 0.035937 0.280553 -0.118649
C38   C     C_R   0.747951 0.914004 0.153361 -0.131159
H12   H     H_    0.816301 0.985105 0.135969 0.129590
H13   H     H_    0.805820 0.031873 0.374137 0.148590
H14   H     H_    0.888905 0.100809 0.212663 0.120384
H15   H     H_    0.889416 0.115201 0.301100 0.159426
C39   C     C_R   0.678341 0.806209 0.127014 -0.003813
C40   C     C_R   0.566040 0.762028 0.351185 -0.134590
C41   C     C_R   0.570014 0.748761 0.300746 0.011249
C42   C     C_R   0.656182 0.841097 0.277084 0.062812
C43   C     C_R   0.487092 0.647080 0.273375 -0.137437
C44   C     C_R   0.490817 0.636363 0.222891 -0.139740
C45   C     C_R   0.575956 0.728169 0.199242 0.010243
C46   C     C_R   0.656917 0.832153 0.226470 0.065040
C47   C     C_R   0.587249 0.715634 0.149281 -0.137449
C48   C     C_R   0.649095 0.865357 0.377657 -0.003802
H16   H     H_    0.531936 0.632784 0.128699 0.128028
H17   H     H_    0.427985 0.556093 0.202413 0.113729
H18   H     H_    0.420244 0.575627 0.291015 0.126110
H19   H     H_    0.495274 0.695002 0.369427 0.127974
C49   C     C_R   0.738251 0.299317 0.652598 -0.136510
C50   C     C_R   0.751042 0.318188 0.703236 0.010015
C51   C     C_R   0.770363 0.347495 0.805063 0.007245
C52   C     C_R   0.865324 0.354612 0.778316 -0.140409
C53   C     C_R   0.855202 0.338678 0.727672 -0.139043
C54   C     C_R   0.781791 0.371160 0.855468 -0.138115
H20   H     H_    0.866259 0.398729 0.874030 0.131919
H21   H     H_    0.807603 0.295907 0.631809 0.126127
H22   H     H_    0.947527 0.373260 0.796537 0.117312
H23   H     H_    0.929042 0.343426 0.707640 0.117024
C55   C     C_R   0.687937 0.370580 0.881162 -0.006639
C56   C     C_R   0.543008 0.282671 0.656094 -0.124956
C57   C     C_R   0.551643 0.294655 0.706205 0.007925
C58   C     C_R   0.655717 0.312063 0.730048 0.061084
C59   C     C_R   0.455433 0.284310 0.732685 -0.126417
C60   C     C_R   0.462433 0.291971 0.782962 -0.116492
C61   C     C_R   0.566891 0.313368 0.807133 0.019092
C62   C     C_R   0.664061 0.323262 0.780757 0.060769
C63   C     C_R   0.578258 0.332864 0.857255 -0.113831
C64   C     C_R   0.632538 0.277714 0.629100 -0.004266
H24   H     H_    0.504816 0.329920 0.877125 0.144374
H25   H     H_    0.387466 0.284391 0.802963 0.115331
H26   H     H_    0.374441 0.269175 0.714492 0.119088
H27   H     H_    0.461173 0.266866 0.638396 0.142346
C65   C     C_1   0.223341 0.863946 0.610438 -0.010188
C66   C     C_R   0.087371 0.743064 0.718719 -0.098950
C67   C     C_R   0.073165 0.732942 0.768352 -0.098137
C68   C     C_R   0.229948 0.931070 0.786292 -0.104681
C69   C     C_R   0.244206 0.941151 0.736592 -0.105143
C70   C     C_R   0.173014 0.847136 0.702717 0.036582
C71   C     C_R   0.144860 0.826589 0.802253 0.037848
C72   C     C_1   0.127044 0.814682 0.853122 -0.054526
C73   C     C_1   0.195379 0.854982 0.651967 -0.055403
C74   C     C_1   0.102291 0.797417 0.894605 -0.009712
H28   H     H_    0.032865 0.669424 0.692929 0.116791
H29   H     H_    0.006599 0.651892 0.780317 0.122058
H30   H     H_    0.285398 0.004206 0.812128 0.111168
H31   H     H_    0.311794 0.021567 0.724582 0.117290
C75   C     C_1   0.641749 0.867008 0.611561 -0.006011
C76   C     C_R   0.730757 0.924176 0.735756 -0.107470
C77   C     C_R   0.730950 0.911795 0.785153 -0.133720
C78   C     C_R   0.573549 0.711099 0.770165 0.069263
C79   C     C_R   0.574606 0.725679 0.720344 -0.105793
C80   C     C_R   0.653325 0.831140 0.703209 0.007629
C81   C     C_R   0.653428 0.806446 0.802852 0.009406
C82   C     C_1   0.665207 0.797862 0.853925 -0.001249
C83   C     C_1   0.648769 0.847443 0.652727 -0.050202
C84   C     C_1   0.683194 0.789722 0.895705 0.027009
H32   H     H_    0.790714 0.006743 0.722962 0.122478
H33   H     H_    0.792764 0.984734 0.809702 0.118033
H34   H     H_    0.514142 0.654968 0.694584 0.161107
O14   O     O_R   0.820790 0.857990 0.068830 -0.521310
O15   O     O_R   0.016700 0.827330 0.062850 -0.502298
C85   C     C_R   0.066137 0.773450 0.078703 0.547046
O16   O     O_R   0.041970 0.673520 0.060040 -0.518480
O17   O     O_R   0.817980 0.483660 0.048840 -0.494126
C86   C     C_R   0.716967 0.441446 0.067298 0.544344
O18   O     O_R   0.637200 0.461990 0.052510 -0.512485
O19   O     O_R   0.664790 0.681920 0.057970 -0.503895
C87   C     C_R   0.719533 0.782906 0.080578 0.546049
O20   O     O_R   0.815840 0.852920 0.961840 -0.517102
O21   O     O_R   0.012100 0.822630 0.963670 -0.495267
C88   C     C_R   0.056813 0.766112 0.941327 0.546003
O22   O     O_R   0.037010 0.668460 0.953040 -0.508745
O23   O     O_R   0.813390 0.478970 0.949660 -0.505278
C89   C     C_R   0.710135 0.432730 0.929445 0.547711
O24   O     O_R   0.632250 0.456930 0.945520 -0.507172
O25   O     O_R   0.660200 0.677230 0.958780 -0.477151
C90   C     C_R   0.716400 0.776059 0.942998 0.545463
Cr4   Cr    Cr6+3 0.914010 0.832750 0.013970 1.022428
Cr5   Cr    Cr6+3 0.922310 0.578600 0.003000 1.024994
Cr6   Cr    Cr6+3 0.656280 0.574630 0.003870 1.039583
O26   O     O_3   0.830870 0.661990 0.006950 -0.246415
N1    N     N_R   0.191514 0.128338 0.311293 0.067419
O27   O     O_R   0.281996 0.191445 0.341292 -0.346569
O28   O     O_R   0.122959 0.169448 0.299860 -0.374917
C91   C     C_2   0.488126 0.596252 0.786092 0.571519
O29   O     O_2   0.495617 0.572785 0.827136 -0.520889
O30   O     O_R   0.398082 0.513854 0.753625 -0.720676
H35   H     H_    0.344398 0.440123 0.768642 0.330853

loop_
_geom_bond_atom_site_label_1
_geom_bond_atom_site_label_2
_geom_bond_distance
_ccdc_geom_bond_type
C52   C53   1.397916 A    
C33   C48   1.403290 A    
N1    O27   1.301326 A    
C76   H32   1.083812 S    
C39   C47   1.404895 A    
C35   C46   1.410739 A    
C56   C57   1.382676 A    
C1    C48   1.458992 S    
C81   C82   1.444825 S    
C40   C48   1.404070 A    
C71   C72   1.438902 S    
C78   C91   1.492898 S    
C89   O24   1.268833 A    
C76   C77   1.393946 A    
O4    Cr2   1.916536 S    
C29   C30   1.407420 A    
C55   C89   1.459921 S    
O8    Cr1   1.932675 S    
C10   C11   1.398496 A    
C17   C18   1.380118 A    
C77   H33   1.084015 S    
C45   C47   1.396338 A    
C88   O22   1.268535 A    
O4    C2    1.274508 A    
C47   H16   1.084229 S    
C19   C30   1.412405 A    
C5    O11   1.264150 A    
O20   Cr4   2.045824 S    
C54   C55   1.405717 A    
C25   C26   1.417933 A    
O22   Cr5   2.029191 S    
C36   H14   1.083903 S    
C17   C32   1.401439 A    
C68   C69   1.399504 A    
C33   H13   1.084618 S    
O6    C3    1.278797 A    
C72   C74   1.205180 T    
C57   C59   1.400288 A    
C78   C81   1.422605 A    
C21   H8    1.083837 S    
C8    C9    1.400252 A    
C59   H26   1.083843 S    
C49   H21   1.084167 S    
O25   Cr6   1.913967 S    
O19   Cr6   1.940510 S    
C67   C71   1.402818 A    
Cr5   O26   1.975387 S    
C35   C38   1.383901 A    
C66   C70   1.399726 A    
C9    H2    1.083753 S    
C77   C81   1.402149 A    
C70   C73   1.438727 S    
O21   Cr4   1.925163 S    
O16   Cr5   2.061329 S    
O14   C87   1.268120 A    
N1    O28   1.301003 A    
C52   H22   1.083531 S    
C56   H27   1.084521 S    
C84   C90   1.434348 S    
O23   Cr5   1.943016 S    
C43   H18   1.083507 S    
C69   C70   1.403407 A    
C56   C64   1.404830 A    
C66   H28   1.083593 S    
O21   C88   1.274432 A    
C19   C22   1.385167 A    
C40   H19   1.084285 S    
C29   C31   1.397185 A    
C9    C13   1.401070 A    
C20   H7    1.083990 S    
C60   H25   1.083781 S    
O1    Cr1   2.053271 S    
C43   C44   1.397340 A    
C27   C28   1.403798 A    
O10   Cr2   1.938298 S    
Cr1   O13   1.975463 S    
O1    C3    1.264577 A    
C45   C46   1.410700 A    
C18   C21   1.400298 A    
C41   C43   1.402602 A    
C19   C20   1.398020 A    
C51   C52   1.403472 A    
C44   H17   1.083512 S    
O17   Cr5   1.912660 S    
C25   C27   1.418636 A    
O5    Cr3   2.028196 S    
C27   N1    1.437090 S    
O12   Cr3   1.910543 S    
C74   C88   1.433045 S    
C7    C15   1.206316 T    
C34   C37   1.399697 A    
C44   C45   1.403179 A    
C13   C14   1.441070 S    
C76   C80   1.396369 A    
C60   C61   1.398901 A    
O7    Cr1   2.037991 S    
O25   C90   1.273032 A    
C57   C58   1.407668 A    
C23   C85   1.459796 S    
C35   C36   1.399218 A    
C61   C63   1.385392 A    
O12   C6    1.272341 A    
C39   C87   1.458165 S    
C3    C32   1.462342 S    
C26   C30   1.399568 A    
C37   H15   1.083448 S    
C49   C50   1.399619 A    
Cr4   O26   1.975152 S    
C63   H24   1.084815 S    
C79   H34   1.083820 S    
C28   H10   1.084100 S    
C20   C21   1.386372 A    
Cr2   O13   1.976363 S    
C38   H12   1.084895 S    
O24   Cr6   2.059742 S    
C31   H9    1.084326 S    
C78   C79   1.410870 A    
C22   H5    1.084818 S    
C1    O3    1.264554 A    
Cr6   O26   1.975910 S    
C28   C29   1.400136 A    
C24   H11   1.080733 S    
C23   C31   1.404593 A    
O30   H35   1.013737 S    
C50   C53   1.402727 A    
C24   C32   1.402739 A    
C53   H23   1.083498 S    
C24   C25   1.406510 A    
O9    Cr2   2.034284 S    
O2    Cr1   1.923104 S    
O19   C87   1.275143 A    
C12   C15   1.440790 S    
O18   Cr6   2.030336 S    
C8    C12   1.403765 A    
C41   C42   1.411957 A    
C51   C54   1.396756 A    
O6    Cr3   1.944017 S    
C67   H29   1.084056 S    
O17   C86   1.274903 A    
O11   Cr3   2.062333 S    
C16   C86   1.435319 S    
C2    O5    1.268690 A    
C18   C26   1.409974 A    
C11   H4    1.083818 S    
C85   O16   1.267383 A    
C8    H1    1.083318 S    
O14   Cr4   2.045308 S    
C34   C42   1.408296 A    
C91   O29   1.222527 D    
C65   C73   1.205076 T    
C17   H6    1.084739 S    
O2    C1    1.275153 A    
C80   C83   1.440790 S    
C69   H31   1.083500 S    
O20   C90   1.267005 A    
C66   C67   1.397679 A    
C14   C16   1.206507 T    
O15   Cr4   1.930963 S    
O7    C6    1.267263 A    
C79   C80   1.400046 A    
C86   O18   1.267707 A    
C2    C7    1.435045 S    
C61   C62   1.411020 A    
C68   C71   1.400498 A    
C22   C23   1.399898 A    
C68   H30   1.083546 S    
C6    C65   1.432893 S    
C50   C58   1.412594 A    
C36   C37   1.387811 A    
O3    Cr2   2.055265 S    
C10   H3    1.084264 S    
C40   C41   1.397828 A    
C4    C75   1.434539 S    
C4    O9    1.269729 A    
C55   C63   1.400664 A    
C10   C13   1.403537 A    
C59   C60   1.388404 A    
C11   C12   1.400300 A    
C49   C64   1.403777 A    
C42   C46   1.398090 A    
O10   C5    1.278283 A    
C33   C34   1.382280 A    
C5    C64   1.461854 S    
C54   H20   1.084212 S    
Cr3   O13   1.975256 S    
C51   C62   1.410090 A    
O23   C89   1.274355 A    
C75   C83   1.206068 T    
C58   C62   1.399247 A    
O15   C85   1.272938 A    
C38   C39   1.400661 A    
O8    C4    1.275066 A    
C91   O30   1.399239 S    
C82   C84   1.206378 T    
