data_mof_unit_42355.cif
_audit_creation_date              2012-12-11T15:54:56-0500
_audit_creation_method            fapswitch 2.2
_symmetry_space_group_name_H-M    P1
_symmetry_Int_Tables_number       1
_space_group_crystal_system       triclinic
_cell_length_a                    17.795053
_cell_length_b                    24.48139
_cell_length_c                    15.094159
_cell_angle_alpha                 90.319059
_cell_angle_beta                  126.086428
_cell_angle_gamma                 89.646316
_cell_volume                      5313.92822253

loop_
_atom_site_label
_atom_site_type_symbol
_atom_type_description
_atom_site_fract_x
_atom_site_fract_y
_atom_site_fract_z
_atom_type_partial_charge
C1    C     C_R   0.937482 0.850632 0.091659 0.731503
C2    C     C_R   0.136212 0.845350 0.088491 0.719737
C3    C     C_R   0.327920 0.655705 0.996163 -0.089998
C4    C     C_R   0.700484 0.999724 0.629938 0.156158
C5    C     C_R   0.204040 0.500057 0.626753 -0.022711
C6    C     C_R   0.947803 0.001544 0.269377 0.251158
C7    C     C_R   0.456856 0.501472 0.279098 0.243257
C8    C     C_R   0.260793 0.955518 0.299654 0.515361
C9    C     C_R   0.257640 0.046038 0.300202 0.518556
C10   C     C_R   0.762237 0.455283 0.297787 0.491465
C11   C     C_R   0.759242 0.545977 0.298629 0.529416
C12   C     C_R   0.949565 0.045364 0.695779 0.857264
C13   C     C_R   0.648614 0.651219 0.091244 0.870855
C14   C     C_R   0.953515 0.954611 0.696951 0.731176
C15   C     C_R   0.451731 0.545841 0.697823 0.815811
C16   C     C_R   0.454513 0.454880 0.697577 0.830033
C17   C     C_R   0.643256 0.346819 0.088983 0.741240
C18   C     C_R   0.312609 0.001063 0.357204 0.030286
C19   C     C_R   0.814865 0.500939 0.354536 0.046399
C20   C     C_R   0.935547 0.999954 0.631474 -0.289965
C21   C     C_R   0.440904 0.500668 0.635514 -0.327169
C22   C     C_R   0.103013 0.813291 0.997126 0.102268
C23   C     C_R   0.125278 0.180927 0.000918 0.030090
C24   C     C_R   0.618188 0.316643 0.997956 0.106868
C25   C     C_R   0.939626 0.150570 0.091897 0.688258
C26   C     C_R   0.624268 0.681208 0.000725 0.038078
C27   C     C_3   0.895300 0.057715 0.364939 0.142964
C28   C     C_3   0.869884 0.954870 0.343614 0.310371
C29   C     C_3   0.437276 0.561579 0.397924 0.164593
C30   C     C_3   0.358229 0.468875 0.335815 0.264186
C31   C     C_3   0.906767 0.060347 0.475746 0.785070
C32   C     C_3   0.852705 0.960207 0.434189 0.735992
C33   C     C_3   0.427856 0.562254 0.492737 0.769035
C34   C     C_3   0.355345 0.465889 0.437706 0.744618
C35   C     C_3   0.033534 0.992769 0.465085 -0.768355
C36   C     C_R   0.438239 0.350476 0.091925 0.722909
C37   C     C_3   0.534269 0.475036 0.467362 -0.912722
C38   C     C_3   0.934519 0.002009 0.357288 -0.096948
C39   C     C_3   0.444686 0.502029 0.367125 -0.060946
C40   C     C_3   0.930136 0.000470 0.528229 -0.225856
C41   C     C_3   0.439164 0.501374 0.535868 -0.204457
C42   C     C_R   0.851078 0.151902 0.911000 0.745743
C43   C     C_R   0.846735 0.849845 0.909864 0.780062
C44   C     C_R   0.320421 0.634984 0.905909 0.841418
C45   C     C_R   0.347892 0.349401 0.910259 0.772002
C46   C     C_3   0.029828 0.983169 0.562815 0.808194
C47   C     C_R   0.415121 0.639861 0.088916 0.669034
C48   C     C_3   0.536278 0.478109 0.570597 0.880981
C49   C     C_3   0.698677 0.194878 0.908250 0.647063
C50   C     C_3   0.696667 0.807566 0.916125 0.657270
C51   C     C_3   0.156325 0.682997 0.896252 0.708572
C52   C     C_3   0.197839 0.306869 0.915353 0.648428
C53   C     C_3   0.093116 0.722934 0.907938 0.916592
C54   C     C_3   0.129988 0.270493 0.923682 0.973041
C55   C     C_3   0.627982 0.229594 0.915321 0.969393
C56   C     C_3   0.628930 0.770984 0.924281 0.967727
C57   C     C_3   0.293103 0.752791 0.984875 1.172368
C58   C     C_R   0.048571 0.846705 0.907721 0.002941
C59   C     C_3   0.315920 0.226629 0.975042 1.197644
C60   C     C_3   0.817445 0.274968 0.982139 1.202777
C61   C     C_3   0.814067 0.727146 0.973333 1.195651
C62   C     C_3   0.817340 0.212048 0.113320 0.345094
C63   C     C_3   0.822428 0.785007 0.117038 0.368276
C64   C     C_3   0.271926 0.691167 0.102969 0.367394
C65   C     C_3   0.322689 0.285295 0.116965 0.364416
C66   C     C_3   0.802366 0.214912 0.000100 -0.595332
C67   C     C_3   0.801011 0.786078 0.000366 -0.597248
C68   C     C_3   0.262954 0.694785 0.993245 -0.563683
C69   C     C_R   0.060350 0.150683 0.908963 0.017100
C70   C     C_3   0.302227 0.285730 0.000743 -0.600067
C71   C     C_3   0.156947 0.767594 0.996146 -0.525722
C72   C     C_3   0.186722 0.221389 0.001744 -0.528383
C73   C     C_3   0.682245 0.277309 0.999049 -0.536405
C74   C     C_3   0.685683 0.721682 0.001538 -0.529364
C75   C     C_3   0.222263 0.794226 0.970284 0.234287
C76   C     C_3   0.240092 0.190438 0.962358 0.239110
C77   C     C_3   0.739367 0.310244 0.967827 0.228928
C78   C     C_3   0.738456 0.690924 0.961074 0.240159
C79   C     C_3   0.220411 0.739230 0.111349 0.876046
C80   C     C_R   0.556654 0.348364 0.907659 0.010196
C81   C     C_3   0.261028 0.243676 0.120749 0.881748
C82   C     C_3   0.753350 0.252750 0.116809 0.888808
C83   C     C_3   0.760460 0.743609 0.120702 0.877782
C84   C     C_3   0.455526 0.952346 0.398294 0.168454
C85   C     C_3   0.454512 0.056644 0.417984 0.125556
C86   C     C_3   0.957588 0.451853 0.396451 0.161003
C87   C     C_3   0.957364 0.556110 0.414203 0.161214
C88   C     C_R   0.747762 0.954519 0.694060 0.429709
C89   C     C_R   0.747453 0.044979 0.693902 0.432385
C90   C     C_R   0.249868 0.454939 0.692077 0.436784
C91   C     C_R   0.559726 0.650840 0.908878 0.006713
C92   C     C_R   0.251933 0.545155 0.691802 0.552302
C93   C     C_3   0.561930 0.955055 0.465686 0.613064
C94   C     C_3   0.560942 0.056028 0.494076 0.728252
C95   C     C_3   0.064478 0.451043 0.471632 0.648563
C96   C     C_3   0.063680 0.553328 0.481151 0.590823
C97   C     C_3   0.449596 0.994674 0.548373 1.115875
C98   C     C_3   0.952811 0.495224 0.546287 1.113321
C99   C     C_3   0.415680 0.001385 0.427950 -0.424801
C100  C     C_3   0.918311 0.501278 0.425561 -0.428158
C101  C     C_3   0.597533 0.000094 0.554687 -0.547016
C102  C     C_R   0.149430 0.150960 0.091412 0.851345
C103  C     C_3   0.100656 0.500366 0.552001 -0.480388
C104  C     C_3   0.557859 0.991397 0.624756 0.477370
C105  C     C_3   0.061152 0.498222 0.623344 0.485026
C106  C     C_R   0.978754 0.046647 0.244438 -0.086124
C107  C     C_R   0.977189 0.955086 0.243855 -0.090636
C108  C     C_R   0.485884 0.546536 0.252441 -0.085065
C109  C     C_R   0.480337 0.454874 0.247526 -0.101522
C110  C     C_R   0.867527 0.822171 0.001133 -0.031746
C111  C     C_R   0.871952 0.180173 0.001977 0.019830
C112  C     C_R   0.368977 0.321685 0.001591 -0.018495
F1    F     F_    0.999925 0.830630 0.193921 -0.611636
F2    F     F_    0.312922 0.224257 0.881167 -0.547840
F3    F     F_    0.819282 0.280045 0.891922 -0.551968
F4    F     F_    0.810131 0.725228 0.878814 -0.555381
F5    F     F_    0.829582 0.177336 0.819377 -0.596406
F6    F     F_    0.813754 0.826258 0.812144 -0.592680
F7    F     F_    0.264663 0.651746 0.800878 -0.552855
F8    F     F_    0.317655 0.325111 0.814002 -0.596441
F9    F     F_    0.171794 0.815624 0.865031 -0.601454
F10   F     F_    0.179857 0.173491 0.854067 -0.583873
F11   F     F_    0.682449 0.329401 0.860919 -0.590526
F12   F     F_    0.003991 0.171112 0.193246 -0.621912
F13   F     F_    0.677744 0.674262 0.852655 -0.587807
F14   F     F_    0.803713 0.159358 0.134700 -0.632600
F15   F     F_    0.812726 0.836629 0.148100 -0.630659
F16   F     F_    0.238738 0.641540 0.110320 -0.546591
F17   F     F_    0.311600 0.337027 0.146357 -0.626488
F18   F     F_    0.287077 0.775970 0.188355 -0.681888
F19   F     F_    0.318269 0.201015 0.188512 -0.692374
F20   F     F_    0.809097 0.294231 0.189997 -0.695725
F21   F     F_    0.817227 0.700684 0.187946 -0.693831
F22   F     F_    0.379850 0.765155 0.080162 -0.600549
F23   F     F_    0.501526 0.330424 0.193916 -0.614452
F24   F     F_    0.402656 0.206985 0.060428 -0.620210
F25   F     F_    0.902651 0.293446 0.072463 -0.613187
F26   F     F_    0.900962 0.707212 0.057732 -0.616900
F27   F     F_    0.591534 0.964804 0.400347 -0.544045
F28   F     F_    0.598087 0.067762 0.437186 -0.518433
F29   F     F_    0.101425 0.451008 0.412374 -0.535292
F30   F     F_    0.092181 0.555771 0.413116 -0.561808
F31   F     F_    0.411074 0.948098 0.558661 -0.616398
F32   F     F_    0.419069 0.038557 0.578231 -0.676056
F33   F     F_    0.921746 0.446059 0.559198 -0.625113
F34   F     F_    0.468581 0.667593 0.184888 -0.627983
F35   F     F_    0.914985 0.536219 0.572890 -0.671016
F36   F     F_    0.919877 0.097211 0.662243 -0.573579
F37   F     F_    0.944806 0.901109 0.670502 -0.598008
F38   F     F_    0.418167 0.597021 0.662715 -0.620007
F39   F     F_    0.437150 0.402011 0.665426 -0.567663
F40   F     F_    0.183723 0.170958 0.192226 -0.548212
F41   F     F_    0.154016 0.825103 0.182471 -0.579552
F42   F     F_    0.680878 0.671622 0.191180 -0.555463
F43   F     F_    0.661339 0.323997 0.181269 -0.581380
F44   F     F_    0.027566 0.746386 0.806507 -0.634431
F45   F     F_    0.058525 0.251906 0.819722 -0.629030
F46   F     F_    0.558953 0.249881 0.811928 -0.635730
F47   F     F_    0.557242 0.752612 0.820223 -0.642012
F48   F     F_    0.300842 0.756497 0.898799 -0.569508
H1    H     H_    0.078054 0.028552 0.480307 0.224734
H2    H     H_    0.273299 0.152814 0.012211 0.170660
H3    H     H_    0.770980 0.346890 0.021620 0.174343
H4    H     H_    0.771746 0.653188 0.010473 0.172548
H5    H     H_    0.440876 0.913834 0.423901 0.160028
H6    H     H_    0.432310 0.090809 0.446632 0.134935
H7    H     H_    0.936999 0.413154 0.414288 0.172442
H8    H     H_    0.941159 0.589942 0.450025 0.131537
H9    H     H_    0.589014 0.914210 0.501517 0.065875
H10   H     H_    0.581538 0.089509 0.554072 0.061288
H11   H     H_    0.086064 0.411805 0.516122 0.040832
H12   H     H_    0.068847 0.957180 0.457686 0.269182
H13   H     H_    0.090394 0.590360 0.533815 0.124790
H14   H     H_    0.972411 0.089119 0.257059 0.188811
H15   H     H_    0.970378 0.913260 0.259838 0.198734
H16   H     H_    0.487038 0.588367 0.273906 0.193280
H17   H     H_    0.472432 0.412985 0.262337 0.194486
H18   H     H_    0.006609 0.835913 0.822237 0.303085
H19   H     H_    0.023186 0.161447 0.823718 0.301629
H20   H     H_    0.518466 0.337768 0.822199 0.299880
H21   H     H_    0.522436 0.661641 0.823615 0.294752
H22   H     H_    0.934966 0.092425 0.364806 0.075998
H23   H     H_    0.597599 0.493787 0.482046 0.255096
H24   H     H_    0.906531 0.915794 0.353718 0.070111
H25   H     H_    0.504049 0.582404 0.427716 0.068894
H26   H     H_    0.364789 0.427046 0.311192 0.089383
H27   H     H_    0.786656 0.103198 0.265178 0.386786
H28   H     H_    0.754927 0.919669 0.228326 0.397903
H29   H     H_    0.377733 0.629240 0.320931 0.326508
H30   H     H_    0.227649 0.464315 0.212666 0.391338
H31   H     H_    0.817798 0.119015 0.439823 0.387901
H32   H     H_    0.752257 0.982634 0.443182 0.409952
H33   H     H_    0.338232 0.622927 0.447121 0.366609
H34   H     H_    0.536998 0.431345 0.448447 0.255068
H35   H     H_    0.265360 0.479797 0.469751 0.393080
H36   H     H_    0.029886 0.096100 0.541198 0.339817
H37   H     H_    0.899866 0.883971 0.479099 0.377623
H38   H     H_    0.489177 0.634058 0.546631 0.346769
H39   H     H_    0.406446 0.390653 0.463994 0.355262
H40   H     H_    0.160777 0.001891 0.672835 0.368545
H41   H     H_    0.085885 0.923040 0.670629 0.389109
H42   H     H_    0.626994 0.539136 0.621433 0.360463
H43   H     H_    0.616426 0.414361 0.643277 0.396782
H44   H     H_    0.673191 0.237666 0.782065 0.423851
H45   H     H_    0.889676 0.223319 0.181165 0.220334
H46   H     H_    0.664953 0.769561 0.781997 0.419403
H47   H     H_    0.143640 0.728123 0.779574 0.420961
H48   H     H_    0.167089 0.268011 0.782382 0.423994
H49   H     H_    0.633880 0.124623 0.860261 0.366500
H50   H     H_    0.633037 0.878301 0.881215 0.378961
H51   H     H_    0.073374 0.619917 0.837110 0.360926
H52   H     H_    0.133438 0.377418 0.878293 0.377631
H53   H     H_    0.533631 0.176883 0.885816 0.378686
H54   H     H_    0.536566 0.822587 0.906062 0.376017
H55   H     H_    0.988708 0.678182 0.875095 0.386530
H56   H     H_    0.895145 0.771821 0.179577 0.223319
H57   H     H_    0.037205 0.322113 0.904418 0.381692
H58   H     H_    0.753399 0.220075 0.234193 0.381112
H59   H     H_    0.766919 0.772743 0.245401 0.395076
H60   H     H_    0.212079 0.710441 0.225215 0.386784
H61   H     H_    0.266752 0.272924 0.244888 0.399354
H62   H     H_    0.432354 0.977487 0.260345 0.441318
H63   H     H_    0.428840 0.106830 0.303527 0.411684
H64   H     H_    0.949376 0.479148 0.268609 0.447203
H65   H     H_    0.928718 0.607917 0.300832 0.409176
H66   H     H_    0.710766 0.881104 0.659041 0.380508
H67   H     H_    0.344502 0.693886 0.176312 0.192234
H68   H     H_    0.728147 0.120797 0.680073 0.385310
H69   H     H_    0.220473 0.380352 0.664951 0.381338
H70   H     H_    0.237508 0.589203 0.576986 0.381621
H71   H     H_    0.559620 0.910656 0.626691 0.325858
H72   H     H_    0.578694 0.023099 0.756845 0.404608
H73   H     H_    0.078344 0.418983 0.654747 0.332712
H74   H     H_    0.078610 0.540869 0.744145 0.405597
H75   H     H_    0.280097 0.881184 0.287446 0.380016
H76   H     H_    0.299026 0.093022 0.423566 0.368753
H77   H     H_    0.784728 0.380539 0.295102 0.383785
H78   H     H_    0.395544 0.272690 0.180439 0.222496
H79   H     H_    0.806110 0.594658 0.420962 0.368330
H80   H     H_    0.260712 0.829164 0.027023 0.174678
N1    N     N_R   0.950530 0.896220 0.057200 -0.181843
N2    N     N_R   0.818150 0.028600 0.792440 -0.132814
N3    N     N_R   0.318150 0.471400 0.792440 -0.125862
N4    N     N_R   0.318150 0.528600 0.792440 -0.128019
N5    N     N_R   0.025710 0.028600 0.207560 -0.065626
N6    N     N_R   0.025710 0.971400 0.207560 -0.061378
N7    N     N_R   0.525710 0.528600 0.207560 -0.076545
N8    N     N_R   0.525710 0.471400 0.207560 -0.056702
N9    N     N_R   0.181850 0.971400 0.207560 -0.149299
N10   N     N_R   0.181850 0.028600 0.207560 -0.127492
N11   N     N_R   0.681850 0.471400 0.207560 -0.143970
N12   N     N_R   0.950530 0.103780 0.057200 -0.176063
N13   N     N_R   0.681850 0.528600 0.207560 -0.128991
N14   N     N_R   0.974290 0.028600 0.792440 -0.187466
N15   N     N_R   0.974290 0.971400 0.792440 -0.174420
N16   N     N_R   0.474290 0.528600 0.792440 -0.184446
N17   N     N_R   0.474290 0.471400 0.792440 -0.185357
N18   N     N_R   0.049470 0.896220 0.942800 -0.132454
N19   N     N_R   0.049470 0.103780 0.942800 -0.144709
N20   N     N_R   0.549470 0.396220 0.942800 -0.135436
N21   N     N_R   0.549470 0.603780 0.942800 -0.136177
N22   N     N_R   0.106670 0.103780 0.057200 -0.166654
N23   N     N_R   0.450530 0.396220 0.057200 -0.179879
N24   N     N_R   0.106670 0.896220 0.057200 -0.161766
N25   N     N_R   0.606670 0.603780 0.057200 -0.160792
N26   N     N_R   0.606670 0.396220 0.057200 -0.162454
N27   N     N_R   0.450530 0.603780 0.057200 -0.175825
N28   N     N_R   0.893330 0.103780 0.942800 -0.181664
N29   N     N_R   0.893330 0.896220 0.942800 -0.186946
N30   N     N_R   0.393330 0.603780 0.942800 -0.189647
N31   N     N_R   0.393330 0.396220 0.942800 -0.185676
N32   N     N_R   0.818150 0.971400 0.792440 -0.118018
Ni1   Ni    Ni4+2 0.065600 0.934400 0.131190 0.331935
Ni2   Ni    Ni4+2 0.065600 0.065600 0.131190 0.341591
Ni3   Ni    Ni4+2 0.565600 0.434400 0.131190 0.332628
Ni4   Ni    Ni4+2 0.565600 0.565600 0.131190 0.336378
Ni5   Ni    Ni4+2 0.934400 0.065600 0.868810 0.312449
Ni6   Ni    Ni4+2 0.934400 0.934400 0.868810 0.314210
Ni7   Ni    Ni4+2 0.434400 0.565600 0.868810 0.317209
Ni8   Ni    Ni4+2 0.434400 0.434400 0.868810 0.306332
O1    O     O_3   0.801706 0.063612 0.273907 -0.539743
O2    O     O_3   0.851881 0.907947 0.472577 -0.626601
O3    O     O_3   0.498737 0.596480 0.576143 -0.696666
O4    O     O_3   0.359166 0.410636 0.466521 -0.615587
O5    O     O_3   0.099640 0.014675 0.653290 -0.732974
O6    O     O_3   0.046757 0.927086 0.589714 -0.713202
O7    O     O_3   0.610046 0.511078 0.653861 -0.667473
O8    O     O_3   0.551617 0.424995 0.613604 -0.660368
O9    O     O_3   0.676806 0.198813 0.801815 -0.662473
O10   O     O_3   0.669214 0.807588 0.806999 -0.656169
O11   O     O_3   0.136203 0.689479 0.791383 -0.599997
O12   O     O_3   0.785695 0.955100 0.237616 -0.554854
O13   O     O_3   0.171178 0.306194 0.806547 -0.661408
O14   O     O_3   0.691911 0.139308 0.927081 -0.640646
O15   O     O_3   0.692163 0.862046 0.943869 -0.635412
O16   O     O_3   0.136384 0.628324 0.904002 -0.609978
O17   O     O_3   0.192637 0.361546 0.941557 -0.640217
O18   O     O_3   0.584560 0.197506 0.950364 -0.607068
O19   O     O_3   0.588636 0.800694 0.966845 -0.618872
O20   O     O_3   0.044841 0.694744 0.941296 -0.594229
O21   O     O_3   0.089438 0.300490 0.965626 -0.611910
O22   O     O_3   0.706701 0.226845 0.154577 -0.543592
O23   O     O_3   0.363147 0.589718 0.306146 -0.580118
O24   O     O_3   0.717921 0.768074 0.165609 -0.546982
O25   O     O_3   0.167482 0.720892 0.147000 -0.522568
O26   O     O_3   0.217946 0.267998 0.165116 -0.538687
O27   O     O_3   0.412886 0.946871 0.284907 -0.645106
O28   O     O_3   0.421385 0.067087 0.308966 -0.637642
O29   O     O_3   0.920605 0.449898 0.284247 -0.624756
O30   O     O_3   0.917476 0.568509 0.303795 -0.633317
O31   O     O_3   0.750809 0.905690 0.651866 -0.638896
O32   O     O_3   0.749013 0.093461 0.650547 -0.603671
O33   O     O_3   0.254285 0.406311 0.650381 -0.628188
O34   O     O_3   0.276780 0.492682 0.244693 -0.537213
O35   O     O_3   0.259734 0.594257 0.653974 -0.614185
O36   O     O_3   0.587473 0.940841 0.680873 -0.701625
O37   O     O_3   0.592400 0.033284 0.704105 -0.721888
O38   O     O_3   0.098074 0.453564 0.696947 -0.704893
O39   O     O_3   0.087898 0.546594 0.686131 -0.685671
O40   O     O_3   0.278541 0.903683 0.340808 -0.612038
O41   O     O_3   0.261427 0.096517 0.342914 -0.626549
O42   O     O_3   0.777412 0.404439 0.342457 -0.612240
O43   O     O_3   0.766469 0.597308 0.340150 -0.631350
O44   O     O_3   0.823119 0.079329 0.456026 -0.579463
O45   O     O_3   0.763526 0.982546 0.386100 -0.541396
O46   O     O_3   0.339603 0.582806 0.456997 -0.592924
O47   O     O_3   0.269572 0.486966 0.408156 -0.544423
O48   O     O_3   0.977922 0.097983 0.548037 -0.640897

loop_
_geom_bond_atom_site_label_1
_geom_bond_atom_site_label_2
_ccdc_geom_bond_type
C33   O3    S    
C34   O4    S    
C73   C82   S    
C74   C83   S    
C40   C46   S    
C33   O46   S    
C20   C40   S    
C29   C33   S    
C107  N6    A    
C2    N24   A    
C109  N8    A    
C2    C22   A    
C102  N22   A    
C43   C110  A    
C105  O39   S    
H70   O35   S    
C47   F34   S    
N5    N6    A    
C35   H12   S    
C84   C99   S    
C75   H80   S    
C1    F1    S    
H28   O12   S    
H62   O27   S    
N22   Ni2   S    
C96   H13   S    
C27   C31   S    
C46   O6    S    
H63   O28   S    
C28   C32   S    
C28   O12   S    
H52   O17   S    
C93   C101  S    
C62   F14   S    
C62   C66   S    
C44   F7    S    
C79   F18   S    
N28   Ni5   S    
H79   O43   S    
N30   Ni7   S    
C53   F44   S    
C79   O25   S    
C51   O11   S    
C93   F27   S    
C90   O33   S    
C1    C110  A    
N25   Ni4   S    
N26   Ni3   S    
C11   C19   A    
C12   C20   A    
C6    C106  A    
H77   O42   S    
C70   C112  S    
C45   F8    S    
C104  O36   S    
C64   C79   S    
N20   N26   A    
C53   C71   S    
C36   F23   S    
C4    C89   A    
C47   N27   A    
N32   Ni6   S    
C23   C72   S    
N18   N24   A    
C22   C58   A    
C84   O27   S    
H61   O26   S    
C42   F5    S    
H36   O48   S    
C76   F10   S    
C94   H10   S    
H39   O4    S    
C14   F37   S    
C11   O43   S    
C16   F39   S    
C84   C93   S    
N10   Ni2   S    
C31   O44   S    
C13   F42   S    
C43   N29   A    
C86   C95   S    
C43   F6    S    
C7    C39   S    
H31   O44   S    
C78   F13   S    
N12   Ni2   S    
C5    C103  S    
C16   C21   A    
H64   O29   S    
C71   C79   S    
H27   O1    S    
N9    N10   A    
C35   H1    S    
C58   N18   A    
C104  O37   S    
C64   C68   S    
N27   N30   A    
C61   F26   S    
C81   F19   S    
C98   F35   S    
C65   C70   S    
C37   H23   S    
C59   F24   S    
C11   N13   A    
C55   F46   S    
H71   O36   S    
C6    C38   S    
C63   H56   S    
C50   C67   S    
H53   O18   S    
C91   N21   A    
H30   O34   S    
N23   N31   A    
C87   C96   S    
C95   C103  S    
H59   O24   S    
C3    C44   A    
C49   C66   S    
C30   C34   S    
H33   O46   S    
C36   N23   A    
C35   C38   S    
N8    Ni3   S    
C58   H18   S    
C49   C55   S    
C34   O47   S    
N4    Ni7   S    
C50   C56   S    
H40   O5    S    
N5    Ni2   S    
C51   C53   S    
C97   F32   S    
N18   Ni6   S    
C17   N26   A    
C85   C99   S    
C61   C67   S    
C67   C110  S    
C6    C107  A    
C103  C105  S    
C51   O16   S    
N23   Ni3   S    
C52   O13   S    
C13   C26   A    
N19   Ni5   S    
C18   C99   S    
C57   C68   S    
C87   C100  S    
H58   O22   S    
C73   C77   S    
N13   Ni4   S    
C4    C88   A    
C98   F33   S    
C57   C75   S    
C9    N10   A    
C28   H24   S    
H32   O45   S    
C54   F45   S    
H72   O37   S    
C3    C47   A    
C29   H25   S    
C30   C39   S    
C106  N5    A    
C65   H78   S    
C25   C111  A    
H54   O19   S    
C55   C73   S    
C9    C18   A    
C89   N2    A    
C53   O20   S    
C59   C76   S    
C64   H67   S    
C82   O22   S    
C102  F40   S    
C86   O29   S    
C94   F28   S    
N16   Ni7   S    
C3    C68   S    
H57   O21   S    
H65   O30   S    
C93   H9    S    
C31   O48   S    
H46   O10   S    
C56   F47   S    
H69   O33   S    
C24   C73   S    
C27   C38   S    
N3    N4    A    
C31   C40   S    
N1    Ni1   S    
C50   O15   S    
C84   H5    S    
C76   H2    S    
N12   N28   A    
C36   C112  A    
H49   O14   S    
C32   O45   S    
C66   C111  S    
C86   C100  S    
C72   C81   S    
C69   N19   A    
C62   C82   S    
C92   O35   S    
C60   C66   S    
H44   O9    S    
C34   C41   S    
C32   O2    S    
C30   O34   S    
C54   O21   S    
C56   O19   S    
C9    O41   S    
N27   Ni4   S    
C56   C74   S    
C14   C20   A    
C26   C91   A    
C8    C18   A    
C63   C83   S    
N2    N32   A    
N21   N25   A    
N14   N15   A    
C77   F11   S    
C65   C81   S    
C87   H8    S    
N21   Ni7   S    
C10   C19   A    
C4    C101  S    
C61   F4    S    
C106  H14   S    
C49   O14   S    
C85   O28   S    
C21   C41   S    
N31   Ni8   S    
C57   F48   S    
C95   F29   S    
C101  C104  S    
C98   C100  S    
C91   H21   S    
N15   Ni6   S    
C57   F22   S    
C82   F20   S    
C89   O32   S    
C80   H20   S    
H48   O13   S    
C88   O31   S    
C46   O5    S    
H73   O38   S    
N6    Ni1   S    
C13   N25   A    
N3    Ni8   S    
C65   F17   S    
C19   C100  S    
N24   Ni1   S    
C33   C41   S    
C37   H34   S    
C37   C39   S    
C69   H19   S    
C16   N17   A    
C48   O8    S    
C107  H15   S    
C59   F2    S    
H55   O20   S    
C108  H16   S    
C48   O7    S    
C10   O42   S    
C97   C104  S    
H60   O25   S    
C59   C70   S    
C109  H17   S    
C74   C78   S    
C96   C103  S    
N2    Ni5   S    
N7    Ni4   S    
C35   C46   S    
C95   H11   S    
H41   O6    S    
C15   F38   S    
H43   O8    S    
C77   H3    S    
C78   H4    S    
C23   C69   A    
C49   O9    S    
C72   C76   S    
N19   N22   A    
C45   C112  A    
C83   O24   S    
C108  N7    A    
C98   C105  S    
C8    O40   S    
C85   H6    S    
C30   H26   S    
N11   Ni3   S    
H35   O47   S    
N20   Ni8   S    
C25   N12   A    
N11   N13   A    
C23   C102  A    
C10   N11   A    
C97   F31   S    
C55   O18   S    
C24   C80   A    
C8    N9    A    
C14   N15   A    
C94   C101  S    
N1    N29   A    
C64   F16   S    
H29   O23   S    
C80   N20   A    
C50   O10   S    
H51   O16   S    
C62   H45   S    
C5    C90   A    
C60   F25   S    
C51   C68   S    
C87   O30   S    
C90   N3    A    
H74   O39   S    
C97   C99   S    
C52   C54   S    
C81   O26   S    
C15   N16   A    
C63   C67   S    
C60   C77   S    
C17   C24   A    
C12   N14   A    
H76   O41   S    
C7    C109  A    
C52   O17   S    
C42   C111  A    
C85   C94   S    
C28   C38   S    
C61   C78   S    
N16   N17   A    
C29   C39   S    
C37   C48   S    
C1    N1    A    
H42   O7    S    
C29   O23   S    
C2    F41   S    
N9    Ni1   S    
C42   N28   A    
C22   C71   S    
C44   N30   A    
H66   O31   S    
C45   N31   A    
C75   F9    S    
C86   H7    S    
H37   O2    S    
H47   O11   S    
H75   O40   S    
C27   O1    S    
N7    N8    A    
C12   F36   S    
C27   H22   S    
C71   C75   S    
C92   N4    A    
C105  O38   S    
C26   C74   S    
C41   C48   S    
N29   Ni6   S    
H50   O15   S    
C32   C40   S    
H68   O32   S    
C25   F12   S    
C83   F21   S    
C5    C92   A    
C52   C70   S    
C96   F30   S    
H38   O3    S    
C15   C21   A    
C54   C72   S    
N17   Ni8   S    
C7    C108  A    
C60   F3    S    
C88   N32   A    
N14   Ni5   S    
C63   F15   S    
C17   F43   S    
