data_mof_unit_46796.cif
_audit_creation_date              2012-12-10T16:59:22-0500
_audit_creation_method            fapswitch 2.2
_symmetry_space_group_name_H-M    P1
_symmetry_Int_Tables_number       1
_space_group_crystal_system       triclinic
_cell_length_a                    7.744343
_cell_length_b                    8.555548
_cell_length_c                    27.72551
_cell_angle_alpha                 91.082694
_cell_angle_beta                  85.775582
_cell_angle_gamma                 93.746266
_cell_volume                      1827.92325698

loop_
_atom_site_label
_atom_site_type_symbol
_atom_type_description
_atom_site_fract_x
_atom_site_fract_y
_atom_site_fract_z
_atom_type_partial_charge
C1    C     C_R   0.545930 0.794851 0.498737 0.975940
C2    C     C_R   0.539117 0.641622 0.127439 -0.114072
C3    C     C_R   0.506391 0.498212 0.646475 -0.038793
C4    C     C_R   0.493632 0.501920 0.353527 -0.038693
C5    C     C_R   0.548490 0.642024 0.025249 -0.076124
C6    C     C_R   0.451623 0.358356 0.974746 -0.076112
C7    C     C_R   0.458925 0.358468 0.025743 0.088441
C8    C     C_R   0.541169 0.641916 0.974252 0.088431
C9    C     C_R   0.499937 0.501292 0.050756 0.008084
C10   C     C_R   0.500165 0.499092 0.949240 0.008089
C11   C     C_R   0.609363 0.775589 0.052016 0.575229
C12   C     C_R   0.454069 0.205149 0.501263 0.975956
C13   C     C_R   0.390775 0.224785 0.947977 0.575230
C14   C     C_R   0.597185 0.776246 0.102132 -0.199957
C15   C     C_R   0.402973 0.224128 0.897861 -0.199953
C16   C     C_R   0.502165 0.499736 0.593927 0.874178
C17   C     C_R   0.497838 0.500282 0.406074 0.874164
C18   C     C_R   0.564448 0.781457 0.947276 -0.082280
C19   C     C_R   0.435617 0.218933 0.052722 -0.082318
C20   C     C_2   0.570197 0.958347 0.498003 -0.371417
C21   C     C_2   0.429803 0.041653 0.501997 -0.371419
C22   C     C_R   0.550957 0.633172 0.821691 0.517666
C23   C     C_R   0.503054 0.498195 0.898044 -0.056960
C24   C     C_R   0.449067 0.367230 0.178307 0.517652
C25   C     C_R   0.469158 0.359489 0.822013 0.548569
C26   C     C_R   0.530985 0.640897 0.177982 0.548515
C27   C     C_R   0.668103 0.494623 0.717834 -0.093310
C28   C     C_R   0.331844 0.504610 0.282164 -0.093114
C29   C     C_R   0.665287 0.495755 0.667767 -0.209828
C30   C     C_R   0.334630 0.503357 0.332230 -0.209834
C31   C     C_R   0.350748 0.499051 0.675834 -0.202926
C32   C     C_R   0.649411 0.502248 0.324174 -0.203002
C33   C     C_R   0.354039 0.497370 0.725767 -0.095779
C34   C     C_R   0.497043 0.502193 0.101952 -0.056961
C35   C     C_R   0.646143 0.504057 0.274241 -0.095699
C36   C     C_R   0.512447 0.495252 0.746679 0.314599
C37   C     C_R   0.487628 0.505137 0.253322 0.314376
C38   C     C_R   0.544830 0.637433 0.872214 -0.004759
C39   C     C_R   0.455218 0.362965 0.127783 -0.004729
C40   C     C_R   0.571452 0.778569 0.897239 -0.152171
C41   C     C_R   0.428580 0.221830 0.102760 -0.152186
C42   C     C_R   0.461020 0.358760 0.872556 -0.114098
F1    F     F_    0.696689 0.902186 0.031133 -0.682352
F2    F     F_    0.303454 0.098181 0.968856 -0.682373
H1    H     H_    0.226563 0.500686 0.660319 0.161683
H2    H     H_    0.786952 0.495294 0.645857 0.159133
H3    H     H_    0.209255 0.505216 0.265738 0.136501
H4    H     H_    0.790604 0.493192 0.734257 0.136413
H5    H     H_    0.641261 0.881759 0.121047 0.217848
H6    H     H_    0.358916 0.118612 0.878944 0.217834
H7    H     H_    0.570358 0.896385 0.963582 0.232751
H8    H     H_    0.429700 0.104002 0.036419 0.232743
H9    H     H_    0.702717 0.009589 0.494188 0.180771
H10   H     H_    0.297282 0.990411 0.505812 0.180772
H11   H     H_    0.773680 0.501446 0.339695 0.161641
H12   H     H_    0.014197 0.382922 0.463384 0.191305
H13   H     H_    0.985803 0.617078 0.536616 0.191327
H14   H     H_    0.233819 0.498261 0.748324 0.138274
H15   H     H_    0.766466 0.504040 0.251690 0.138379
H16   H     H_    0.593649 0.888510 0.878287 0.197304
H17   H     H_    0.406357 0.111892 0.121712 0.197323
H18   H     H_    0.212857 0.502879 0.354138 0.158987
N1    N     N_R   0.514387 0.495303 0.797913 -0.362071
N2    N     N_R   0.485699 0.505092 0.202086 -0.362024
N3    N     N_2   0.950320 0.457960 0.486880 -0.175608
N4    N     N_2   0.049680 0.542040 0.513120 -0.175609
O1    O     O_R   0.389250 0.738570 0.503220 -0.611188
O2    O     O_2   0.408887 0.234756 0.203550 -0.529036
O3    O     O_2   0.568781 0.774262 0.202949 -0.529532
O4    O     O_2   0.431397 0.226125 0.797043 -0.529455
O5    O     O_R   0.610750 0.261430 0.496780 -0.611186
O6    O     O_R   0.678390 0.711630 0.494810 -0.629151
O7    O     O_R   0.321610 0.288370 0.505190 -0.629144
O8    O     O_R   0.355440 0.513440 0.575450 -0.621651
O9    O     O_R   0.644560 0.486560 0.424550 -0.621630
O10   O     O_R   0.644590 0.486500 0.567040 -0.629943
O11   O     O_R   0.355410 0.513500 0.432960 -0.629919
O12   O     O_2   0.591078 0.765648 0.796447 -0.528976
Zn1   Zn    Zn3+2 0.306940 0.517990 0.505620 0.950619
Zn2   Zn    Zn3+2 0.693060 0.482010 0.494380 0.950615

loop_
_geom_bond_atom_site_label_1
_geom_bond_atom_site_label_2
_ccdc_geom_bond_type
C27   H4    S    
C28   H3    S    
C33   H14   S    
C40   H16   S    
C27   C29   A    
C41   H17   S    
H13   N4    S    
C33   C36   A    
C39   C41   A    
N4    Zn1   S    
C23   C42   A    
C16   O8    A    
C35   C37   A    
C5    C11   A    
C30   H18   S    
C21   H10   S    
C11   C14   A    
C14   H5    S    
H12   N3    S    
C22   C38   A    
C24   C39   A    
C35   H15   S    
C25   N1    A    
C15   H6    S    
C3    C29   A    
C26   N2    A    
C18   C40   A    
C22   N1    A    
C19   H8    S    
C31   C33   A    
C11   F1    S    
C36   N1    S    
O9    Zn2   S    
C32   H11   S    
C2    C34   A    
C24   N2    A    
N3    Zn2   S    
C12   O7    A    
O5    Zn2   S    
C18   H7    S    
O11   Zn1   S    
C1    O6    A    
C34   C39   A    
C32   C35   A    
O1    Zn1   S    
C22   O12   S    
C12   C21   S    
C8    C18   A    
C5    C9    A    
C17   O11   A    
O7    Zn1   S    
C2    C26   A    
C3    C31   A    
C4    C32   A    
C4    C17   S    
C12   O5    A    
C7    C19   A    
O8    Zn1   S    
C13   C15   A    
C9    C34   A    
C10   C23   A    
C37   N2    S    
C7    C9    A    
C1    C20   S    
C16   O10   A    
O10   Zn2   S    
C15   C42   A    
C20   H9    S    
C25   C42   A    
C6    C10   A    
C5    C8    A    
C6    C7    A    
C27   C36   A    
C23   C38   A    
C29   H2    S    
C28   C30   A    
O6    Zn2   S    
C6    C13   A    
C38   C40   A    
C28   C37   A    
C1    O1    A    
C2    C14   A    
C24   O2    S    
C20   C21   D    
C8    C10   A    
N3    N4    D    
C31   H1    S    
C17   O9    A    
C26   O3    S    
C25   O4    S    
C13   F2    S    
C4    C30   A    
C3    C16   S    
C19   C41   A    
