data_mof_unit_20409.cif
_audit_creation_date              2012-12-11T15:06:47-0500
_audit_creation_method            fapswitch 2.2
_symmetry_space_group_name_H-M    P1
_symmetry_Int_Tables_number       1
_space_group_crystal_system       triclinic
_cell_length_a                    19.841508
_cell_length_b                    11.471751
_cell_length_c                    18.680785
_cell_angle_alpha                 90.063173
_cell_angle_beta                  90.780716
_cell_angle_gamma                 89.991419
_cell_volume                      4251.66388007

loop_
_atom_site_label
_atom_site_type_symbol
_atom_type_description
_atom_site_fract_x
_atom_site_fract_y
_atom_site_fract_z
_atom_type_partial_charge
C1    C     C_R   0.760365 0.529515 0.642086 0.536008
C2    C     C_R   0.239642 0.529605 0.357906 0.536939
C3    C     C_R   0.260365 0.029515 0.642086 0.536008
C4    C     C_R   0.739642 0.029605 0.357906 0.536939
C5    C     C_3   0.808939 0.147219 0.445566 -0.270499
C6    C     C_3   0.191044 0.147212 0.554609 -0.270401
C7    C     C_3   0.308939 0.647218 0.445566 -0.270499
C8    C     C_3   0.691044 0.647212 0.554609 -0.270401
C9    C     C_3   0.746226 0.071796 0.432360 0.073011
C10   C     C_3   0.253756 0.071740 0.567671 0.073255
C11   C     C_3   0.246226 0.571796 0.432360 0.073011
C12   C     C_3   0.753756 0.571740 0.567671 0.073255
C13   C     C_3   0.762202 0.105194 0.570429 0.054354
C14   C     C_3   0.237741 0.105317 0.429629 0.054076
C15   C     C_3   0.262202 0.605194 0.570429 0.054354
C16   C     C_3   0.737741 0.605317 0.429629 0.054076
C17   C     C_3   0.750854 0.977414 0.556745 -0.278801
C18   C     C_3   0.249047 0.977501 0.443102 -0.278409
C19   C     C_3   0.250854 0.477414 0.556745 -0.278801
C20   C     C_3   0.749047 0.477501 0.443102 -0.278409
C21   C     C_3   0.825206 0.142166 0.526734 -0.231775
C22   C     C_3   0.174750 0.142260 0.473429 -0.231954
C23   C     C_3   0.325206 0.642165 0.526734 -0.231775
C24   C     C_3   0.674750 0.642260 0.473429 -0.231954
C25   C     C_3   0.005107 0.203920 0.458825 -0.254308
C26   C     C_3   0.994910 0.203874 0.540941 -0.254532
C27   C     C_3   0.505107 0.703920 0.458825 -0.254308
C28   C     C_3   0.494910 0.703874 0.540941 -0.254532
C29   C     C_3   0.063326 0.403433 0.476640 -0.212984
C30   C     C_3   0.936627 0.403341 0.523404 -0.212823
C31   C     C_3   0.563326 0.903433 0.476640 -0.212985
C32   C     C_3   0.436627 0.903341 0.523404 -0.212823
C33   C     C_3   0.940671 0.382588 0.441699 -0.136815
C34   C     C_3   0.059299 0.382574 0.558299 -0.136631
C35   C     C_3   0.440671 0.882588 0.441699 -0.136816
C36   C     C_3   0.559299 0.882574 0.558299 -0.136631
C37   C     C_3   0.010872 0.331217 0.430679 0.074313
C38   C     C_3   0.989112 0.331128 0.569274 0.074384
C39   C     C_3   0.510872 0.831217 0.430679 0.074313
C40   C     C_3   0.489112 0.831128 0.569274 0.074384
C41   C     C_3   0.811907 0.009799 0.044177 -0.225023
C42   C     C_3   0.180891 0.031148 0.951298 -0.230320
C43   C     C_3   0.311907 0.509799 0.044177 -0.225023
C44   C     C_3   0.680891 0.531148 0.951298 -0.230320
C45   C     C_R   0.776237 0.128107 0.647066 0.542714
C46   C     C_R   0.223712 0.128280 0.352990 0.543101
C47   C     C_R   0.276237 0.628107 0.647066 0.542715
C48   C     C_R   0.723712 0.628280 0.352990 0.543101
C49   C     C_3   0.815250 0.017972 0.963985 -0.234036
C50   C     C_3   0.177748 0.038825 0.031582 -0.226827
C51   C     C_3   0.315250 0.517972 0.963985 -0.234036
C52   C     C_3   0.677748 0.538825 0.031582 -0.226827
C53   C     C_3   0.682579 0.033237 0.029279 -0.212312
C54   C     C_3   0.306661 0.011727 0.970038 -0.219058
C55   C     C_3   0.182579 0.533237 0.029279 -0.212312
C56   C     C_3   0.806661 0.511726 0.970038 -0.219058
C57   C     C_3   0.754997 0.197865 0.062344 -0.259616
C58   C     C_3   0.256126 0.202283 0.938929 -0.254011
C59   C     C_3   0.254997 0.697865 0.062344 -0.259616
C60   C     C_3   0.756126 0.702283 0.938929 -0.254011
C61   C     C_3   0.746678 0.067469 0.073905 0.064207
C62   C     C_3   0.251088 0.071890 0.924627 0.061461
C63   C     C_3   0.246678 0.567469 0.073905 0.064207
C64   C     C_3   0.751088 0.571890 0.924627 0.061461
C65   C     C_3   0.760195 0.102485 0.935149 0.061313
C66   C     C_3   0.239041 0.106324 0.063785 0.063336
C67   C     C_3   0.260195 0.602485 0.935149 0.061313
C68   C     C_3   0.739041 0.606324 0.063785 0.063336
C69   C     C_3   0.692236 0.044545 0.947381 -0.252901
C70   C     C_3   0.299927 0.027921 0.052106 -0.259824
C71   C     C_3   0.192236 0.544545 0.947381 -0.252901
C72   C     C_3   0.799927 0.527921 0.052106 -0.259824
C73   C     C_3   0.761690 0.216109 0.980528 -0.225599
C74   C     C_3   0.254324 0.220607 0.021176 -0.214472
C75   C     C_3   0.261690 0.716109 0.980528 -0.225599
C76   C     C_3   0.754324 0.720607 0.021176 -0.214472
C77   C     C_3   0.008704 0.477904 0.038625 -0.226629
C78   C     C_3   0.004705 0.477904 0.957677 -0.233525
C79   C     C_3   0.508704 0.977904 0.038625 -0.226629
C80   C     C_3   0.504705 0.977904 0.957677 -0.233525
C81   C     C_3   0.061968 0.271853 0.027373 -0.209569
C82   C     C_3   0.932732 0.297400 0.972170 -0.218439
C83   C     C_3   0.561968 0.771853 0.027373 -0.209569
C84   C     C_3   0.432732 0.797400 0.972170 -0.218439
C85   C     C_3   0.942270 0.299624 0.054437 -0.265378
C86   C     C_3   0.053995 0.280287 0.945291 -0.258374
C87   C     C_3   0.442270 0.799624 0.054437 -0.265378
C88   C     C_3   0.553995 0.780287 0.945291 -0.258374
C89   C     C_R   0.966592 0.341813 0.644285 0.544091
C90   C     C_R   0.033410 0.341878 0.355703 0.544683
C91   C     C_R   0.466592 0.841813 0.644285 0.544091
C92   C     C_R   0.533410 0.841878 0.355703 0.544683
C93   C     C_3   0.011709 0.351426 0.068853 0.067227
C94   C     C_3   0.991183 0.352253 0.929715 0.064638
C95   C     C_3   0.511709 0.851426 0.068853 0.067227
C96   C     C_3   0.491183 0.852253 0.929715 0.064638
C97   C     C_R   0.760163 0.534950 0.848058 0.530892
C98   C     C_R   0.238714 0.531704 0.150604 0.534944
C99   C     C_R   0.260163 0.034950 0.848058 0.530892
C100  C     C_R   0.738714 0.031704 0.150604 0.534944
C101  C     C_R   0.774350 0.132395 0.858367 0.531627
C102  C     C_R   0.225187 0.133941 0.140996 0.532135
C103  C     C_R   0.274350 0.632395 0.858367 0.531627
C104  C     C_R   0.725187 0.633941 0.140996 0.532135
C105  C     C_R   0.969409 0.353388 0.853047 0.529065
C106  C     C_R   0.032267 0.353361 0.145839 0.531834
C107  C     C_R   0.469409 0.853388 0.853047 0.529065
C108  C     C_R   0.532267 0.853361 0.145839 0.531834
C109  C     C_3   0.682733 0.135954 0.463228 -0.110568
C110  C     C_3   0.317241 0.135905 0.536882 -0.110418
C111  C     C_3   0.182733 0.635954 0.463228 -0.110568
C112  C     C_3   0.817241 0.635904 0.536882 -0.110418
C113  C     C_3   0.701247 0.174431 0.540144 -0.228492
C114  C     C_3   0.298698 0.174448 0.460033 -0.228886
C115  C     C_3   0.201247 0.674432 0.540144 -0.228492
C116  C     C_3   0.798697 0.674448 0.460033 -0.228886
C117  C     C_3   0.755466 0.958651 0.476223 -0.233913
C118  C     C_3   0.244501 0.958655 0.523605 -0.234011
C119  C     C_3   0.255466 0.458651 0.476223 -0.233913
C120  C     C_3   0.744501 0.458655 0.523605 -0.234011
Cr1   Cr    Cr6+3 0.885690 0.492860 0.745310 0.952624
Cr2   Cr    Cr6+3 0.114310 0.492860 0.254690 0.952888
Cr3   Cr    Cr6+3 0.385690 0.992860 0.745310 0.952624
Cr4   Cr    Cr6+3 0.614310 0.992860 0.254690 0.952889
Cr5   Cr    Cr6+3 0.729880 0.332270 0.748190 0.969697
Cr6   Cr    Cr6+3 0.270120 0.332270 0.251810 0.969834
Cr7   Cr    Cr6+3 0.229880 0.832270 0.748190 0.969697
Cr8   Cr    Cr6+3 0.770120 0.832270 0.251810 0.969834
Cr9   Cr    Cr6+3 0.888120 0.178590 0.753010 0.980306
Cr10  Cr    Cr6+3 0.111880 0.178590 0.246990 0.980827
Cr11  Cr    Cr6+3 0.388120 0.678590 0.753010 0.980306
Cr12  Cr    Cr6+3 0.611880 0.678590 0.246990 0.980827
H1    H     H_    0.644479 0.070642 0.467590 0.146716
H2    H     H_    0.355490 0.070588 0.532436 0.146726
H3    H     H_    0.144479 0.570643 0.467590 0.146716
H4    H     H_    0.855490 0.570588 0.532436 0.146726
H5    H     H_    0.863436 0.072832 0.534610 0.127263
H6    H     H_    0.136509 0.072962 0.465471 0.127243
H7    H     H_    0.363436 0.572831 0.534611 0.127263
H8    H     H_    0.636509 0.572961 0.465470 0.127244
H9    H     H_    0.807302 0.927706 0.464816 0.133802
H10   H     H_    0.192683 0.927774 0.535028 0.133668
H11   H     H_    0.307302 0.427706 0.464816 0.133801
H12   H     H_    0.692683 0.427774 0.535028 0.133668
H13   H     H_    0.789008 0.930013 0.587160 0.121290
H14   H     H_    0.210826 0.930176 0.412654 0.121572
H15   H     H_    0.289008 0.430012 0.587160 0.121290
H16   H     H_    0.710827 0.430175 0.412654 0.121572
H17   H     H_    0.048011 0.151968 0.443573 0.131646
H18   H     H_    0.952011 0.151919 0.556089 0.131456
H19   H     H_    0.548011 0.651968 0.443573 0.131646
H20   H     H_    0.452011 0.651919 0.556089 0.131456
H21   H     H_    0.962562 0.157634 0.432293 0.103649
H22   H     H_    0.037466 0.157583 0.567400 0.103540
H23   H     H_    0.462562 0.657633 0.432293 0.103649
H24   H     H_    0.537466 0.657583 0.567400 0.103540
H25   H     H_    0.614061 0.889884 0.457718 0.092026
H26   H     H_    0.385899 0.889742 0.542299 0.092160
H27   H     H_    0.114061 0.389884 0.457718 0.092026
H28   H     H_    0.885899 0.389742 0.542299 0.092160
H29   H     H_    0.598628 0.818628 0.573552 0.123021
H30   H     H_    0.401364 0.818638 0.426315 0.123039
H31   H     H_    0.098628 0.318628 0.573552 0.123021
H32   H     H_    0.901364 0.318639 0.426315 0.123039
H33   H     H_    0.949020 0.495807 0.533022 0.117735
H34   H     H_    0.050912 0.495908 0.467176 0.117476
H35   H     H_    0.449020 0.995807 0.533022 0.117735
H36   H     H_    0.550912 0.995908 0.467176 0.117477
H37   H     H_    0.817097 0.918594 0.059247 0.138328
H38   H     H_    0.168576 0.939730 0.937025 0.138279
H39   H     H_    0.317097 0.418595 0.059247 0.138329
H40   H     H_    0.668577 0.439730 0.937025 0.138279
H41   H     H_    0.857058 0.052948 0.068403 0.116006
H42   H     H_    0.140931 0.085145 0.926055 0.114773
H43   H     H_    0.357058 0.552948 0.068403 0.116006
H44   H     H_    0.640931 0.585145 0.926055 0.114773
H45   H     H_    0.867150 0.045285 0.950941 0.133098
H46   H     H_    0.129683 0.076721 0.045745 0.133645
H47   H     H_    0.367150 0.545285 0.950941 0.133098
H48   H     H_    0.629683 0.576721 0.045745 0.133645
H49   H     H_    0.808389 0.930792 0.939387 0.117250
H50   H     H_    0.176280 0.949224 0.054500 0.115610
H51   H     H_    0.308389 0.430792 0.939387 0.117250
H52   H     H_    0.676280 0.449224 0.054500 0.115610
H53   H     H_    0.663506 0.947453 0.043873 0.109398
H54   H     H_    0.298986 0.921720 0.957336 0.109081
H55   H     H_    0.163506 0.447453 0.043873 0.109398
H56   H     H_    0.798986 0.421719 0.957336 0.109081
H57   H     H_    0.690137 0.957629 0.921283 0.099627
H58   H     H_    0.293055 0.942607 0.079072 0.103952
H59   H     H_    0.190136 0.457629 0.921283 0.099627
H60   H     H_    0.793055 0.442607 0.079072 0.103952
H61   H     H_    0.711001 0.247067 0.082950 0.111493
H62   H     H_    0.304103 0.236100 0.916966 0.114129
H63   H     H_    0.211001 0.747067 0.082950 0.111493
H64   H     H_    0.804103 0.736100 0.916966 0.114129
H65   H     H_    0.800323 0.230631 0.091683 0.102239
H66   H     H_    0.213925 0.249441 0.912159 0.100723
H67   H     H_    0.300322 0.730631 0.091683 0.102239
H68   H     H_    0.713925 0.749441 0.912159 0.100723
H69   H     H_    0.811157 0.248922 0.972740 0.109301
H70   H     H_    0.220392 0.291686 0.035063 0.107631
H71   H     H_    0.311157 0.748922 0.972740 0.109301
H72   H     H_    0.720392 0.791686 0.035063 0.107631
H73   H     H_    0.722517 0.277317 0.961133 0.125463
H74   H     H_    0.305862 0.246607 0.037538 0.118983
H75   H     H_    0.222517 0.777317 0.961133 0.125463
H76   H     H_    0.805862 0.746607 0.037538 0.118983
H77   H     H_    0.643844 0.097929 0.043595 0.119499
H78   H     H_    0.356845 0.041664 0.953020 0.127735
H79   H     H_    0.143844 0.597929 0.043595 0.119499
H80   H     H_    0.856845 0.541664 0.953020 0.127735
H81   H     H_    0.720117 0.258690 0.536425 0.132024
H82   H     H_    0.341751 0.190161 0.424474 0.113273
H83   H     H_    0.220117 0.758690 0.536425 0.132024
H84   H     H_    0.841751 0.690162 0.424474 0.113273
H85   H     H_    0.651759 0.099539 0.923369 0.109774
H86   H     H_    0.346415 0.067950 0.075156 0.104537
H87   H     H_    0.151758 0.599539 0.923369 0.109774
H88   H     H_    0.846415 0.567950 0.075156 0.104537
H89   H     H_    0.050942 0.531306 0.056208 0.135900
H90   H     H_    0.965247 0.541157 0.941502 0.134734
H91   H     H_    0.550942 0.031306 0.056208 0.135900
H92   H     H_    0.465247 0.041157 0.941502 0.134734
H93   H     H_    0.963888 0.523806 0.060186 0.110661
H94   H     H_    0.052165 0.511226 0.935006 0.111791
H95   H     H_    0.463888 0.023805 0.060186 0.110661
H96   H     H_    0.552165 0.011226 0.935006 0.111791
H97   H     H_    0.614207 0.784820 0.044800 0.110725
H98   H     H_    0.391186 0.851855 0.957742 0.109613
H99   H     H_    0.114207 0.284820 0.044800 0.110725
H100  H     H_    0.891186 0.351855 0.957742 0.109613
H101  H     H_    0.599099 0.821091 0.921360 0.100121
H102  H     H_    0.402486 0.852657 0.080104 0.102600
H103  H     H_    0.099099 0.321091 0.921360 0.100121
H104  H     H_    0.902486 0.352657 0.080104 0.102600
H105  H     H_    0.938525 0.210004 0.076659 0.109523
H106  H     H_    0.047658 0.191979 0.921687 0.114460
H107  H     H_    0.438525 0.710004 0.076659 0.109523
H108  H     H_    0.547658 0.691979 0.921687 0.114460
H109  H     H_    0.923771 0.206735 0.954383 0.132889
H110  H     H_    0.048058 0.181653 0.041863 0.123951
H111  H     H_    0.423771 0.706735 0.954383 0.132889
H112  H     H_    0.548058 0.681653 0.041863 0.123950
H113  H     H_    0.658162 0.190061 0.575691 0.113236
H114  H     H_    0.279790 0.258644 0.464064 0.131883
H115  H     H_    0.158162 0.690061 0.575691 0.113236
H116  H     H_    0.779790 0.758644 0.464064 0.131883
H117  H     H_    0.716936 0.895554 0.459501 0.102742
H118  H     H_    0.283050 0.895527 0.540138 0.102604
H119  H     H_    0.216936 0.395554 0.459500 0.102742
H120  H     H_    0.783050 0.395527 0.540138 0.102604
H121  H     H_    0.703201 0.943622 0.576051 0.106863
H122  H     H_    0.296671 0.943659 0.423683 0.106847
H123  H     H_    0.203200 0.443622 0.576050 0.106864
H124  H     H_    0.796671 0.443659 0.423683 0.106847
H125  H     H_    0.852366 0.114259 0.414641 0.118134
H126  H     H_    0.147625 0.114250 0.585496 0.117996
H127  H     H_    0.352366 0.614259 0.414641 0.118134
H128  H     H_    0.647625 0.614250 0.585496 0.117996
H129  H     H_    0.798287 0.237837 0.428412 0.103763
H130  H     H_    0.201704 0.237802 0.571931 0.103586
H131  H     H_    0.298288 0.737836 0.428412 0.103763
H132  H     H_    0.701704 0.737801 0.571931 0.103586
H133  H     H_    0.844927 0.225264 0.546209 0.112887
H134  H     H_    0.155024 0.225382 0.454125 0.112676
H135  H     H_    0.344927 0.725264 0.546209 0.112887
H136  H     H_    0.655024 0.725382 0.454125 0.112676
O1    O     O_R   0.957210 0.449410 0.665480 -0.556841
O2    O     O_R   0.042790 0.449410 0.334520 -0.556572
O3    O     O_R   0.457210 0.949410 0.665480 -0.556841
O4    O     O_R   0.542790 0.949410 0.334520 -0.556572
O5    O     O_R   0.736260 0.212010 0.826560 -0.516068
O6    O     O_R   0.263740 0.212010 0.173440 -0.516801
O7    O     O_R   0.236260 0.712010 0.826560 -0.516068
O8    O     O_R   0.763740 0.712010 0.173440 -0.516801
O9    O     O_R   0.832520 0.095300 0.836000 -0.534591
O10   O     O_R   0.167480 0.095300 0.164000 -0.534219
O11   O     O_R   0.332520 0.595300 0.836000 -0.534591
O12   O     O_R   0.667480 0.595300 0.164000 -0.534219
O13   O     O_R   0.946380 0.253940 0.826940 -0.513103
O14   O     O_R   0.053620 0.253940 0.173060 -0.513073
O15   O     O_R   0.446380 0.753940 0.826940 -0.513103
O16   O     O_R   0.553620 0.753940 0.173060 -0.513074
O17   O     O_3   0.834560 0.334570 0.748840 -0.270979
O18   O     O_3   0.165440 0.334570 0.251160 -0.273401
O19   O     O_3   0.334560 0.834570 0.748840 -0.270979
O20   O     O_3   0.665440 0.834570 0.251160 -0.273401
O21   O     O_R   0.820730 0.541240 0.668250 -0.523495
O22   O     O_R   0.179270 0.541240 0.331750 -0.523029
O23   O     O_R   0.320730 0.041240 0.668250 -0.523495
O24   O     O_R   0.679270 0.041240 0.331750 -0.523029
O25   O     O_R   0.714240 0.455060 0.663710 -0.535579
O26   O     O_R   0.285760 0.455060 0.336290 -0.535068
O27   O     O_R   0.214240 0.955060 0.663710 -0.535579
O28   O     O_R   0.785760 0.955060 0.336290 -0.535068
O29   O     O_R   0.736780 0.204870 0.675910 -0.522400
O30   O     O_R   0.263220 0.204870 0.324090 -0.522100
O31   O     O_R   0.236780 0.704870 0.675910 -0.522399
O32   O     O_R   0.763220 0.704870 0.324090 -0.522100
O33   O     O_R   0.833070 0.087590 0.673490 -0.533079
O34   O     O_R   0.166930 0.087590 0.326510 -0.532826
O35   O     O_R   0.333070 0.587590 0.673490 -0.533079
O36   O     O_R   0.666930 0.587590 0.326510 -0.532826
O37   O     O_R   0.946890 0.246800 0.676300 -0.519336
O38   O     O_R   0.053110 0.246800 0.323700 -0.518947
O39   O     O_R   0.446890 0.746800 0.676300 -0.519336
O40   O     O_R   0.553110 0.746800 0.323700 -0.518947
O41   O     O_R   0.956650 0.457120 0.827980 -0.543514
O42   O     O_R   0.043350 0.457120 0.172020 -0.544103
O43   O     O_R   0.456650 0.957120 0.827980 -0.543513
O44   O     O_R   0.543350 0.957120 0.172020 -0.544103
O45   O     O_R   0.820220 0.548390 0.818890 -0.512019
O46   O     O_R   0.179780 0.548390 0.181110 -0.512531
O47   O     O_R   0.320220 0.048390 0.818890 -0.512019
O48   O     O_R   0.679780 0.048390 0.181110 -0.512531
O49   O     O_R   0.713680 0.462770 0.826210 -0.535276
O50   O     O_R   0.286320 0.462770 0.173790 -0.535707
O51   O     O_R   0.213680 0.962770 0.826210 -0.535276
O52   O     O_R   0.786320 0.962770 0.173790 -0.535707
C121  C     C_3   0.924890 0.493191 0.397103 -0.263699
C122  C     C_3   0.898093 0.470807 0.319764 -0.269546
C123  C     C_3   0.908791 0.576874 0.271844 -0.400000
H137  H     H_    0.886295 0.655809 0.296093 0.160881
H138  H     H_    0.963365 0.592811 0.264150 0.174741
H139  H     H_    0.884777 0.561470 0.218616 0.137083
H140  H     H_    0.922234 0.394256 0.294634 0.176524
H141  H     H_    0.843488 0.450856 0.319820 0.134253
H142  H     H_    0.886158 0.535430 0.425053 0.124280
H143  H     H_    0.965890 0.558166 0.399064 0.163265
C124  C     C_3   0.075092 0.493157 0.603045 -0.263279
C125  C     C_3   0.101972 0.470699 0.680310 -0.269653
C126  C     C_3   0.091297 0.576699 0.728439 -0.400732
H144  H     H_    0.113815 0.655646 0.704346 0.161094
H145  H     H_    0.036727 0.592679 0.736165 0.174602
H146  H     H_    0.115305 0.561172 0.781636 0.135852
H147  H     H_    0.077859 0.394119 0.705324 0.175632
H148  H     H_    0.156583 0.450756 0.680138 0.133979
H149  H     H_    0.113771 0.535439 0.575097 0.124080
H150  H     H_    0.034086 0.558140 0.601226 0.163379
C127  C     C_3   0.424889 0.993190 0.397103 -0.263699
C128  C     C_3   0.398093 0.970806 0.319764 -0.269546
C129  C     C_3   0.408791 0.076872 0.271843 -0.400000
H151  H     H_    0.386294 0.155808 0.296092 0.160882
H152  H     H_    0.463364 0.092810 0.264150 0.174741
H153  H     H_    0.384777 0.061468 0.218615 0.137083
H154  H     H_    0.422234 0.894255 0.294634 0.176524
H155  H     H_    0.343488 0.950855 0.319819 0.134253
H156  H     H_    0.386158 0.035429 0.425053 0.124281
H157  H     H_    0.465890 0.058166 0.399064 0.163265
C130  C     C_3   0.575092 0.993156 0.603046 -0.263280
C131  C     C_3   0.601972 0.970698 0.680310 -0.269654
C132  C     C_3   0.591298 0.076697 0.728439 -0.400733
H158  H     H_    0.613817 0.155644 0.704347 0.161095
H159  H     H_    0.536727 0.092679 0.736164 0.174602
H160  H     H_    0.615303 0.061169 0.781636 0.135851
H161  H     H_    0.577859 0.894118 0.705324 0.175632
H162  H     H_    0.656583 0.950755 0.680139 0.133979
H163  H     H_    0.613771 0.035437 0.575097 0.124080
H164  H     H_    0.534087 0.058140 0.601226 0.163378
C133  C     C_3   0.650326 0.237116 0.419164 -0.265047
C134  C     C_3   0.577284 0.216704 0.394294 -0.314895
C135  C     C_3   0.547479 0.325621 0.359045 -0.453800
H165  H     H_    0.546741 0.399362 0.397661 0.152014
H166  H     H_    0.577555 0.350823 0.311781 0.164019
H167  H     H_    0.494920 0.307529 0.341077 0.126734
H168  H     H_    0.574986 0.145790 0.354721 0.227432
H169  H     H_    0.546002 0.194299 0.441194 0.128774
H170  H     H_    0.644856 0.312782 0.454863 0.137030
H171  H     H_    0.681820 0.258461 0.372263 0.160043
C136  C     C_3   0.349666 0.237092 0.581056 -0.264978
C137  C     C_3   0.422670 0.216606 0.606015 -0.314848
C138  C     C_3   0.452459 0.325519 0.641414 -0.453842
H172  H     H_    0.453260 0.399226 0.602875 0.152190
H173  H     H_    0.422333 0.350799 0.688663 0.163722
H174  H     H_    0.504993 0.307381 0.659434 0.126580
H175  H     H_    0.424911 0.145737 0.645522 0.227563
H176  H     H_    0.454005 0.194126 0.559137 0.128700
H177  H     H_    0.355247 0.312671 0.545381 0.137033
H178  H     H_    0.318121 0.258632 0.627918 0.159778
C139  C     C_3   0.150326 0.737116 0.419164 -0.265046
C140  C     C_3   0.077284 0.716704 0.394294 -0.314895
C141  C     C_3   0.047480 0.825620 0.359044 -0.453799
H179  H     H_    0.046744 0.899364 0.397659 0.152015
H180  H     H_    0.077555 0.850819 0.311779 0.164018
H181  H     H_    0.994920 0.807530 0.341077 0.126734
H182  H     H_    0.074986 0.645790 0.354721 0.227433
H183  H     H_    0.046002 0.694301 0.441194 0.128774
H184  H     H_    0.144855 0.812782 0.454863 0.137030
H185  H     H_    0.181820 0.758461 0.372263 0.160044
C142  C     C_3   0.849666 0.737093 0.581056 -0.264978
C143  C     C_3   0.922670 0.716606 0.606015 -0.314848
C144  C     C_3   0.952459 0.825519 0.641414 -0.453842
H186  H     H_    0.953260 0.899226 0.602875 0.152190
H187  H     H_    0.922333 0.850799 0.688663 0.163722
H188  H     H_    0.004993 0.807381 0.659435 0.126580
H189  H     H_    0.924911 0.645737 0.645523 0.227564
H190  H     H_    0.954005 0.694126 0.559137 0.128700
H191  H     H_    0.855247 0.812671 0.545381 0.137033
H192  H     H_    0.818121 0.758632 0.627918 0.159778

loop_
_geom_bond_atom_site_label_1
_geom_bond_atom_site_label_2
_ccdc_geom_bond_type
C139  H185  S    
C78   H94   S    
C82   C94   S    
C119  H11   S    
C10   C110  S    
C7    H127  S    
C120  H12   S    
C41   C61   S    
C116  H84   S    
C53   C69   S    
C104  O12   A    
C43   C63   S    
C134  H169  S    
C126  H144  S    
C44   C64   S    
C70   H86   S    
C50   H46   S    
C63   C98   S    
C51   H51   S    
C128  H154  S    
C28   C40   S    
C141  H180  S    
C121  H142  S    
C137  C138  S    
C30   C38   S    
C42   H38   S    
Cr9   O37   S    
C56   C72   S    
C105  O13   A    
C21   H5    S    
C8    H132  S    
C84   H98   S    
C18   C118  S    
C54   H54   S    
C81   C86   S    
C108  O16   A    
C83   C88   S    
C48   O36   A    
C5    H129  S    
C90   O2    A    
C72   H88   S    
C41   C49   S    
C132  H159  S    
Cr8   O32   S    
C49   H45   S    
Cr5   O17   S    
Cr2   O46   S    
C109  H1    S    
C123  H137  S    
Cr7   O19   S    
C133  H171  S    
C136  H177  S    
Cr8   O20   S    
C118  H118  S    
C138  H174  S    
C128  C129  S    
C26   C38   S    
Cr5   O5    S    
Cr10  O38   S    
C59   H63   S    
C14   C114  S    
C41   H37   S    
C83   H112  S    
C60   C76   S    
C24   H8    S    
C120  H120  S    
C81   H110  S    
C44   H40   S    
C22   H134  S    
C54   C70   S    
C68   C72   S    
C131  C132  S    
C97   O49   A    
C115  H83   S    
C98   O46   A    
C102  O6    A    
C99   O51   A    
C31   H25   S    
C19   H123  S    
C64   C97   S    
C36   H29   S    
C15   C115  S    
C69   H57   S    
C141  H179  S    
C20   C120  S    
C70   H58   S    
Cr7   O27   S    
C126  H146  S    
C133  H170  S    
Cr8   O28   S    
C43   H39   S    
C57   H65   S    
C52   H52   S    
Cr7   O7    S    
Cr4   O24   S    
C57   C61   S    
C82   C85   S    
C144  H186  S    
C59   C63   S    
C60   C64   S    
Cr9   O17   S    
C33   C121  S    
C13   C45   S    
C124  H149  S    
C66   C70   S    
C78   C94   S    
C113  H113  S    
C23   H135  S    
C86   H106  S    
C95   C108  S    
C60   H68   S    
C62   C99   S    
C5    C21   S    
C121  C122  S    
C81   H99   S    
C57   H61   S    
C31   C36   S    
C106  O14   A    
C48   O32   A    
C55   C71   S    
C76   H76   S    
Cr6   O26   S    
C6    C22   S    
C131  H162  S    
C114  H82   S    
C130  C131  S    
Cr2   O22   S    
C65   C101  S    
Cr10  O18   S    
C43   C51   S    
Cr11  O15   S    
C67   C103  S    
C18   H122  S    
C88   H101  S    
C37   C90   S    
Cr11  O35   S    
C134  C135  S    
C66   C74   S    
C25   H17   S    
C57   C73   S    
C105  O41   A    
C85   C93   S    
C122  H141  S    
C107  O43   A    
C87   C95   S    
Cr5   O49   S    
C56   C64   S    
C7    H131  S    
C2    O22   A    
C45   O33   A    
C104  O8    A    
C85   H105  S    
C44   C52   S    
Cr6   O6    S    
C50   H50   S    
C1    C12   S    
C75   H75   S    
C112  H4    S    
Cr6   O18   S    
C51   H47   S    
C2    C11   S    
C7    C11   S    
Cr12  O12   S    
C144  H188  S    
C87   H107  S    
C137  H175  S    
C125  C126  S    
C42   H42   S    
C75   H71   S    
C15   C47   S    
C25   C26   S    
C123  H138  S    
C8    H128  S    
C5    C9    S    
C143  H189  S    
C119  H119  S    
C93   C106  S    
C127  H157  S    
C8    C12   S    
C5    H125  S    
C6    H130  S    
C51   C67   S    
C78   H90   S    
C49   H49   S    
C42   C50   S    
C129  H152  S    
Cr3   O47   S    
C135  H167  S    
C110  H2    S    
C61   C100  S    
C67   C75   S    
Cr1   O1    S    
C112  C116  S    
C130  H164  S    
C58   C74   S    
C139  H184  S    
C41   H41   S    
Cr4   O4    S    
C44   H44   S    
C30   H33   S    
C125  H147  S    
C111  C139  S    
C79   H91   S    
C68   C76   S    
C13   C17   S    
C34   C124  S    
C98   O50   A    
C14   C22   S    
C99   O47   A    
C52   H48   S    
C141  H181  S    
C103  O7    A    
C128  H155  S    
C13   C21   S    
C27   C39   S    
C140  H182  S    
C7    C23   S    
C8    C24   S    
C40   C91   S    
Cr7   O31   S    
C32   H26   S    
C54   H78   S    
Cr1   O41   S    
Cr3   O43   S    
C71   H59   S    
C4    C9    S    
C72   H60   S    
C24   H136  S    
C91   O39   A    
C58   C62   S    
C88   C96   S    
C94   C105  S    
C77   H93   S    
C140  C141  S    
C12   C112  S    
C132  H158  S    
C14   C46   S    
C77   C78   S    
C15   C19   S    
Cr9   O33   S    
C69   H85   S    
C101  O9    A    
C138  H173  S    
C92   O4    A    
C108  O44   A    
C112  C142  S    
Cr3   O3    S    
C136  C137  S    
C88   H108  S    
C71   H87   S    
C2    O26   A    
Cr11  O39   S    
C21   H133  S    
Cr7   O51   S    
C116  H116  S    
Cr8   O52   S    
C135  H165  S    
C103  O11   A    
Cr3   O23   S    
Cr11  O11   S    
C17   C117  S    
C42   C62   S    
C142  H191  S    
C122  C123  S    
C19   C119  S    
Cr10  O34   S    
C27   H23   S    
Cr12  O40   S    
C16   C116  S    
C100  O48   A    
C20   H124  S    
C115  H115  S    
C134  H168  S    
C126  H145  S    
C9    C109  S    
C117  H9    S    
C25   H21   S    
C26   H18   S    
C117  H117  S    
C106  O42   A    
C74   H70   S    
C18   H14   S    
C127  C128  S    
C11   C111  S    
C29   C34   S    
C58   H62   S    
C33   C37   S    
C121  H143  S    
C82   H109  S    
C45   O29   A    
C47   O31   A    
C124  C125  S    
C4    O24   A    
C79   C95   S    
C89   O37   A    
C80   H92   S    
Cr5   O29   S    
C76   H72   S    
Cr1   O17   S    
C80   H96   S    
Cr3   O19   S    
Cr4   O20   S    
Cr12  O16   S    
C96   C107  S    
C39   C92   S    
C132  H160  S    
C27   H19   S    
C14   C18   S    
C107  O15   A    
C68   C104  S    
C143  C144  S    
C17   H13   S    
C6    C10   S    
C1    O25   A    
C54   C62   S    
C22   H6    S    
C6    H126  S    
C111  H3    S    
C114  H114  S    
C73   H69   S    
C65   C69   S    
C110  C136  S    
C77   C93   S    
Cr4   O44   S    
C84   H111  S    
C67   C71   S    
C19   H15   S    
Cr2   O2    S    
C3    O27   A    
C31   H36   S    
C53   H77   S    
Cr12  O36   S    
C32   H35   S    
C29   C37   S    
C92   O40   A    
C46   O30   A    
C29   H34   S    
C43   H43   S    
C129  H151  S    
C85   H104  S    
C9    C117  S    
C66   C102  S    
C35   C39   S    
C84   C87   S    
C3    O23   A    
C11   C119  S    
C16   C48   S    
C142  C143  S    
C29   H27   S    
Cr12  O20   S    
C113  H81   S    
C30   H28   S    
C144  H187  S    
C38   C89   S    
C17   H121  S    
C87   H102  S    
C49   C65   S    
C89   O1    A    
C23   H7    S    
C56   H80   S    
C91   O3    A    
C124  H150  S    
Cr1   O45   S    
Cr2   O42   S    
C65   C73   S    
C84   C96   S    
Cr4   O48   S    
C53   H53   S    
Cr8   O8    S    
C143  H190  S    
C86   C94   S    
C25   C37   S    
C12   C120  S    
C127  H156  S    
C56   H56   S    
C59   H67   S    
C109  C133  S    
Cr9   O9    S    
C55   H55   S    
C80   C96   S    
C52   C68   S    
C16   C20   S    
C15   C23   S    
C16   C24   S    
C131  H161  S    
C97   O45   A    
C35   C127  S    
C36   C130  S    
C101  O5    A    
C53   C61   S    
C102  O10   A    
C79   H95   S    
C130  H163  S    
C135  H166  S    
C35   H30   S    
C1    O21   A    
C32   C35   S    
C36   C40   S    
C33   H32   S    
C34   H31   S    
C125  H148  S    
Cr6   O50   S    
C73   H73   S    
C55   C63   S    
Cr10  O10   S    
C46   O34   A    
C10   C118  S    
C81   C93   S    
C122  H140  S    
C140  H183  S    
C83   C95   S    
C20   H16   S    
C82   H100  S    
Cr9   O13   S    
C50   C66   S    
C100  O52   A    
C77   H89   S    
C28   H20   S    
C26   H22   S    
C59   C75   S    
C60   H64   S    
C74   H74   S    
C110  C114  S    
C142  H192  S    
C136  H178  S    
C30   C33   S    
C34   C38   S    
C83   H97   S    
C47   O35   A    
C4    O28   A    
C118  H10   S    
Cr5   O25   S    
C90   O38   A    
Cr6   O30   S    
C109  C113  S    
C133  C134  S    
C86   H103  S    
C123  H139  S    
Cr1   O21   S    
Cr2   O18   S    
Cr10  O14   S    
C3    C10   S    
C138  H172  S    
Cr11  O19   S    
C139  C140  S    
C31   C39   S    
C32   C40   S    
C58   H66   S    
C55   H79   S    
C79   C80   S    
C129  H153  S    
C27   C28   S    
C28   H24   S    
C111  C115  S    
C137  H176  S    
C13   C113  S    
