data_mof_unit_32210.cif
_audit_creation_date              2012-12-11T15:35:04-0500
_audit_creation_method            fapswitch 2.2
_symmetry_space_group_name_H-M    P1
_symmetry_Int_Tables_number       1
_space_group_crystal_system       monoclinic
_cell_length_a                    30.475737
_cell_length_b                    7.254738
_cell_length_c                    25.958789
_cell_angle_alpha                 90.0
_cell_angle_beta                  112.179025
_cell_angle_gamma                 90.0
_cell_volume                      5314.66032342

loop_
_atom_site_label
_atom_site_type_symbol
_atom_type_description
_atom_site_fract_x
_atom_site_fract_y
_atom_site_fract_z
_atom_type_partial_charge
O1    O     O_R   0.295360 0.592990 0.320420 -0.526663
O2    O     O_R   0.704640 0.407010 0.679580 -0.526664
O3    O     O_R   0.204640 0.092990 0.179580 -0.526663
O4    O     O_R   0.795360 0.907010 0.820420 -0.526664
O5    O     O_R   0.294060 0.265620 0.213230 -0.540895
O6    O     O_R   0.705940 0.734380 0.786770 -0.540895
O7    O     O_R   0.205940 0.765620 0.286770 -0.540895
O8    O     O_R   0.794060 0.234380 0.713230 -0.540895
C1    C     C_R   0.304347 0.432229 0.199700 0.723178
C2    C     C_R   0.695652 0.567771 0.800300 0.723178
C3    C     C_R   0.195652 0.932229 0.300300 0.723178
C4    C     C_R   0.804347 0.067771 0.699700 0.723180
O9    O     O_R   0.300850 0.263360 0.322080 -0.536117
O10   O     O_R   0.699150 0.736640 0.677920 -0.536117
O11   O     O_R   0.199150 0.763360 0.177920 -0.536116
O12   O     O_R   0.800850 0.236640 0.822080 -0.536117
O13   O     O_R   0.211480 0.091820 0.289210 -0.536923
O14   O     O_R   0.788520 0.908180 0.710790 -0.536924
O15   O     O_R   0.288520 0.591820 0.210790 -0.536923
O16   O     O_R   0.711480 0.408180 0.789210 -0.536923
C5    C     C_R   0.313315 0.431936 0.343295 0.700166
C6    C     C_R   0.686685 0.568064 0.656705 0.700166
C7    C     C_R   0.186685 0.931935 0.156705 0.700165
C8    C     C_R   0.813315 0.068065 0.843295 0.700166
O17   O     O_3   0.220670 0.426670 0.239090 -0.372223
O18   O     O_3   0.779330 0.573330 0.760910 -0.372223
O19   O     O_3   0.279330 0.926670 0.260910 -0.372223
O20   O     O_3   0.720670 0.073330 0.739090 -0.372224
V1    V     V_3+5 0.255440 0.152290 0.252020 1.496033
V2    V     V_3+5 0.744560 0.847710 0.747980 1.496032
V3    V     V_3+5 0.244560 0.652290 0.247980 1.496033
V4    V     V_3+5 0.755440 0.347710 0.752020 1.496033
C9    C     C_R   0.849520 0.057966 0.900581 -0.102940
C10   C     C_R   0.150479 0.942034 0.099419 -0.102941
C11   C     C_R   0.650479 0.557965 0.599419 -0.102940
C12   C     C_R   0.349520 0.442035 0.400581 -0.102941
C13   C     C_R   0.870959 0.055533 0.000922 -0.070889
C14   C     C_R   0.129041 0.944467 0.999078 -0.070889
C15   C     C_R   0.629042 0.555531 0.499078 -0.070889
C16   C     C_R   0.370958 0.444469 0.500922 -0.070889
C17   C     C_R   0.835979 0.054578 0.946661 -0.091892
C18   C     C_R   0.164021 0.945422 0.053339 -0.091891
C19   C     C_R   0.664021 0.554576 0.553339 -0.091892
C20   C     C_R   0.335979 0.445424 0.446661 -0.091892
C21   C     C_R   0.897729 0.045402 0.909042 -0.133048
C22   C     C_R   0.102271 0.954598 0.090958 -0.133048
C23   C     C_R   0.602271 0.545402 0.590958 -0.133048
C24   C     C_R   0.397729 0.454597 0.409042 -0.133048
C25   C     C_R   0.933241 0.021450 0.962886 0.101693
C26   C     C_R   0.066758 0.978550 0.037114 0.101693
C27   C     C_R   0.566759 0.521450 0.537114 0.101693
C28   C     C_R   0.433241 0.478550 0.462886 0.101693
C29   C     C_R   0.919663 0.046945 0.008947 0.019128
C30   C     C_R   0.080337 0.953055 0.991053 0.019128
C31   C     C_R   0.580337 0.546943 0.491053 0.019128
C32   C     C_R   0.419663 0.453057 0.508947 0.019128
C33   C     C_R   0.982211 0.986261 0.972597 -0.031705
C34   C     C_R   0.017789 0.013739 0.027403 -0.031705
C35   C     C_R   0.517789 0.486262 0.527403 -0.031705
C36   C     C_R   0.482211 0.513738 0.472597 -0.031705
C37   C     C_R   0.002765 0.079249 0.069725 0.261155
C38   C     C_R   0.997235 0.920751 0.930275 0.261155
C39   C     C_R   0.497235 0.579247 0.430274 0.261155
C40   C     C_R   0.502764 0.420753 0.569725 0.261155
C41   C     C_R   0.954959 0.077901 0.061567 -0.161184
C42   C     C_R   0.045041 0.922099 0.938433 -0.161184
C43   C     C_R   0.545041 0.577898 0.438433 -0.161185
C44   C     C_R   0.454959 0.422101 0.561567 -0.161185
H1    H     H_    0.945439 0.119048 0.096082 0.184301
H2    H     H_    0.054560 0.880952 0.903918 0.184301
H3    H     H_    0.554561 0.619044 0.403918 0.184301
H4    H     H_    0.445439 0.380956 0.596082 0.184301
H5    H     H_    0.093003 0.936845 0.126822 0.160029
H6    H     H_    0.906997 0.063155 0.873178 0.160029
H7    H     H_    0.406997 0.436843 0.373178 0.160029
H8    H     H_    0.593003 0.563157 0.626822 0.160029
C45   C     C_R   0.085037 0.879202 0.472313 0.657642
C46   C     C_R   0.914963 0.120798 0.527687 0.657642
C47   C     C_R   0.414963 0.379202 0.027687 0.657642
C48   C     C_R   0.585037 0.620798 0.972313 0.657642
N1    N     N_R   0.072160 0.968291 0.422334 -0.561440
N2    N     N_R   0.927840 0.031709 0.577666 -0.561440
N3    N     N_R   0.427840 0.468291 0.077666 -0.561441
N4    N     N_R   0.572160 0.531709 0.922334 -0.561441
C49   C     C_R   0.031352 0.070376 0.401829 0.701411
C50   C     C_R   0.968648 0.929624 0.598171 0.701411
C51   C     C_R   0.468648 0.570376 0.098171 0.701412
C52   C     C_R   0.531352 0.429623 0.901829 0.701412
C53   C     C_R   0.001560 0.088929 0.432465 -0.107588
C54   C     C_R   0.998440 0.911071 0.567535 -0.107588
C55   C     C_R   0.498440 0.588929 0.067535 -0.107588
C56   C     C_R   0.501560 0.411070 0.932465 -0.107588
C57   C     C_R   0.014425 0.994412 0.483978 -0.046286
C58   C     C_R   0.985575 0.005588 0.516022 -0.046286
C59   C     C_R   0.485575 0.494412 0.016022 -0.046286
C60   C     C_R   0.514425 0.505588 0.983978 -0.046286
C61   C     C_R   0.056223 0.888605 0.503659 -0.067230
C62   C     C_R   0.943776 0.111394 0.496341 -0.067230
C63   C     C_R   0.443776 0.388605 0.996341 -0.067230
C64   C     C_R   0.556224 0.611395 0.003659 -0.067230
C65   C     C_R   0.959540 0.197070 0.414013 0.315327
C66   C     C_R   0.040460 0.802929 0.585987 0.315327
C67   C     C_R   0.540460 0.697071 0.085987 0.315328
C68   C     C_R   0.459540 0.302929 0.914013 0.315327
C69   C     C_R   0.931420 0.205999 0.445764 -0.149114
C70   C     C_R   0.068579 0.794001 0.554235 -0.149114
C71   C     C_R   0.568579 0.706000 0.054235 -0.149114
C72   C     C_R   0.431420 0.294000 0.945765 -0.149114
O21   O     O_2   0.125788 0.781952 0.491727 -0.494093
O22   O     O_2   0.874212 0.218048 0.508273 -0.494093
O23   O     O_2   0.374212 0.281952 0.008273 -0.494093
O24   O     O_2   0.625788 0.718048 0.991727 -0.494094
O25   O     O_2   0.019772 0.151003 0.351722 -0.434782
O26   O     O_2   0.980228 0.848997 0.648278 -0.434782
O27   O     O_2   0.480228 0.651004 0.148278 -0.434782
O28   O     O_2   0.519772 0.348996 0.851722 -0.434782
H9    H     H_    0.899560 0.289224 0.430544 0.202112
H10   H     H_    0.100439 0.710776 0.569456 0.202112
H11   H     H_    0.600440 0.789225 0.069456 0.202112
H12   H     H_    0.399560 0.210775 0.930544 0.202112
C73   C     C_R   0.894500 0.204870 0.637196 0.329006
C74   C     C_R   0.105500 0.795130 0.362804 0.329006
C75   C     C_R   0.605500 0.704870 0.862803 0.329006
C76   C     C_R   0.394500 0.295130 0.137196 0.329006
C77   C     C_R   0.864058 0.213171 0.666379 -0.190751
C78   C     C_R   0.135942 0.786829 0.333621 -0.190751
C79   C     C_R   0.635942 0.713171 0.833621 -0.190751
C80   C     C_R   0.364058 0.286829 0.166379 -0.190751
H13   H     H_    0.862298 0.339649 0.687676 0.169364
H14   H     H_    0.137702 0.660350 0.312324 0.169364
H15   H     H_    0.637702 0.839650 0.812324 0.169364
H16   H     H_    0.362298 0.160350 0.187676 0.169364
C81   C     C_R   0.836813 0.059083 0.668903 -0.105744
C82   C     C_R   0.163187 0.940917 0.331097 -0.105745
C83   C     C_R   0.663187 0.559083 0.831097 -0.105745
C84   C     C_R   0.336813 0.440917 0.168903 -0.105745
C85   C     C_R   0.840789 0.896343 0.641489 -0.150495
C86   C     C_R   0.159211 0.103656 0.358511 -0.150495
C87   C     C_R   0.659211 0.396343 0.858510 -0.150494
C88   C     C_R   0.340789 0.603657 0.141489 -0.150494
H17   H     H_    0.820639 0.774858 0.642753 0.168430
H18   H     H_    0.179361 0.225142 0.357247 0.168429
H19   H     H_    0.679361 0.274858 0.857247 0.168429
H20   H     H_    0.320639 0.725142 0.142753 0.168429
C89   C     C_R   0.870362 0.888992 0.611408 -0.084389
C90   C     C_R   0.129638 0.111008 0.388592 -0.084389
C91   C     C_R   0.629638 0.388992 0.888592 -0.084389
C92   C     C_R   0.370362 0.611008 0.111408 -0.084389
H21   H     H_    0.872188 0.763423 0.589792 0.180375
H22   H     H_    0.127812 0.236577 0.410208 0.180375
H23   H     H_    0.627812 0.263423 0.910208 0.180375
H24   H     H_    0.372188 0.736577 0.089792 0.180375
C93   C     C_R   0.897405 0.042578 0.608889 0.293003
C94   C     C_R   0.102595 0.957422 0.391111 0.293003
C95   C     C_R   0.602595 0.542578 0.891111 0.293003
C96   C     C_R   0.397405 0.457421 0.108889 0.293003
C97   C     C_1   0.213871 0.945480 0.061777 0.306547
N5    N     N_1   0.253606 0.946356 0.068393 -0.337389
C98   C     C_1   0.786129 0.054520 0.938223 0.306547
N6    N     N_1   0.746394 0.053644 0.931607 -0.337389
C99   C     C_1   0.286129 0.445483 0.438223 0.306547
N7    N     N_1   0.246394 0.446359 0.431606 -0.337389
C100  C     C_1   0.713871 0.554517 0.561777 0.306548
N8    N     N_1   0.753606 0.553641 0.568394 -0.337389
C101  C     C_1   0.856516 0.064741 0.048153 0.342957
N9    N     N_1   0.844972 0.072052 0.085770 -0.244607
C102  C     C_1   0.143484 0.935259 0.951847 0.342957
N10   N     N_1   0.155028 0.927948 0.914230 -0.244607
C103  C     C_1   0.643484 0.564737 0.451846 0.342957
N11   N     N_1   0.655028 0.572046 0.414230 -0.244607
C104  C     C_1   0.356516 0.435263 0.548153 0.342957
N12   N     N_1   0.344971 0.427954 0.585770 -0.244607
Br1   Br    Br    0.042089 0.215051 0.134755 -0.506271
Br2   Br    Br    0.957911 0.784949 0.865244 -0.506271
Br3   Br    Br    0.457911 0.715048 0.365244 -0.506271
Br4   Br    Br    0.542089 0.284952 0.634756 -0.506271
Br5   Br    Br    0.937173 0.342214 0.346934 -0.315682
Br6   Br    Br    0.062827 0.657786 0.653066 -0.315682
Br7   Br    Br    0.562827 0.842215 0.153065 -0.315682
Br8   Br    Br    0.437173 0.157785 0.846935 -0.315682
Br9   Br    Br    0.932853 0.415086 0.638318 -0.411517
Br10  Br    Br    0.067147 0.584914 0.361681 -0.411517
Br11  Br    Br    0.567147 0.915086 0.861681 -0.411517
Br12  Br    Br    0.432853 0.084914 0.138319 -0.411517

loop_
_geom_bond_atom_site_label_1
_geom_bond_atom_site_label_2
_ccdc_geom_bond_type
O17   V3    S    
N3    C51   A    
C104  N12   T    
C25   C29   A    
O1    C5    A    
C101  N9    T    
C51   C55   A    
O19   V1    S    
C9    C21   A    
C103  N11   T    
C72   H12   S    
O3    C7    A    
C59   C60   A    
C10   C18   A    
C56   C60   A    
C48   N4    A    
C11   C23   A    
C88   C92   A    
C99   N7    T    
C25   C33   A    
C33   C38   A    
C5    C12   S    
C75   C95   A    
C81   C85   A    
C6    C11   S    
C87   C91   A    
C35   C40   A    
C26   C30   A    
C62   C69   A    
C73   C93   A    
C36   C39   A    
C40   C44   A    
C47   C63   A    
C79   C83   A    
C23   H8    S    
C14   C18   A    
C80   C84   A    
O4    C8    A    
N4    C95   S    
C59   C63   A    
C44   H4    S    
C43   H3    S    
C58   C62   A    
C77   C81   A    
C38   Br2   S    
O1    V3    S    
O13   V1    S    
C31   C43   A    
O2    V4    S    
O3    V1    S    
C54   C66   A    
C75   Br11  S    
C28   C36   A    
C90   H22   S    
N2    C93   S    
C87   H19   S    
C1    O15   A    
C97   N5    T    
C15   C31   A    
C52   C56   A    
C2    O16   A    
C16   C32   A    
C90   C94   A    
C46   C62   A    
C45   C61   A    
C10   C22   A    
C21   C25   A    
C40   Br4   S    
C11   C19   A    
C27   C31   A    
C84   C88   A    
C76   C80   A    
C13   C29   A    
C34   C37   A    
O11   C7    A    
O15   V3    S    
C35   C36   A    
O12   C8    A    
C17   C98   S    
C70   H10   S    
C13   C17   A    
C74   C94   A    
C24   H7    S    
C69   H9    S    
O10   V2    S    
C80   H16   S    
C71   H11   S    
C22   C26   A    
C54   C58   A    
C74   Br10  S    
O5    V1    S    
C65   C69   A    
C14   C102  S    
C48   C64   A    
C39   C43   A    
O7    V3    S    
C38   C42   A    
C52   O28   S    
O8    V4    S    
C88   H20   S    
C37   Br1   S    
C2    C83   S    
C50   C54   A    
C3    C82   S    
C102  N10   T    
C49   C53   A    
O18   V4    S    
C15   C19   A    
N3    C96   S    
C32   C44   A    
O11   V3    S    
O4    V2    S    
N1    C94   S    
C21   H6    S    
C26   C34   A    
C74   C78   A    
O7    C3    A    
C73   C77   A    
C63   C72   A    
C23   C27   A    
C46   N2    A    
C75   C79   A    
C98   N6    T    
C14   C30   A    
C24   C28   A    
O8    C4    A    
C7    C10   S    
C48   O24   S    
O9    C5    A    
C46   O22   S    
C57   C58   A    
C45   O21   S    
O14   V2    S    
C61   C70   A    
O6    V2    S    
C4    C81   S    
C76   C96   A    
C86   H18   S    
C66   Br6   S    
C12   C20   A    
C18   C97   S    
C27   C35   A    
C20   C99   S    
C57   C61   A    
C68   C72   A    
C29   C41   A    
C73   Br9   S    
O16   V4    S    
O9    V1    S    
C85   H17   S    
C3    O13   A    
C64   C71   A    
C39   Br3   S    
C53   C65   A    
C51   O27   S    
C92   H24   S    
C55   C67   A    
C82   C86   A    
C13   C101  S    
C76   Br12  S    
C30   C42   A    
C91   C95   A    
O12   V4    S    
C83   C87   A    
C8    C9    S    
C47   O23   S    
C50   O26   S    
C9    C17   A    
O10   C6    A    
C49   O25   S    
C89   C93   A    
C85   C89   A    
N2    C50   A    
O2    C6    A    
C47   N3    A    
C33   C34   A    
C68   Br8   S    
N4    C52   A    
C86   C90   A    
C41   H1    S    
C91   H23   S    
C60   C64   A    
O20   V2    S    
C12   C24   A    
C67   Br7   S    
C16   C104  S    
C37   C41   A    
C53   C57   A    
C79   H15   S    
C100  N8    T    
C65   Br5   S    
O6    C2    A    
C56   C68   A    
C55   C59   A    
C1    C84   S    
C77   H13   S    
C16   C20   A    
C89   H21   S    
C42   H2    S    
C78   C82   A    
C15   C103  S    
C45   N1    A    
C66   C70   A    
C4    O14   A    
C78   H14   S    
C67   C71   A    
O5    C1    A    
C92   C96   A    
C22   H5    S    
N1    C49   A    
C28   C32   A    
C19   C100  S    
