data_mof_unit_18784.cif
_audit_creation_date              2012-12-10T20:27:11-0500
_audit_creation_method            fapswitch 2.2
_symmetry_space_group_name_H-M    P1
_symmetry_Int_Tables_number       1
_space_group_crystal_system       triclinic
_cell_length_a                    10.786619
_cell_length_b                    10.682168
_cell_length_c                    9.871661
_cell_angle_alpha                 89.846617
_cell_angle_beta                  103.842701
_cell_angle_gamma                 90.017201
_cell_volume                      1104.41691391

loop_
_atom_site_label
_atom_site_type_symbol
_atom_type_description
_atom_site_fract_x
_atom_site_fract_y
_atom_site_fract_z
_atom_type_partial_charge
C1    C     C_R   0.503981 0.259917 0.501188 0.882327
C2    C     C_R   0.607980 0.526107 0.099860 -0.137538
C3    C     C_R   0.608028 0.525975 0.956121 -0.141068
C4    C     C_R   0.259026 0.504018 0.441937 0.945571
C5    C     C_R   0.388655 0.485537 0.899831 0.215159
C6    C     C_3   0.300780 0.375877 0.871781 -0.513035
C7    C     C_3   0.301343 0.375420 0.025784 -0.508813
C8    C     C_R   0.504121 0.740019 0.500903 0.875204
C9    C     C_R   0.741031 0.504019 0.558085 0.943256
C10   C     C_2   0.122550 0.519638 0.409157 -0.378543
C11   C     C_2   0.068122 0.549267 0.512361 -0.158469
C12   C     C_R   0.524709 0.128491 0.507034 -0.106572
C13   C     C_2   0.877571 0.519882 0.590934 -0.377574
C14   C     C_2   0.932094 0.548752 0.487452 -0.148256
C15   C     C_R   0.526312 0.063294 0.629731 0.140847
C16   C     C_R   0.548071 0.065037 0.391317 -0.227299
C17   C     C_R   0.548231 0.935550 0.391143 -0.225816
C18   C     C_R   0.524956 0.871310 0.506647 -0.103561
C19   C     C_R   0.526342 0.935568 0.629448 0.134895
C20   C     C_3   0.437268 0.927667 0.724169 -0.472004
C21   C     C_3   0.437230 0.069520 0.724563 -0.497773
C22   C     C_R   0.388776 0.485228 0.042301 0.219560
H1    H     H_    0.876900 0.561647 0.380736 0.175709
H2    H     H_    0.933331 0.506600 0.697394 0.144334
H3    H     H_    0.066729 0.505239 0.303010 0.145214
H4    H     H_    0.557111 0.114276 0.298072 0.172359
H5    H     H_    0.557382 0.886927 0.297854 0.172482
H6    H     H_    0.343122 0.886500 0.672574 0.203786
H7    H     H_    0.483814 0.886154 0.827174 0.205604
H8    H     H_    0.342992 0.110827 0.673239 0.202300
H9    H     H_    0.483960 0.109736 0.827917 0.204114
H10   H     H_    0.695697 0.545590 0.176134 0.142560
H11   H     H_    0.695722 0.545079 0.925061 0.149814
H12   H     H_    0.206250 0.400519 0.803397 0.198413
H13   H     H_    0.346480 0.291998 0.838857 0.214095
H14   H     H_    0.207248 0.400056 0.045886 0.199239
H15   H     H_    0.347731 0.291185 0.082514 0.215331
H16   H     H_    0.123471 0.563684 0.618753 0.180719
N1    N     N_R   0.499160 0.499140 0.142600 -0.105926
N2    N     N_R   0.499160 0.499180 0.856960 -0.105343
O1    O     O_R   0.500020 0.316790 0.614700 -0.612397
O2    O     O_R   0.500000 0.316760 0.385350 -0.620830
O3    O     O_R   0.317820 0.500020 0.571850 -0.615938
O4    O     O_R   0.317800 0.499980 0.342510 -0.614356
O5    O     O_R   0.500000 0.683240 0.614650 -0.617534
O6    O     O_R   0.499980 0.683210 0.385300 -0.622703
O7    O     O_R   0.682200 0.500020 0.657490 -0.624121
O8    O     O_R   0.682180 0.499980 0.428150 -0.622844
Zn1   Zn    Zn3+2 0.500010 0.500020 0.653140 0.937658
Zn2   Zn    Zn3+2 0.499990 0.499980 0.346860 0.937764

loop_
_geom_bond_atom_site_label_1
_geom_bond_atom_site_label_2
_ccdc_geom_bond_type
C14   H1    S    
C11   H16   S    
C6    C7    S    
C4    O3    A    
C7    C22   S    
C4    O4    A    
C21   H8    S    
O6    Zn2   S    
C19   C20   S    
C12   C15   A    
O5    Zn1   S    
O8    Zn2   S    
C2    C3    A    
C7    H15   S    
O7    Zn1   S    
C17   C18   A    
C13   C14   D    
C6    H13   S    
C15   C19   A    
C21   H9    S    
C1    C12   S    
O2    Zn2   S    
C22   N1    A    
C10   H3    S    
C1    O1    A    
C3    N2    A    
C9    O7    A    
C20   H7    S    
C16   H4    S    
C5    C6    S    
C11   C14   S    
C8    O6    A    
C10   C11   D    
C3    H11   S    
C4    C10   S    
N2    Zn1   S    
C17   H5    S    
C12   C16   A    
C1    O2    A    
C15   C21   S    
N1    Zn2   S    
C20   C21   S    
C9    O8    A    
C2    H10   S    
C18   C19   A    
C7    H14   S    
C5    N2    A    
O1    Zn1   S    
C9    C13   S    
C8    O5    A    
O3    Zn1   S    
O4    Zn2   S    
C20   H6    S    
C2    N1    A    
C8    C18   S    
C5    C22   A    
C6    H12   S    
C13   H2    S    
C16   C17   A    
