data_mof_unit_25447.cif
_audit_creation_date              2012-12-10T17:42:39-0500
_audit_creation_method            fapswitch 2.2
_symmetry_space_group_name_H-M    P1
_symmetry_Int_Tables_number       1
_space_group_crystal_system       triclinic
_cell_length_a                    9.933357
_cell_length_b                    10.630965
_cell_length_c                    13.092473
_cell_angle_alpha                 92.625923
_cell_angle_beta                  71.842168
_cell_angle_gamma                 87.54498
_cell_volume                      1309.97306477

loop_
_atom_site_label
_atom_site_type_symbol
_atom_type_description
_atom_site_fract_x
_atom_site_fract_y
_atom_site_fract_z
_atom_type_partial_charge
Br1   Br    Br    0.170006 0.133212 0.211473 -0.432488
Br2   Br    Br    0.471882 0.237473 0.235882 -0.472777
Br3   Br    Br    0.624351 0.726901 0.714048 -0.464633
C1    C     C_R   0.497780 0.741500 0.496433 0.941522
C2    C     C_R   0.387660 0.432088 0.810028 -0.157532
C3    C     C_R   0.284213 0.889449 0.414048 -0.237510
C4    C     C_R   0.425899 0.475538 0.699139 0.986002
C5    C     C_R   0.210091 0.952637 0.355549 -0.234982
C6    C     C_R   0.256369 0.064941 0.310868 0.290097
C7    C     C_R   0.369869 0.120509 0.333711 0.192349
C8    C     C_R   0.431076 0.066578 0.407090 0.007475
C9    C     C_R   0.402132 0.942066 0.436195 0.086063
C10   C     C_R   0.499124 0.875742 0.479121 -0.067112
C11   C     C_R   0.621236 0.932896 0.485421 -0.249010
C12   C     C_R   0.444641 0.466919 0.975557 0.088467
C13   C     C_R   0.643095 0.055580 0.460491 -0.068252
C14   C     C_R   0.533420 0.127765 0.441964 -0.126137
C15   C     C_R   0.815105 0.708009 0.616645 0.255470
C16   C     C_R   0.511723 0.261661 0.478108 0.954363
C17   C     C_R   0.880034 0.813775 0.642802 -0.207186
C18   C     C_R   0.016309 0.802169 0.649407 -0.068987
C19   C     C_R   0.091372 0.686551 0.617945 -0.162414
C20   C     C_R   0.045796 0.592900 0.559722 0.088526
C21   C     C_R   0.900623 0.596617 0.560180 0.110373
C22   C     C_R   0.957652 0.413888 0.439765 -0.053295
C23   C     C_R   0.490252 0.436194 0.864460 0.037517
C24   C     C_R   0.099863 0.413118 0.440458 -0.071049
C25   C     C_R   0.576220 0.511773 0.297802 0.916607
C26   C     C_R   0.791868 0.555689 0.009825 0.002700
C27   C     C_R   0.617545 0.531035 0.183023 -0.060458
C28   C     C_R   0.249565 0.398246 0.867465 -0.070643
C29   C     C_R   0.207832 0.408594 0.980166 -0.097780
C30   C     C_R   0.300235 0.451171 0.033379 -0.123506
C31   C     C_2   0.787827 0.099065 0.437124 0.949608
C32   C     C_2   0.077615 0.907973 0.694643 0.979130
C33   C     C_2   0.928737 0.608280 0.949241 0.928599
C34   C     C_R   0.547477 0.504458 0.023699 0.087995
C35   C     C_2   0.154909 0.337377 0.813990 0.971333
C36   C     C_2   0.685772 0.304189 0.726141 1.008895
C37   C     C_R   0.691997 0.512588 0.960308 0.086037
C38   C     C_R   0.735445 0.460331 0.854338 -0.157898
C39   C     C_R   0.636896 0.407921 0.811689 -0.057219
C40   C     C_R   0.512131 0.527127 0.134050 -0.178857
C41   C     C_R   0.756064 0.553562 0.122155 -0.224247
H1    H     H_    0.834149 0.571524 0.162382 0.197659
H2    H     H_    0.256438 0.462942 0.119701 0.155498
H3    H     H_    0.102344 0.385678 0.027754 0.201873
H4    H     H_    0.705352 0.880425 0.504107 0.198741
H5    H     H_    0.965565 0.108033 0.479828 0.358456
H6    H     H_    0.245012 0.972160 0.733332 0.371814
H7    H     H_    0.111072 0.681267 0.954346 0.364737
H8    H     H_    0.134589 0.244656 0.682050 0.377656
H9    H     H_    0.638462 0.141178 0.663702 0.363508
H10   H     H_    0.245339 0.799733 0.437889 0.198334
H11   H     H_    0.121930 0.909307 0.338693 0.198371
H12   H     H_    0.929502 0.346537 0.387667 0.206825
H13   H     H_    0.816822 0.900782 0.675136 0.239129
H14   H     H_    0.186768 0.672312 0.637649 0.251167
H15   H     H_    0.846718 0.445630 0.809365 0.226799
H16   H     H_    0.176627 0.342371 0.391063 0.176169
H17   H     H_    0.403521 0.529721 0.184367 0.166183
N1    N     N_R   0.856860 0.501200 0.500990 -0.113554
N2    N     N_R   0.142450 0.501280 0.501020 -0.117639
O1    O     O_R   0.385310 0.683220 0.500000 -0.665459
O2    O     O_R   0.869441 0.070508 0.503715 -0.813086
O3    O     O_2   0.009409 0.008945 0.724046 -0.577983
O4    O     O_R   0.214348 0.892890 0.702935 -0.803996
O5    O     O_2   0.955462 0.627876 0.853977 -0.642747
O6    O     O_R   0.023499 0.644207 0.003392 -0.812346
O7    O     O_2   0.030633 0.325118 0.864866 -0.630343
O8    O     O_R   0.209539 0.284261 0.708662 -0.763712
O9    O     O_2   0.809341 0.293386 0.668123 -0.608390
O10   O     O_R   0.591043 0.214128 0.716780 -0.791872
O11   O     O_R   0.614640 0.683250 0.500010 -0.609753
O12   O     O_R   0.328400 0.499950 0.653610 -0.601019
O13   O     O_R   0.557730 0.499970 0.653620 -0.592741
O14   O     O_R   0.385360 0.316750 0.499990 -0.578746
O15   O     O_R   0.614690 0.316780 0.500000 -0.615391
O16   O     O_R   0.442270 0.500030 0.346380 -0.618207
O17   O     O_R   0.671600 0.500050 0.346390 -0.618041
O18   O     O_2   0.838332 0.154084 0.355293 -0.588615
Zn1   Zn    Zn3+2 0.346880 0.499980 0.499990 0.975507
Zn2   Zn    Zn3+2 0.653120 0.500020 0.500010 1.010063

loop_
_geom_bond_atom_site_label_1
_geom_bond_atom_site_label_2
_ccdc_geom_bond_type
N1    Zn2   S    
C35   O7    D    
C4    O12   A    
C38   C39   A    
C22   H12   S    
O11   Zn2   S    
C41   H1    S    
C26   C33   S    
C40   H17   S    
H5    O2    S    
C15   C21   A    
C34   C37   A    
C24   H16   S    
C3    C9    A    
C5    H11   S    
Br3   C15   S    
C1    C10   S    
C16   O14   A    
C25   O16   A    
C12   C34   A    
C13   C31   S    
O15   Zn2   S    
C13   C14   A    
C36   O9    D    
C31   O18   D    
C6    C7    A    
C1    O11   A    
C20   N2    A    
C10   C11   A    
C30   H2    S    
C27   C41   A    
C3    H10   S    
O17   Zn2   S    
O13   Zn2   S    
C36   C39   S    
N2    Zn1   S    
Br1   C6    S    
C38   H15   S    
C2    C4    S    
C5    C6    A    
C12   C23   A    
C11   H4    S    
C32   O3    D    
C34   C40   A    
C16   O15   A    
C28   C29   A    
C32   O4    S    
C20   C21   A    
C17   C18   A    
O1    Zn1   S    
C24   N2    A    
C37   C38   A    
C26   C41   A    
C31   O2    S    
C29   H3    S    
C11   C13   A    
C27   C40   A    
Br2   C7    S    
C33   O6    S    
C23   C39   A    
H6    O4    S    
C35   O8    S    
C8    C14   A    
C21   N1    A    
H9    O10   S    
C19   H14   S    
O16   Zn1   S    
C3    C5    A    
C8    C9    A    
C33   O5    D    
O12   Zn1   S    
C4    O13   A    
C18   C32   S    
C22   C24   A    
C1    O1    A    
C28   C35   S    
C29   C30   A    
C25   C27   S    
H8    O8    S    
O14   Zn1   S    
C26   C37   A    
C14   C16   S    
C15   C17   A    
C22   N1    A    
C36   O10   S    
C25   O17   A    
C7    C8    A    
C2    C23   A    
C9    C10   A    
C19   C20   A    
H7    O6    S    
C17   H13   S    
C18   C19   A    
C12   C30   A    
C2    C28   A    
