data_mof_unit_41498.cif
_audit_creation_date              2012-12-10T18:21:16-0500
_audit_creation_method            fapswitch 2.2
_symmetry_space_group_name_H-M    P1
_symmetry_Int_Tables_number       1
_space_group_crystal_system       triclinic
_cell_length_a                    9.4692
_cell_length_b                    10.613465
_cell_length_c                    17.14038
_cell_angle_alpha                 90.049137
_cell_angle_beta                  85.244934
_cell_angle_gamma                 90.081356
_cell_volume                      1716.69454394

loop_
_atom_site_label
_atom_site_type_symbol
_atom_type_description
_atom_site_fract_x
_atom_site_fract_y
_atom_site_fract_z
_atom_type_partial_charge
C1    C     C_R   0.500230 0.740435 0.500049 0.751507
C2    C     C_R   0.499759 0.259578 0.500022 0.766548
C3    C     C_3   0.444108 0.957755 0.435414 -0.173694
C4    C     C_3   0.555867 0.042309 0.564760 -0.164601
C5    C     C_3   0.577347 0.042070 0.436088 -0.169694
C6    C     C_3   0.422621 0.957985 0.564078 -0.164030
C7    C     C_3   0.499114 0.122527 0.500052 0.015136
C8    C     C_3   0.500860 0.877513 0.500112 0.019939
C9    C     C_3   0.365722 0.040492 0.499373 -0.121909
C10   C     C_3   0.634260 0.959563 0.500792 -0.114622
C11   C     C_3   0.948073 0.384704 0.504229 -0.314295
C12   C     C_3   0.051935 0.615281 0.495753 -0.310764
C13   C     C_3   0.039694 0.449454 0.562317 0.427871
C14   C     C_3   0.960310 0.550527 0.437671 0.421832
C15   C     C_3   0.057721 0.437856 0.441758 0.432364
C16   C     C_3   0.942309 0.562127 0.558223 0.428267
C17   C     C_R   0.480504 0.499952 0.649714 0.790262
C18   C     C_R   0.519462 0.499808 0.350177 0.781765
C19   C     C_R   0.467418 0.490924 0.734465 -0.146611
C20   C     C_R   0.531800 0.488028 0.265360 -0.179854
C21   C     C_R   0.508927 0.377744 0.767511 -0.323467
C22   C     C_R   0.466726 0.383649 0.233378 -0.319608
C23   C     C_R   0.497908 0.361251 0.849186 0.548703
C24   C     C_R   0.475500 0.364252 0.151993 0.538360
C25   C     C_R   0.441452 0.460273 0.896602 -0.104826
C26   C     C_R   0.554289 0.450460 0.103634 -0.100127
C27   C     C_R   0.397427 0.572487 0.863320 -0.224491
C28   C     C_R   0.621945 0.553282 0.135745 -0.231526
C29   C     C_R   0.409802 0.589555 0.782540 0.423811
C30   C     C_R   0.611003 0.574077 0.216233 0.421893
C31   C     C_2   0.435542 0.451253 0.982956 0.459829
C32   C     C_2   0.558335 0.439847 0.017371 0.464762
Cu1   Cu    Cu3+1 0.356850 0.500010 0.499980 1.023952
Cu2   Cu    Cu3+1 0.643150 0.499990 0.500020 1.022589
H1    H     H_    0.546737 0.301969 0.728947 0.139776
H2    H     H_    0.412144 0.316267 0.272589 0.175144
H3    H     H_    0.901226 0.288754 0.507846 0.158919
H4    H     H_    0.098775 0.711233 0.492160 0.161313
H5    H     H_    0.355602 0.648415 0.900721 0.196631
H6    H     H_    0.680468 0.619920 0.097565 0.195408
H7    H     H_    0.640505 0.079703 0.383761 0.141457
H8    H     H_    0.359284 0.920557 0.616390 0.151555
H9    H     H_    0.398505 0.919968 0.382533 0.139735
H10   H     H_    0.601421 0.080157 0.617652 0.128848
H11   H     H_    0.255664 0.076224 0.498774 0.156739
H12   H     H_    0.744321 0.923833 0.501375 0.157171
N1    N     N_3   0.141720 0.500030 0.499940 -0.190664
N2    N     N_3   0.858280 0.499970 0.500060 -0.191974
O1    O     O_R   0.379130 0.683150 0.499960 -0.601419
O2    O     O_R   0.620870 0.316850 0.500040 -0.601155
O3    O     O_R   0.620910 0.683140 0.500000 -0.540180
O4    O     O_R   0.379090 0.316860 0.500000 -0.538744
O5    O     O_R   0.365090 0.500030 0.613580 -0.530124
O6    O     O_R   0.634910 0.499970 0.386420 -0.532581
O7    O     O_R   0.606870 0.500020 0.613610 -0.533195
O8    O     O_R   0.393130 0.499980 0.386390 -0.532762
O9    O     O_3   0.124816 0.372361 0.378356 -0.715109
H13   H     H_    0.047256 0.340312 0.348299 0.307139
O10   O     O_3   0.875340 0.627642 0.621632 -0.695476
H14   H     H_    0.953059 0.660512 0.651268 0.321013
O11   O     O_3   0.676052 0.680238 0.243376 -0.701400
H15   H     H_    0.644575 0.694280 0.299160 0.332106
O12   O     O_3   0.366776 0.703799 0.753997 -0.724370
H16   H     H_    0.390383 0.708124 0.696775 0.309322
O13   O     O_3   0.686438 0.439744 0.970852 -0.596632
C33   C     C_3   0.787025 0.362029 0.003484 -0.311234
H17   H     H_    0.741781 0.268238 0.020839 0.186761
H18   H     H_    0.831178 0.408957 0.054062 0.164868
H19   H     H_    0.876188 0.345590 0.958487 0.177913
O14   O     O_3   0.310453 0.475461 0.029384 -0.598053
C34   C     C_3   0.193591 0.416905 0.998210 -0.298426
H20   H     H_    0.159314 0.470911 0.947633 0.178362
H21   H     H_    0.103745 0.416157 0.044002 0.178342
H22   H     H_    0.216381 0.317101 0.981414 0.179888
O15   O     O_3   0.419161 0.258482 0.117537 -0.573604
C35   C     C_3   0.285885 0.223790 0.154423 -0.261464
H23   H     H_    0.217572 0.306915 0.170178 0.175598
H24   H     H_    0.299402 0.164514 0.206642 0.161233
H25   H     H_    0.229672 0.165746 0.112907 0.183944
O16   O     O_3   0.529499 0.247979 0.884932 -0.570263
C36   C     C_3   0.651119 0.189565 0.847876 -0.260905
H26   H     H_    0.737101 0.258416 0.830779 0.165252
H27   H     H_    0.622961 0.133750 0.796546 0.156837
H28   H     H_    0.693433 0.122723 0.889827 0.190240
O17   O     O_3   0.086864 0.396439 0.630068 -0.696323
H29   H     H_    0.999858 0.369877 0.661983 0.311123
O18   O     O_3   0.913101 0.603551 0.369940 -0.685130
H30   H     H_    0.000087 0.629774 0.337895 0.323280

loop_
_geom_bond_atom_site_label_1
_geom_bond_atom_site_label_2
_ccdc_geom_bond_type
C25   C31   S    
C33   H18   S    
O18   H30   S    
C29   O12   S    
C26   C32   S    
C27   C29   A    
C1    C8    S    
C2    C7    S    
C35   H25   S    
C15   N1    S    
C16   N2    S    
C6    C9    S    
C36   H26   S    
C20   C30   A    
O17   H29   S    
Cu1   O4    S    
C9    H11   S    
C3    H9    S    
Cu2   O3    S    
C19   C21   A    
C35   H24   S    
C14   O18   S    
C12   N1    S    
C33   H19   S    
C28   H6    S    
Cu1   O1    S    
C11   H3    S    
C2    O2    A    
C13   N1    S    
C31   O14   S    
C12   C16   S    
C27   H5    S    
C10   H12   S    
O14   C34   S    
C23   O16   S    
C17   O7    A    
C18   O8    A    
Cu1   O8    S    
C33   H17   S    
Cu2   O7    S    
C15   O9    S    
C11   N2    S    
C11   C15   S    
C4    C7    S    
C36   H27   S    
Cu1   O5    S    
Cu2   O2    S    
C35   H23   S    
C4    C6    S    
C3    C8    S    
C5    C7    S    
C14   N2    S    
C4    H10   S    
C16   O10   S    
O15   C35   S    
O10   H14   S    
C3    C9    S    
C31   C32   D    
Cu1   Cu2   S    
C1    O3    A    
C2    O4    A    
C20   C22   A    
Cu2   O6    S    
C21   C23   A    
Cu1   N1    S    
C22   C24   A    
C13   C16   S    
Cu2   N2    S    
C4    C10   S    
C19   C29   A    
C17   O5    A    
C36   H28   S    
C34   H21   S    
C7    C9    S    
C5    H7    S    
C24   C26   A    
C12   C14   S    
O16   C36   S    
C3    C5    S    
C34   H22   S    
C6    C8    S    
C24   O15   S    
C21   H1    S    
C25   C27   A    
C22   H2    S    
C26   C28   A    
C28   C30   A    
C5    C10   S    
C11   C13   S    
O9    H13   S    
C17   C19   S    
C18   C20   S    
C23   C25   A    
C12   H4    S    
O11   H15   S    
C18   O6    A    
O12   H16   S    
C34   H20   S    
C8    C10   S    
O13   C33   S    
C6    H8    S    
C30   O11   S    
C13   O17   S    
C14   C15   S    
C1    O1    A    
C32   O13   S    
