data_mof_unit_49330.cif
_audit_creation_date              2013-03-05T15:41:44-0500
_audit_creation_method            fapswitch 2.2
_symmetry_space_group_name_H-M    P1
_symmetry_Int_Tables_number       1
_space_group_crystal_system       triclinic
_cell_length_a                    11.119054
_cell_length_b                    12.709993
_cell_length_c                    23.697556
_cell_angle_alpha                 90.322656
_cell_angle_beta                  95.807913
_cell_angle_gamma                 68.77067
_cell_volume                      3103.98157281

loop_
_atom_site_label
_atom_site_type_symbol
_atom_site_description
_atom_site_fract_x
_atom_site_fract_y
_atom_site_fract_z
_atom_type_partial_charge
O1    O     O_R   0.196340 0.303200 0.448500 -0.477273
O2    O     O_R   0.199310 0.519670 0.454880 -0.481812
C1    C     C_R   0.149319 0.615697 0.428524 0.558420
O3    O     O_R   0.045660 0.691380 0.441680 -0.451282
O4    O     O_R   0.811930 0.659460 0.430950 -0.463100
C2    C     C_R   0.744041 0.607305 0.406162 0.566964
O5    O     O_R   0.757900 0.507620 0.421760 -0.453497
O6    O     O_R   0.988630 0.322990 0.439840 -0.475458
C3    C     C_R   0.101956 0.282348 0.423473 0.554177
O7    O     O_R   0.196380 0.301720 0.573850 -0.436750
O8    O     O_R   0.199350 0.518300 0.571080 -0.459238
C4    C     C_R   0.143376 0.614318 0.592754 0.591275
O9    O     O_R   0.045700 0.689900 0.567030 -0.440671
O10   O     O_R   0.811960 0.658090 0.547150 -0.455469
C5    C     C_R   0.747948 0.602297 0.565442 0.561970
O11   O     O_R   0.757930 0.506140 0.547110 -0.461581
O12   O     O_R   0.988670 0.321620 0.556040 -0.472529
C6    C     C_R   0.099008 0.276815 0.584882 0.570539
Cr1   Cr    Cr6+3 0.189770 0.415650 0.511620 1.187438
Cr2   Cr    Cr6+3 0.930400 0.667320 0.496770 1.201642
Cr3   Cr    Cr6+3 0.879870 0.417010 0.491650 1.190761
O13   O     O_3   0.000020 0.499990 0.500010 -0.338157
C7    C     C_R   0.635037 0.764285 0.144126 -0.023812
C8    C     C_R   0.674920 0.649261 0.350201 -0.046434
C9    C     C_R   0.638762 0.572488 0.260689 0.277912
C10   C     C_R   0.631493 0.573890 0.318306 0.172783
C11   C     C_R   0.689888 0.742822 0.323373 0.174116
C12   C     C_R   0.675577 0.752635 0.263500 -0.074231
C13   C     C_R   0.645841 0.667318 0.233025 -0.053418
C14   C     C_R   0.603405 0.686265 0.176007 0.226091
C15   C     C_R   0.685660 0.838867 0.172800 0.203669
C16   C     C_R   0.690283 0.842342 0.232230 0.300947
C17   C     C_1   0.231463 0.162953 0.122343 0.081158
C18   C     C_2   0.160985 0.234639 0.223713 0.269632
C19   C     C_2   0.175970 0.158875 0.266254 0.270005
C20   C     C_1   0.143103 0.195380 0.322556 0.120645
C21   C     C_1   0.200161 0.198284 0.168183 0.118121
C22   C     C_1   0.120588 0.230547 0.369324 0.081637
C23   C     C_1   0.164065 0.756367 0.123728 0.120897
C24   C     C_2   0.140018 0.723862 0.231537 0.222190
C25   C     C_2   0.214004 0.629803 0.263222 0.207186
C26   C     C_1   0.203069 0.627865 0.323640 0.097116
C27   C     C_1   0.151018 0.737970 0.172143 0.132079
C28   C     C_1   0.185585 0.624629 0.372903 0.109639
C29   C     C_1   0.610875 0.766392 0.861600 0.063456
C30   C     C_2   0.634439 0.757456 0.751793 0.248229
C31   C     C_2   0.645803 0.661681 0.725092 -0.077778
C32   C     C_1   0.665187 0.649067 0.665923 0.110044
C33   C     C_1   0.626478 0.761413 0.812001 0.039355
C34   C     C_1   0.694133 0.632324 0.618200 0.145413
H1    H     H_    0.652835 0.586910 0.749180 0.172418
C35   C     C_R   0.208116 0.180810 0.852671 0.002517
C36   C     C_R   0.103817 0.218628 0.639497 -0.028541
C37   C     C_R   0.979722 0.211091 0.718263 0.261587
C38   C     C_R   0.988024 0.218692 0.659519 0.155095
C39   C     C_R   0.216049 0.191170 0.677245 0.196551
C40   C     C_R   0.205550 0.196871 0.735463 -0.085115
C41   C     C_R   0.089109 0.202248 0.757784 -0.036978
C42   C     C_R   0.091881 0.194010 0.818170 0.221892
C43   C     C_R   0.308169 0.204856 0.829165 0.182826
C44   C     C_R   0.308273 0.206604 0.771075 -0.037149
H2    H     H_    0.388685 0.219223 0.753800 0.253942
C45   C     C_R   0.115613 0.742665 0.856295 -0.045588
C46   C     C_R   0.173213 0.633869 0.653055 -0.037395
C47   C     C_R   0.305974 0.577349 0.743756 0.245527
C48   C     C_R   0.293548 0.572238 0.684071 0.155603
C49   C     C_R   0.071236 0.707750 0.681778 0.218172
C50   C     C_R   0.093103 0.728511 0.738766 -0.068743
C51   C     C_R   0.201747 0.651053 0.771469 -0.080358
C52   C     C_R   0.201559 0.648665 0.830959 0.171988
C53   C     C_R   0.005026 0.817089 0.823429 0.212636
C54   C     C_R   0.999969 0.816188 0.764920 0.295520
O14   O     O_R   0.113660 0.883270 0.047820 -0.486320
O15   O     O_R   0.186930 0.068530 0.043990 -0.492164
C55   C     C_R   0.264974 0.110005 0.069399 0.557077
O16   O     O_R   0.377770 0.089040 0.054220 -0.452426
O17   O     O_R   0.562800 0.872960 0.056970 -0.459116
C56   C     C_R   0.590419 0.778092 0.083337 0.588672
O18   O     O_R   0.555390 0.700940 0.062700 -0.441527
O19   O     O_R   0.295020 0.731920 0.049950 -0.444389
C57   C     C_R   0.187522 0.787808 0.069072 0.563655
O20   O     O_R   0.094290 0.884230 0.921550 -0.442633
O21   O     O_R   0.168980 0.069410 0.926940 -0.450622
C58   C     C_R   0.242103 0.116439 0.907590 0.571231
O22   O     O_R   0.358400 0.089990 0.927950 -0.467829
O23   O     O_R   0.544850 0.873850 0.939920 -0.478420
C59   C     C_R   0.573117 0.777273 0.917891 0.550718
O24   O     O_R   0.536020 0.701900 0.936430 -0.475363
O25   O     O_R   0.277070 0.732810 0.932890 -0.465196
C60   C     C_R   0.161485 0.784716 0.908768 0.566800
Cr4   Cr    Cr6+3 0.149500 0.973980 0.985330 1.173541
Cr5   Cr    Cr6+3 0.457000 0.976510 0.994660 1.183907
Cr6   Cr    Cr6+3 0.411170 0.724270 0.995270 1.191042
O26   O     O_3   0.339220 0.891590 0.991750 -0.330591
Cl1   Cl    Cl    0.472301 0.641966 0.152679 -0.460214
Cl2   Cl    Cl    0.034805 0.843685 0.262866 -0.410059
Cl3   Cl    Cl    0.615892 0.883078 0.714873 -0.339929
Cl4   Cl    Cl    0.955394 0.204955 0.853766 -0.364790
N1    N     N_R   0.413364 0.223006 0.863639 0.140840
O27   O     O_R   0.527415 0.194731 0.845711 -0.182620
O28   O     O_R   0.392418 0.277842 0.910436 -0.199092
Cl5   Cl    Cl    0.827613 0.217856 0.737912 -0.239212
N2    N     N_R   0.878852 0.224230 0.619942 0.137722
O29   O     O_R   0.893088 0.150607 0.580367 -0.240222
O30   O     O_R   0.768209 0.307481 0.620503 -0.205495
Cl6   Cl    Cl    0.371427 0.145885 0.651693 -0.374418
N3    N     N_R   0.253757 0.541285 0.861545 0.148452
O31   O     O_R   0.248826 0.452858 0.835075 -0.283811
O32   O     O_R   0.270790 0.534999 0.916708 -0.249526
Cl7   Cl    Cl    0.734798 0.933868 0.135188 -0.411126
Cl8   Cl    Cl    0.869376 0.911284 0.854454 -0.376138
Cl9   Cl    Cl    0.458444 0.503827 0.782492 -0.415486
Cl10  Cl    Cl    0.896254 0.940576 0.726529 -0.270865
N4    N     N_R   0.401043 0.502465 0.655470 0.112093
O33   O     O_R   0.461102 0.396615 0.670762 -0.166508
O34   O     O_R   0.436118 0.543598 0.612568 -0.310586
Cl11  Cl    Cl    0.906119 0.744543 0.654014 -0.464528
Cl12  Cl    Cl    0.657273 0.445117 0.224873 -0.297841
Cl13  Cl    Cl    0.698499 0.967311 0.262959 -0.271177
N5    N     N_R   0.586013 0.495844 0.345023 0.137511
O35   O     O_R   0.642809 0.387375 0.340196 -0.177719
O36   O     O_R   0.501066 0.532627 0.381394 -0.311803
N6    N     N_R   0.723364 0.823843 0.357301 0.138272
O37   O     O_R   0.841016 0.823614 0.360716 -0.220600
O38   O     O_R   0.643783 0.883958 0.391989 -0.241818
Cl14  Cl    Cl    0.246080 0.012148 0.256717 -0.506581
Cl15  Cl    Cl    0.089768 0.381268 0.233146 -0.524043
N7    N     N_R   0.297628 0.528311 0.238875 0.114692
O39   O     O_R   0.374539 0.444986 0.272180 -0.193309
O40   O     O_R   0.284813 0.511192 0.184780 -0.239539

loop_
_geom_bond_atom_site_label_1
_geom_bond_atom_site_label_2
_geom_bond_distance
_ccdc_geom_bond_type
C59   O24   1.268267 A    
O17   Cr5   1.960985 S    
Cr6   O26   1.981399 S    
C18   C21   1.448556 S    
C25   C26   1.450197 S    
C18   Cl15  1.764266 S    
C19   C20   1.448409 S    
C8    C11   1.420998 A    
C43   N1    1.445224 S    
C9    Cl12  1.778223 S    
N4    O33   1.301196 A    
N6    O37   1.301431 A    
O4    Cr2   1.963621 S    
O17   C56   1.280663 A    
C30   C33   1.437923 S    
O8    Cr1   1.936117 S    
C14   Cl1   1.781983 S    
C12   C13   1.417475 A    
C29   C59   1.429695 S    
C8    C10   1.405370 A    
O18   Cr6   2.086904 S    
C52   N3    1.441266 S    
O4    C2    1.273783 A    
C4    C46   1.474307 S    
N6    O38   1.301142 A    
C5    O11   1.265012 A    
C38   N2    1.437540 S    
C39   C40   1.395566 A    
C18   C19   1.353540 D    
C30   C31   1.339498 D    
C5    C34   1.430896 S    
C35   C58   1.481372 S    
C35   C43   1.419474 A    
C6    C36   1.480861 S    
C37   C38   1.410581 A    
C17   C55   1.438531 S    
C24   C27   1.442824 S    
O21   C58   1.288081 A    
C50   C51   1.409591 A    
C53   Cl8   1.776402 S    
N3    O31   1.299759 A    
C32   C34   1.203835 T    
Cr3   O13   1.975055 S    
N7    O39   1.301055 A    
N3    O32   1.300472 A    
C25   N7    1.446729 S    
C44   H2    1.082313 S    
C26   C28   1.206084 T    
C24   Cl2   1.764068 S    
O14   C57   1.265624 A    
O22   Cr5   2.076330 S    
N5    O36   1.301535 A    
O6    Cr3   1.906636 S    
C36   C38   1.416216 A    
C9    C13   1.405963 A    
C1    C28   1.433614 S    
O1    Cr1   2.051309 S    
O15   C55   1.270992 A    
C39   Cl6   1.780548 S    
C49   C50   1.388731 A    
C7    C14   1.411601 A    
O10   Cr2   1.898714 S    
C12   C16   1.430012 A    
Cr1   O13   1.980949 S    
O1    C3    1.263740 A    
C58   O22   1.256452 A    
O14   Cr4   2.037743 S    
C11   N6    1.432870 S    
C56   O18   1.259001 A    
O6    C3    1.276845 A    
C31   H1    1.085517 S    
C41   C42   1.431801 A    
O5    Cr3   2.084326 S    
C54   Cl10  1.772165 S    
O12   Cr3   1.961328 S    
O20   Cr4   2.064571 S    
C43   C44   1.377023 A    
C46   C48   1.411569 A    
O15   Cr4   1.943204 S    
C19   Cl14  1.764857 S    
C55   O16   1.273411 A    
C46   C49   1.417276 A    
C47   Cl9   1.771268 S    
C13   C14   1.377931 A    
C35   C42   1.413376 A    
C31   C32   1.439382 S    
C45   C52   1.407955 A    
C29   C33   1.203374 T    
O7    Cr1   2.049884 S    
C50   C54   1.408801 A    
C2    C8    1.462401 S    
Cr5   O26   1.972133 S    
O12   C6    1.274885 A    
N2    O30   1.301434 A    
C49   Cl11  1.777495 S    
C23   C57   1.433526 S    
C45   C53   1.409065 A    
O16   Cr5   2.032305 S    
C24   C25   1.357423 D    
N1    O28   1.302246 A    
C30   Cl3   1.760123 S    
Cr2   O13   1.981357 S    
C16   Cl13  1.772046 S    
C1    O3    1.271766 A    
N2    O29   1.301208 A    
N5    O35   1.301868 A    
C37   C41   1.428561 A    
C36   C39   1.393372 A    
O24   Cr6   2.013375 S    
O19   Cr6   1.898092 S    
C48   N4    1.436651 S    
O9    Cr2   2.080195 S    
O2    Cr1   1.928102 S    
O23   C59   1.274605 A    
C37   Cl5   1.771538 S    
C15   C16   1.405092 A    
C10   N5    1.440739 S    
O19   C57   1.276599 A    
N7    O40   1.301278 A    
N4    O34   1.301153 A    
O8    C4    1.283777 A    
O11   Cr3   2.020024 S    
C40   C44   1.392170 A    
C2    O5    1.272009 A    
O21   Cr4   1.924193 S    
O20   C60   1.267616 A    
N1    O27   1.301972 A    
C20   C22   1.208435 T    
O2    C1    1.278936 A    
C9    C10   1.375569 A    
C53   C54   1.382098 A    
O23   Cr5   1.911484 S    
Cr4   O26   1.976562 S    
C40   C41   1.426500 A    
O7    C6    1.283421 A    
C47   C51   1.418729 A    
C45   C60   1.467540 S    
C3    C22   1.438226 S    
C15   Cl7   1.771827 S    
C7    C56   1.465359 S    
O25   Cr6   1.964382 S    
C51   C52   1.410490 A    
C17   C21   1.208583 T    
O3    Cr2   2.016737 S    
C4    O9    1.261353 A    
C23   C27   1.205527 T    
C47   C48   1.410558 A    
C11   C12   1.412780 A    
C42   Cl4   1.771704 S    
O10   C5    1.276233 A    
O25   C60   1.286566 A    
C7    C15   1.406730 A    
