data_mof_unit_66841.cif
_audit_creation_date              2013-03-05T15:42:06-0500
_audit_creation_method            fapswitch 2.2
_symmetry_space_group_name_H-M    P1
_symmetry_Int_Tables_number       1
_space_group_crystal_system       triclinic
_cell_length_a                    8.802256
_cell_length_b                    15.128592
_cell_length_c                    16.812008
_cell_angle_alpha                 109.07485
_cell_angle_beta                  98.721509
_cell_angle_gamma                 79.656582
_cell_volume                      2071.04372181

loop_
_atom_site_label
_atom_site_type_symbol
_atom_site_description
_atom_site_fract_x
_atom_site_fract_y
_atom_site_fract_z
_atom_type_partial_charge
P1    P     P_3+3 0.589930 0.617420 0.700180 0.539814
O1    O     O_2   0.426270 0.593440 0.713420 -0.269505
O2    O     O_3   0.647730 0.570260 0.604850 -0.430114
O3    O     O_3   0.203920 0.417520 0.657950 -0.341957
O4    O     O_2   0.307945 0.532662 0.802883 -0.334160
O5    O     O_3   0.536325 0.738326 0.714231 -0.534261
O6    O     O_3   0.318767 0.364010 0.804376 -0.563716
C1    C     C_3   0.347984 0.207118 0.812917 -0.031743
H1    H     H_    0.460118 0.196588 0.785992 0.180121
P2    P     P_3+3 0.161520 0.277720 0.428790 0.553183
P3    P     P_3+3 0.670783 0.239563 0.592459 0.574174
O7    O     O_2   0.343970 0.269780 0.454840 -0.284645
O8    O     O_3   0.615710 0.361880 0.613490 -0.442858
O9    O     O_2   0.528967 0.190692 0.545743 -0.222848
O10   O     O_3   0.167353 0.236547 0.318731 -0.579515
O11   O     O_3   0.695147 0.216960 0.689769 -0.471506
C2    C     C_3   0.738790 0.297513 0.754206 0.461689
H2    H     H_    0.634673 0.351109 0.770501 0.123550
H3    H     H_    0.826909 0.329542 0.735764 0.042902
C3    C     C_3   0.809708 0.270000 0.832532 -0.905165
H4    H     H_    0.725946 0.237912 0.853647 0.296099
H5    H     H_    0.915919 0.217890 0.818366 0.283591
C4    C     C_3   0.531847 0.209782 0.271784 0.559921
H6    H     H_    0.417021 0.254782 0.274884 0.034293
C5    C     C_3   0.541360 0.136790 0.183761 -0.157388
H7    H     H_    0.659686 0.095995 0.179465 0.196192
H8    H     H_    0.457736 0.086836 0.174193 0.130195
Ba1   Ba    Ba6+2 0.364960 0.465930 0.541880 1.645757
C6    C     C_3   0.650702 0.774244 0.689152 0.227247
H9    H     H_    0.615984 0.774834 0.623144 0.153610
H10   H     H_    0.766500 0.731408 0.692069 0.091698
C7    C     C_3   0.663983 0.874782 0.747445 -0.106894
H11   H     H_    0.642029 0.881649 0.812746 0.189876
H12   H     H_    0.783769 0.889573 0.750130 0.097244
C8    C     C_3   0.031680 0.272603 0.278662 0.184182
H13   H     H_    0.038663 0.347550 0.286504 0.132130
H14   H     H_    0.929721 0.266724 0.306824 0.154872
C9    C     C_3   0.017277 0.216932 0.183749 -0.099241
H15   H     H_    0.134772 0.200432 0.161947 0.218926
P4    P     P_3+3 0.599780 0.382500 0.299810 0.467537
O12   O     O_2   0.763420 0.406520 0.286530 -0.386411
O13   O     O_3   0.541980 0.429670 0.395140 -0.391829
O14   O     O_3   0.985790 0.582400 0.342040 -0.409832
O15   O     O_3   0.657379 0.262364 0.291274 -0.613271
P5    P     P_3+3 0.520007 0.764785 0.416435 0.457187
O16   O     O_3   0.119470 0.618230 0.545790 -0.357908
O17   O     O_3   0.574000 0.638040 0.386500 -0.408062
O18   O     O_2   0.640274 0.815799 0.483735 -0.375206
O19   O     O_3   0.539073 0.794540 0.324499 -0.496737
Ba2   Ba    Ba6+2 0.824870 0.533990 0.458110 1.590314
P6    P     P_3+3 0.204090 0.454034 0.769007 0.479877
C10   C     C_3   0.237888 0.286524 0.788381 0.534084
H16   H     H_    0.137055 0.308184 0.826616 0.009865
H17   H     H_    0.298496 0.139536 0.786636 0.180797
O20   O     O_3   0.070240 0.381690 0.454200 -0.415357
C11   C     C_3   0.131499 0.831728 0.731184 0.101982
H18   H     H_    0.251837 0.797558 0.719231 0.172090
H19   H     H_    0.103466 0.893952 0.707596 0.113006
C12   C     C_3   0.119044 0.868947 0.827242 0.150049
H20   H     H_    0.008390 0.917815 0.838767 0.094407
P7    P     P_3+3 0.025925 0.736528 0.581095 0.444546
O21   O     O_2   0.845720 0.730180 0.545110 -0.381856
O22   O     O_3   0.027954 0.765807 0.691184 -0.588253
H21   H     H_    0.840938 0.333609 0.884258 0.207390
C13   C     C_3   0.467297 0.730239 0.253192 0.068860
H22   H     H_    0.495405 0.658201 0.257605 0.152383
H23   H     H_    0.344337 0.758505 0.254117 0.119842
C14   C     C_3   0.499802 0.716761 0.160799 0.286679
P8    P     P_3+3 0.982171 0.542594 0.228700 0.514408
C15   C     C_3   0.979606 0.730655 0.244752 0.466772
O23   O     O_2   0.840095 0.490852 0.191726 -0.319177
O24   O     O_3   0.963143 0.639512 0.184670 -0.499912
C16   C     C_3   0.977654 0.814713 0.204716 0.372761
C17   C     C_2   0.272479 0.431111 0.236551 -0.459537
C18   C     C_R   0.897911 0.546617 0.758183 -0.528709
C19   C     C_2   0.473550 0.398407 0.140507 -0.102887
C20   C     C_2   0.439824 0.407355 0.218168 0.187598
C21   C     C_2   0.157921 0.462153 0.183385 0.243449
C22   C     C_3   0.202468 0.471344 0.101696 -0.173313
C23   C     C_3   0.348490 0.405313 0.070035 0.321329
C24   C     C_2   0.073291 0.480906 0.031356 -0.077475
C25   C     C_2   0.103179 0.492468 0.958692 -0.185101
C26   C     C_R   0.841676 0.577908 0.922324 0.162093
C27   C     C_R   0.981655 0.521612 0.895250 -0.154627
C28   C     C_R   0.726715 0.611414 0.866661 0.191066
C29   C     C_R   0.747303 0.585672 0.780680 0.088969
C30   C     C_R   0.012186 0.508386 0.811110 0.185407
H24   H     H_    0.592246 0.378836 0.125079 0.170829
H25   H     H_    0.247126 0.435390 0.298979 0.158616
H26   H     H_    0.930035 0.552424 0.701129 0.181847
H27   H     H_    0.953525 0.487966 0.043446 0.206233
H28   H     H_    0.223569 0.483979 0.947185 0.182389
C31   C     C_R   0.263539 0.769126 0.502007 -0.421057
C32   C     C_R   0.340394 0.820893 0.469284 0.122483
C33   C     C_R   0.289226 0.918370 0.484164 0.278409
C34   C     C_R   0.138658 0.958040 0.510573 0.018779
C35   C     C_R   0.063892 0.902977 0.543441 -0.326860
C36   C     C_R   0.127975 0.810584 0.541923 0.202247
C37   C     C_R   0.912834 0.093826 0.533098 -0.071818
C38   C     C_R   0.844294 0.184803 0.533839 0.249940
C39   C     C_R   0.064676 0.202246 0.470233 0.241898
C40   C     C_R   0.128278 0.109086 0.466383 -0.105836
C41   C     C_R   0.060212 0.054592 0.503449 0.137684
C42   C     C_R   0.918631 0.237618 0.500786 -0.145030
H29   H     H_    0.850993 0.058092 0.560854 0.151190
H30   H     H_    0.229354 0.081501 0.433067 0.207245
H31   H     H_    0.954400 0.928392 0.569565 0.166020
H32   H     H_    0.309939 0.696313 0.496273 0.175779
N1    N     N_R   0.184117 0.248915 0.699372 0.193287
O25   O     O_R   0.064316 0.204507 0.680923 -0.523426
O26   O     O_R   0.279949 0.231033 0.642600 -0.315775
N2    N     N_R   0.502360 0.179869 0.116696 0.253181
O27   O     O_R   0.359405 0.215087 0.101595 -0.407348
O28   O     O_R   0.597025 0.160779 0.059272 -0.334781
N3    N     N_R   0.555948 0.944344 0.716781 0.278084
O29   O     O_R   0.606856 0.015577 0.707488 -0.329174
O30   O     O_R   0.407876 0.939281 0.703969 -0.377000
N4    N     N_2   0.913367 0.274816 0.138620 -0.098761
H33   H     H_    0.797440 0.270775 0.136601 0.239656
C43   C     C_3   0.960230 0.281113 0.061943 -0.710965
H34   H     H_    0.879452 0.336566 0.041353 0.234791
H35   H     H_    0.957965 0.213614 0.010056 0.264729
H36   H     H_    0.078816 0.300091 0.073346 0.267937
N5    N     N_2   0.956899 0.129194 0.170495 -0.099771
H37   H     H_    0.005376 0.094317 0.213723 0.228243
C44   C     C_3   0.946210 0.066238 0.084513 -0.777588
H38   H     H_    0.883697 0.007733 0.081256 0.277857
H39   H     H_    0.063865 0.038022 0.063380 0.252544
H40   H     H_    0.876834 0.101854 0.040537 0.287792
N6    N     N_2   0.123230 0.791870 0.861864 -0.089607
H41   H     H_    0.190503 0.729798 0.832705 0.259805
C45   C     C_3   0.977387 0.778273 0.882401 -0.833679
H42   H     H_    0.999668 0.728770 0.920372 0.262272
H43   H     H_    0.903468 0.748148 0.823797 0.238686
H44   H     H_    0.915259 0.846211 0.919966 0.264765
N7    N     N_R   0.245181 0.924172 0.869878 0.256553
O31   O     O_R   0.346668 0.898890 0.926070 -0.316113
O32   O     O_R   0.247715 0.004420 0.857605 -0.338566
N8    N     N_R   0.373667 0.229637 0.903956 0.263101
O33   O     O_R   0.263371 0.226180 0.945774 -0.349971
O34   O     O_R   0.507683 0.250545 0.943216 -0.369230
N9    N     N_R   0.623679 0.637716 0.134604 0.260190
O35   O     O_R   0.593904 0.555476 0.131078 -0.444041
O36   O     O_R   0.712486 0.637753 0.080053 -0.356038
N10   N     N_2   0.362356 0.686876 0.105106 -0.160311
H45   H     H_    0.320575 0.633734 0.117409 0.162191
C46   C     C_3   0.358864 0.667897 0.014958 -0.720736
H46   H     H_    0.243272 0.649997 0.983924 0.225606
H47   H     H_    0.447661 0.607508 0.988013 0.289746
H48   H     H_    0.373019 0.731990 0.001165 0.281651
N11   N     N_2   0.535009 0.803312 0.151484 -0.106453
H49   H     H_    0.549537 0.800175 0.091074 0.274223
C47   C     C_3   0.464362 0.895482 0.200668 -0.610677
H50   H     H_    0.428604 0.941269 0.159615 0.217743
H51   H     H_    0.548940 0.928229 0.253276 0.321918
H52   H     H_    0.360542 0.891817 0.227588 0.271942
N12   N     N_2   0.124587 0.729157 0.299269 -0.148530
H53   H     H_    0.148436 0.791485 0.343212 0.151641
C48   C     C_3   0.233865 0.646582 0.299293 -0.843107
H54   H     H_    0.329197 0.666300 0.338599 0.207332
H55   H     H_    0.270403 0.609076 0.236110 0.212624
H56   H     H_    0.215253 0.606789 0.339313 0.249816
N13   N     N_2   0.848805 0.756845 0.293289 -0.116689
H57   H     H_    0.756061 0.797030 0.271721 0.213463
C49   C     C_3   0.869207 0.772709 0.382576 -0.494931
H58   H     H_    0.830446 0.847870 0.416304 0.252186
H59   H     H_    0.985802 0.752184 0.407114 0.170472
H60   H     H_    0.811216 0.720661 0.393657 0.310755
N14   N     N_2   0.103762 0.793119 0.152466 -0.131657
H61   H     H_    0.096272 0.728148 0.107826 0.207520
C50   C     C_3   0.114636 0.862586 0.111245 -0.793743
H62   H     H_    0.224096 0.846842 0.082383 0.251790
H63   H     H_    0.111093 0.934454 0.156507 0.275516
H64   H     H_    0.020894 0.861555 0.059481 0.276967
N15   N     N_R   0.995023 0.903448 0.275521 0.212733
O37   O     O_R   0.129237 0.933175 0.300636 -0.482173
O38   O     O_R   0.880198 0.947288 0.320407 -0.376683
N16   N     N_R   0.835366 0.830175 0.150105 0.224730
O39   O     O_R   0.823261 0.772263 0.073802 -0.370521
O40   O     O_R   0.762944 0.915663 0.161474 -0.402151
N17   N     N_R   0.609851 0.687784 0.900325 0.250520
O41   O     O_R   0.649874 0.771452 0.936005 -0.333933
O42   O     O_R   0.466718 0.682327 0.869677 -0.386427
N18   N     N_R   0.402144 0.978797 0.491890 0.240148
O43   O     O_R   0.431507 0.041583 0.564229 -0.277079
O44   O     O_R   0.474603 0.972749 0.427995 -0.306812
N19   N     N_2   0.853236 0.331066 0.505905 -0.095698
H65   H     H_    0.737265 0.340348 0.484630 0.228689
C51   C     C_3   0.899429 0.397373 0.585752 -0.644224
H66   H     H_    0.799977 0.440070 0.614860 0.233464
H67   H     H_    0.965044 0.448397 0.577305 0.269625
H68   H     H_    0.961945 0.362139 0.632044 0.198076
N20   N     N_R   0.546467 0.156477 0.331715 0.241040
O45   O     O_R   0.435133 0.109956 0.330815 -0.370649
O46   O     O_R   0.683404 0.132009 0.365811 -0.378606

loop_
_geom_bond_atom_site_label_1
_geom_bond_atom_site_label_2
_geom_bond_distance
_ccdc_geom_bond_type
C37   C41   1.417700 A    
C50   H62   1.097425 S    
C12   N6    1.456560 S    
C3    H21   1.110574 S    
N12   H53   1.023576 S    
C51   H68   1.108401 S    
N8    O34   1.299485 A    
N14   H61   1.029479 S    
C33   C34   1.425647 A    
C27   C30   1.422755 A    
C46   H46   1.107427 S    
C15   N13   1.434655 S    
N2    O28   1.298100 A    
C35   C36   1.403769 A    
N15   O38   1.301676 A    
N17   O41   1.298415 A    
C11   H18   1.108895 S    
C50   H63   1.102912 S    
Ba1   O16   2.852836 S    
C49   H58   1.108523 S    
O19   C13   1.418241 S    
O7    Ba1   2.873680 S    
C1    N8    1.446271 S    
C17   H25   1.084874 S    
O2    Ba1   3.053960 S    
N13   C49   1.428777 S    
C45   H44   1.110372 S    
O6    C10   1.410290 S    
C6    C7    1.530490 S    
P2    O10   1.754512 S    
N1    O26   1.299690 A    
C31   H32   1.081899 S    
C9    H15   1.108481 S    
P3    O9    1.541522 D    
C33   N18   1.431791 S    
C13   H23   1.090453 S    
N3    O29   1.300477 A    
C12   N7    1.464544 S    
C38   C42   1.401287 A    
C2    C3    1.520725 S    
C25   H28   1.083490 S    
N18   O43   1.298426 A    
P8    O23   1.536517 D    
P1    O1    1.610625 D    
P5    O17   1.808429 S    
P7    O22   1.754717 S    
N4    H33   1.027950 S    
C5    N2    1.447903 S    
N10   C46   1.443940 S    
Ba1   Ba2   4.858550 S    
O2    Ba2   2.965281 S    
P7    C36   1.875848 S    
C11   H19   1.111388 S    
C45   H42   1.108430 S    
N3    O30   1.300369 A    
C17   C20   1.506593 S    
P1    Ba1   3.507350 S    
C44   H39   1.111165 S    
C4    H6    1.110608 S    
C48   H55   1.094460 S    
O8    Ba1   2.825607 S    
C14   N9    1.464958 S    
C35   H31   1.074490 S    
C47   H51   1.108285 S    
C1    C10   1.528721 S    
C18   H26   1.074229 S    
C43   H36   1.104405 S    
P4    O13   1.645017 S    
C12   H20   1.112578 S    
C49   H59   1.077388 S    
N14   C50   1.458131 S    
C4    N20   1.461695 S    
P8    C21   1.878820 S    
P7    O21   1.617711 D    
P5    C32   1.860283 S    
O10   C8    1.392774 S    
N2    O27   1.297107 A    
O3    Ba1   2.915359 S    
Ba1   O20   3.053950 S    
C43   H35   1.106314 S    
N10   H45   1.030689 S    
O17   Ba2   2.826259 S    
N17   O42   1.293183 A    
C37   H29   1.074187 S    
C50   H64   1.102910 S    
C48   H56   1.084217 S    
N9    O35   1.297818 A    
O3    P6    1.765367 S    
P1    O5    1.750898 S    
C39   C40   1.404278 A    
N16   O39   1.296929 A    
C46   H48   1.099360 S    
C19   C20   1.341161 D    
N7    O32   1.300692 A    
P6    C30   1.874546 S    
C22   C24   1.535321 S    
C21   C22   1.538479 S    
C1    H1    1.111946 S    
O16   P7    1.777080 S    
C44   H40   1.102344 S    
N20   O46   1.299004 A    
C5    H7    1.110750 S    
C28   C29   1.400046 A    
C15   O24   1.435130 S    
C51   H66   1.069251 S    
C24   C25   1.358605 D    
C4    O15   1.413015 S    
P3    C38   1.859743 S    
P1    O2    1.645007 S    
C8    H13   1.109780 S    
C7    H12   1.107940 S    
C16   N15   1.488804 S    
P8    O24   1.819172 S    
N6    C45   1.444020 S    
C6    H9    1.107970 S    
P3    O11   1.752786 S    
C18   C29   1.405114 A    
C48   H54   1.011286 S    
P5    O19   1.783350 S    
N11   H49   1.027509 S    
C13   C14   1.563034 S    
C34   C35   1.428423 A    
C8    C9    1.539542 S    
C15   C16   1.618212 S    
C2    H2    1.111988 S    
C11   O22   1.407021 S    
C32   C33   1.412327 A    
C31   C32   1.399419 A    
C47   H52   1.096842 S    
P2    O20   1.585312 S    
P2    O7    1.592856 D    
O13   Ba2   3.054780 S    
C16   N16   1.467229 S    
C18   C30   1.412126 A    
P4    O12   1.610952 D    
C26   C28   1.412556 A    
C3    H5    1.110137 S    
C13   H22   1.097679 S    
C39   C42   1.405827 A    
C25   C27   1.506080 S    
Ba2   O21   2.873890 S    
N9    O36   1.292312 A    
C26   C27   1.410873 A    
N12   C48   1.433373 S    
C16   N14   1.445150 S    
O12   Ba2   2.932221 S    
C10   H16   1.113205 S    
N5    C44   1.447966 S    
C4    C5    1.533833 S    
P5    O18   1.534886 D    
P2    Ba1   3.491284 S    
P1    C29   1.896997 S    
C42   N19   1.407360 S    
C19   H24   1.080485 S    
C28   N17   1.426797 S    
C8    H14   1.105693 S    
P4    C20   1.889148 S    
P2    C39   1.888241 S    
C19   C23   1.506809 S    
N7    O31   1.301664 A    
N16   O40   1.301884 A    
N8    O33   1.299546 A    
C11   C12   1.540859 S    
O14   Ba2   2.914690 S    
C49   H60   1.088277 S    
C5    H8    1.105992 S    
C46   H47   1.109610 S    
O16   Ba2   3.053050 S    
Ba2   O20   2.852186 S    
C37   C38   1.396913 A    
C1    H17   1.112035 S    
C15   N12   1.455211 S    
C7    H11   1.111736 S    
N6    H41   1.029688 S    
O6    P6    1.755275 S    
N19   H65   1.029716 S    
C6    H10   1.108928 S    
N15   O37   1.300614 A    
N1    O25   1.295597 A    
P3    O8    1.756846 S    
O11   C2    1.408990 S    
C10   N1    1.453425 S    
C44   H38   1.106008 S    
P4    Ba2   3.507949 S    
Ba1   O13   2.964654 S    
C2    H3    1.112940 S    
N18   O44   1.300636 A    
C40   H30   1.069797 S    
N11   C47   1.451118 S    
C7    N3    1.457430 S    
C40   C41   1.432935 A    
N4    C43   1.447976 S    
N19   C51   1.440288 S    
N13   H57   1.021567 S    
C22   C23   1.527138 S    
C24   H27   1.083717 S    
P4    O15   1.761129 S    
O5    C6    1.400566 S    
C3    H4    1.107157 S    
C45   H43   1.104710 S    
N20   O45   1.300829 A    
C17   C21   1.366475 D    
C34   C41   1.533572 S    
C14   N11   1.459292 S    
C43   H34   1.109133 S    
O4    P6    1.537802 D    
C9    N4    1.454393 S    
O1    Ba1   2.931757 S    
C51   H67   1.098285 S    
C47   H50   1.106131 S    
O14   P8    1.798054 S    
C31   C36   1.402354 A    
C9    N5    1.455354 S    
C14   N10   1.456361 S    
N5    H37   1.031694 S    
