data_mof_unit_29796.cif
_audit_creation_date              2013-03-05T16:05:18-0500
_audit_creation_method            fapswitch 2.2
_symmetry_space_group_name_H-M    P1
_symmetry_Int_Tables_number       1
_space_group_crystal_system       triclinic
_cell_length_a                    27.156841
_cell_length_b                    7.197921
_cell_length_c                    22.830991
_cell_angle_alpha                 90.280218
_cell_angle_beta                  101.651479
_cell_angle_gamma                 90.293723
_cell_volume                      4370.73981821

loop_
_atom_site_label
_atom_site_type_symbol
_atom_site_description
_atom_site_fract_x
_atom_site_fract_y
_atom_site_fract_z
_atom_type_partial_charge
O1    O     O_R   0.707300 0.594030 0.176840 -0.576572
O2    O     O_R   0.292700 0.405970 0.823160 -0.576830
O3    O     O_R   0.792700 0.094030 0.323160 -0.587656
O4    O     O_R   0.207300 0.905970 0.676840 -0.571992
O5    O     O_R   0.697330 0.262360 0.295660 -0.592062
O6    O     O_R   0.302670 0.737640 0.704340 -0.593322
O7    O     O_R   0.802670 0.762360 0.204340 -0.589730
O8    O     O_R   0.197330 0.237640 0.795660 -0.592821
C1    C     C_R   0.684805 0.432434 0.311812 0.902568
C2    C     C_R   0.315193 0.567568 0.688185 0.903922
C3    C     C_R   0.815295 0.932542 0.188359 0.913409
C4    C     C_R   0.184744 0.067465 0.811694 0.906412
O9    O     O_R   0.701410 0.264250 0.175600 -0.571641
O10   O     O_R   0.298590 0.735750 0.824400 -0.572951
O11   O     O_R   0.798590 0.764250 0.324400 -0.572379
O12   O     O_R   0.201410 0.235750 0.675600 -0.575987
O13   O     O_R   0.796800 0.094950 0.202240 -0.596823
O14   O     O_R   0.203200 0.905050 0.797760 -0.593615
O15   O     O_R   0.703200 0.594950 0.297760 -0.594370
O16   O     O_R   0.296800 0.405050 0.702240 -0.594078
C5    C     C_R   0.689858 0.431467 0.153206 0.912698
C6    C     C_R   0.310141 0.568533 0.846794 0.910450
C7    C     C_R   0.810390 0.932964 0.346570 0.925403
C8    C     C_R   0.189552 0.066640 0.653500 0.914361
O17   O     O_3   0.781290 0.427390 0.258880 -0.277942
O18   O     O_3   0.218710 0.572610 0.741120 -0.269757
O19   O     O_3   0.718710 0.927390 0.241120 -0.271079
O20   O     O_3   0.281290 0.072610 0.758880 -0.272776
V1    V     V_3+5 0.744190 0.152150 0.248350 1.189204
V2    V     V_3+5 0.255810 0.847850 0.751650 1.199848
V3    V     V_3+5 0.755810 0.652150 0.251650 1.191715
V4    V     V_3+5 0.244190 0.347850 0.748350 1.195564
C9    C     C_R   0.154855 0.056264 0.594738 -0.118032
C10   C     C_R   0.845583 0.936010 0.405103 -0.128506
C11   C     C_R   0.345141 0.569623 0.905457 -0.131506
C12   C     C_R   0.654853 0.430380 0.094546 -0.132416
C13   C     C_R   0.141954 0.070263 0.486996 -0.122564
C14   C     C_R   0.862217 0.845598 0.509022 -0.131607
C15   C     C_R   0.366787 0.706173 0.004399 -0.101383
C16   C     C_R   0.633200 0.293837 0.995605 -0.101879
C17   C     C_R   0.173647 0.085011 0.542970 -0.164490
C18   C     C_R   0.828543 0.872689 0.455195 -0.164599
C19   C     C_R   0.331385 0.667035 0.952682 -0.141404
C20   C     C_R   0.668607 0.332984 0.047317 -0.142100
C21   C     C_R   0.103555 0.013466 0.589948 -0.109392
C22   C     C_R   0.897222 0.972533 0.409571 -0.137994
C23   C     C_R   0.394483 0.501896 0.912097 -0.106826
C24   C     C_R   0.605510 0.498085 0.087916 -0.106450
C25   C     C_R   0.071075 0.984858 0.533169 0.136449
C26   C     C_R   0.933079 0.928336 0.462454 0.137899
C27   C     C_R   0.430654 0.530409 0.966160 0.137704
C28   C     C_R   0.569334 0.469569 0.033856 0.137618
C29   C     C_R   0.091055 0.021650 0.481675 0.117130
C30   C     C_R   0.914079 0.871463 0.512999 0.121024
C31   C     C_R   0.416611 0.646270 0.010268 0.129521
C32   C     C_R   0.583376 0.353716 0.989745 0.129965
C33   C     C_R   0.019215 0.928353 0.525648 -0.122377
C34   C     C_R   0.986766 0.941571 0.467518 -0.123557
C35   C     C_R   0.481264 0.461424 0.975988 -0.120991
C36   C     C_R   0.518722 0.538539 0.024035 -0.121101
C37   C     C_R   0.009776 0.958949 0.416903 0.364522
C38   C     C_R   0.998746 0.852038 0.573115 0.361283
C39   C     C_R   0.503965 0.681059 0.060362 0.355687
C40   C     C_R   0.496018 0.318885 0.939666 0.355824
C41   C     C_R   0.060785 0.003916 0.424882 -0.302607
C42   C     C_R   0.946817 0.831161 0.566610 -0.315830
C43   C     C_R   0.453061 0.717575 0.056868 -0.291235
C44   C     C_R   0.546922 0.282386 0.943153 -0.291934
H1    H     H_    0.077524 0.018639 0.385843 0.177971
H2    H     H_    0.931889 0.774256 0.603392 0.177867
H3    H     H_    0.442360 0.820090 0.086885 0.176298
H4    H     H_    0.557622 0.179864 0.913137 0.176159
H5    H     H_    0.908284 0.033403 0.371125 0.147901
H6    H     H_    0.089761 0.008554 0.631016 0.138495
H7    H     H_    0.595078 0.557903 0.127064 0.137078
H8    H     H_    0.404919 0.442053 0.872954 0.136907
H9    H     H_    0.789033 0.841715 0.452353 0.109245
H10   H     H_    0.212988 0.119097 0.545930 0.109472
H11   H     H_    0.706206 0.277435 0.051963 0.110236
H12   H     H_    0.293787 0.722601 0.948030 0.110875
H13   H     H_    0.157470 0.095215 0.447551 0.122742
H14   H     H_    0.847762 0.797948 0.547287 0.121749
H15   H     H_    0.355769 0.792172 0.038627 0.118095
H16   H     H_    0.644216 0.207845 0.961373 0.117460
C45   C     C_R   0.872638 0.117864 0.136507 -0.122161
C46   C     C_R   0.127491 0.882173 0.863691 -0.115779
C47   C     C_R   0.632502 0.617331 0.370341 -0.131707
C48   C     C_R   0.367504 0.382673 0.629665 -0.130561
H17   H     H_    0.859533 0.245402 0.153353 0.135491
H18   H     H_    0.140493 0.754642 0.846719 0.137883
H19   H     H_    0.649683 0.744643 0.358922 0.133607
H20   H     H_    0.350338 0.255353 0.641105 0.133465
C49   C     C_R   0.908343 0.130560 0.100278 -0.134779
C50   C     C_R   0.091893 0.869499 0.900064 -0.141312
C51   C     C_R   0.596784 0.629906 0.406528 -0.152007
C52   C     C_R   0.403215 0.370103 0.593468 -0.151652
H21   H     H_    0.921919 0.266836 0.091020 0.104667
H22   H     H_    0.078289 0.733256 0.909309 0.105042
H23   H     H_    0.588115 0.765721 0.422230 0.101965
H24   H     H_    0.411892 0.234282 0.577780 0.102049
C53   C     C_R   0.926754 0.969937 0.076984 0.116757
C54   C     C_R   0.073603 0.030128 0.923492 0.115226
C55   C     C_R   0.573409 0.469569 0.423282 0.117948
C56   C     C_R   0.426571 0.530448 0.576691 0.117891
C57   C     C_R   0.908800 0.795746 0.091580 -0.140456
C58   C     C_R   0.091595 0.204291 0.908933 -0.144648
C59   C     C_R   0.586834 0.295847 0.402737 -0.146758
C60   C     C_R   0.413132 0.704175 0.597219 -0.146691
H25   H     H_    0.921667 0.669072 0.073928 0.099574
H26   H     H_    0.078821 0.330951 0.926695 0.101969
H27   H     H_    0.569175 0.169508 0.414105 0.103766
H28   H     H_    0.430777 0.830523 0.585833 0.103626
C61   C     C_R   0.873075 0.782869 0.128021 -0.113711
C62   C     C_R   0.127222 0.217147 0.872362 -0.130901
C63   C     C_R   0.622710 0.283075 0.366484 -0.136448
C64   C     C_R   0.377261 0.716943 0.633478 -0.136174
H29   H     H_    0.859834 0.646504 0.137734 0.125971
H30   H     H_    0.140497 0.353489 0.862680 0.129825
H31   H     H_    0.631996 0.147025 0.351563 0.134064
H32   H     H_    0.367962 0.852997 0.648383 0.133770
C65   C     C_R   0.854258 0.943944 0.150773 -0.119678
C66   C     C_R   0.145889 0.056076 0.849428 -0.127336
C67   C     C_R   0.646115 0.443800 0.349776 -0.125617
C68   C     C_R   0.353877 0.556208 0.650213 -0.125450
C69   C     C_R   0.003549 0.855683 0.041576 -0.145089
C70   C     C_R   0.996854 0.144459 0.958955 -0.150228
C71   C     C_R   0.533746 0.351974 0.506993 -0.166139
C72   C     C_R   0.466233 0.648043 0.492976 -0.165639
H33   H     H_    0.007488 0.744483 0.073919 0.124147
H34   H     H_    0.992915 0.255655 0.926611 0.120611
H35   H     H_    0.560074 0.237898 0.514049 0.114555
H36   H     H_    0.439905 0.762117 0.485919 0.114942
C73   C     C_R   0.038920 0.870744 0.004854 -0.168212
C74   C     C_R   0.961479 0.129381 0.995669 -0.168427
C75   C     C_R   0.498727 0.367527 0.544139 -0.157934
C76   C     C_R   0.501253 0.632493 0.455831 -0.157713
H37   H     H_    0.069050 0.770496 0.009987 0.114429
H38   H     H_    0.931342 0.229603 0.990514 0.112896
H39   H     H_    0.499059 0.264625 0.578642 0.118188
H40   H     H_    0.500924 0.735397 0.421330 0.118479
C77   C     C_R   0.036065 0.015276 0.962978 0.103912
C78   C     C_R   0.964330 0.984849 0.037545 0.102646
C79   C     C_R   0.464437 0.515715 0.537642 0.103610
C80   C     C_R   0.535543 0.484302 0.462328 0.103561
N1    N     N_R   0.984724 0.902150 0.357962 0.222371
O21   O     O_R   0.961379 0.742771 0.350195 -0.394547
O22   O     O_R   0.992223 0.993035 0.311366 -0.396101
N2    N     N_R   0.029730 0.766221 0.624161 0.223054
O23   O     O_R   0.064630 0.650392 0.616674 -0.396870
O24   O     O_R   0.017924 0.779048 0.676514 -0.406011
N3    N     N_R   0.539577 0.807854 0.094872 0.225567
O25   O     O_R   0.532651 0.869657 0.146246 -0.410460
O26   O     O_R   0.573909 0.885615 0.070631 -0.399235
N4    N     N_R   0.460404 0.192048 0.905178 0.225560
O27   O     O_R   0.426062 0.114398 0.929427 -0.399225
O28   O     O_R   0.467340 0.130085 0.853825 -0.410995

loop_
_geom_bond_atom_site_label_1
_geom_bond_atom_site_label_2
_geom_bond_distance
_ccdc_geom_bond_type
O17   V3    1.758210 S    
C48   C52   1.398395 A    
O1    C5    1.330252 A    
C47   H19   1.082828 S    
O19   V1    1.750176 S    
C9    C21   1.407640 A    
C16   H16   1.083987 S    
O3    C7    1.329884 A    
C10   C18   1.395179 A    
C73   H37   1.082631 S    
C48   C68   1.409391 A    
C11   C23   1.407660 A    
C55   C80   1.494628 S    
N1    O21   1.301753 A    
C25   C33   1.440190 A    
C33   C38   1.425194 A    
C5    C12   1.477489 S    
C75   H39   1.082642 S    
C6    C11   1.477489 S    
C35   C40   1.425116 A    
C26   C30   1.417210 A    
C58   C62   1.402837 A    
C36   C39   1.425124 A    
C40   C44   1.394943 A    
C57   C61   1.402851 A    
C71   C75   1.400766 A    
C23   H8    1.079009 S    
C14   C18   1.390962 A    
C2    C68   1.493314 S    
C72   C76   1.400769 A    
C58   H26   1.082785 S    
O4    C8    1.327304 A    
C51   H23   1.082872 S    
C44   H4    1.084582 S    
C43   H3    1.084580 S    
C70   H34   1.082646 S    
C40   N4    1.437091 S    
O1    V3    1.976419 S    
O13   V1    1.982003 S    
O2    V4    1.976421 S    
O3    V1    1.982806 S    
C37   N1    1.436273 S    
C46   C50   1.398787 A    
C45   C49   1.398736 A    
C1    O15   1.335387 A    
C15   C31   1.402825 A    
C48   H20   1.082829 S    
C2    O16   1.335393 A    
C16   C32   1.402824 A    
C47   C51   1.398398 A    
O2    C6    1.330253 A    
N3    O25   1.301489 A    
C45   C65   1.409132 A    
C10   C22   1.408653 A    
C54   C77   1.494776 S    
C11   C19   1.397028 A    
C16   C20   1.390422 A    
N4    O28   1.301517 A    
C76   H40   1.082644 S    
C13   C29   1.405226 A    
C34   C37   1.426111 A    
O11   C7    1.325937 A    
O15   V3    1.981092 S    
C35   C36   1.443499 A    
O12   C8    1.328274 A    
C38   N2    1.436687 S    
C14   H14   1.083996 S    
C24   H7    1.079003 S    
C13   H13   1.083930 S    
C3    C65   1.493077 S    
O10   V2    2.000714 S    
C72   H36   1.082654 S    
N1    O22   1.301576 A    
C51   C55   1.405721 A    
O5    V1    1.993136 S    
C53   C57   1.408629 A    
C39   C43   1.394946 A    
C63   C67   1.408057 A    
C38   C42   1.395123 A    
C26   C34   1.441689 A    
O7    V3    1.992148 S    
N2    O23   1.301812 A    
C4    C66   1.493091 S    
C46   H18   1.082849 S    
C49   C53   1.405991 A    
C17   H10   1.083608 S    
C45   H17   1.082842 S    
O18   V4    1.758210 S    
C23   C27   1.426988 A    
C19   H12   1.083773 S    
C32   C44   1.392579 A    
C64   H32   1.082872 S    
C21   H6    1.078305 S    
O8    V4    1.992150 S    
O7    C3    1.342301 A    
O5    C1    1.341940 A    
C37   C41   1.396337 A    
C74   C78   1.408204 A    
C53   C78   1.494855 S    
C31   C43   1.392574 A    
C14   C30   1.404261 A    
C21   C25   1.426389 A    
C69   C78   1.406628 A    
O8    C4    1.342335 A    
C7    C10   1.477631 S    
C59   C63   1.403060 A    
C56   C79   1.494648 S    
O9    C5    1.324237 A    
C39   N3    1.437062 S    
N4    O27   1.301880 A    
C62   H30   1.082876 S    
C61   H29   1.082867 S    
O6    V2    1.993136 S    
C63   H31   1.082870 S    
C52   C56   1.405728 A    
C69   H33   1.082638 S    
O14   V2    1.981997 S    
C12   C20   1.397024 A    
C27   C35   1.438560 A    
O9    V1    2.000711 S    
C49   H21   1.082849 S    
C56   C60   1.408749 A    
C29   C41   1.392859 A    
O16   V4    1.981094 S    
C69   C73   1.400890 A    
C57   H25   1.082771 S    
C3    O13   1.336396 A    
C64   C68   1.408058 A    
C59   H27   1.082788 S    
C20   H11   1.083769 S    
N2    O24   1.301549 A    
C74   H38   1.082624 S    
C15   C19   1.390425 A    
O11   V3    1.989324 S    
C30   C42   1.392603 A    
O12   V4    1.989325 S    
C22   C26   1.428019 A    
C70   C77   1.406569 A    
C73   C77   1.408178 A    
C8    C9    1.476805 S    
C9    C17   1.394672 A    
C60   C64   1.403058 A    
O20   V2    1.750178 S    
C15   H15   1.083988 S    
C76   C80   1.408130 A    
C47   C67   1.409395 A    
O10   C6    1.324236 A    
C33   C34   1.441066 A    
C42   H2    1.084667 S    
C41   H1    1.084606 S    
C52   H24   1.082870 S    
C75   C79   1.408138 A    
C1    C67   1.493316 S    
C12   C24   1.407663 A    
C27   C31   1.416046 A    
C71   C80   1.406625 A    
N3    O26   1.301921 A    
C13   C17   1.392341 A    
C46   C66   1.409179 A    
C72   C79   1.406637 A    
C71   H35   1.082655 S    
C25   C29   1.416315 A    
O6    C2    1.341930 A    
C62   C66   1.408042 A    
C60   H28   1.082787 S    
C24   C28   1.426990 A    
C61   C65   1.408034 A    
C70   C74   1.400820 A    
C18   H9    1.083717 S    
C28   C36   1.438574 A    
C54   C58   1.408605 A    
C4    O14   1.336362 A    
C50   H22   1.082857 S    
C55   C59   1.408740 A    
C22   H5    1.077777 S    
O4    V2    1.982805 S    
C28   C32   1.416055 A    
C50   C54   1.405977 A    
