data_mof_unit_18885.cif
_audit_creation_date              2012-12-10T17:36:21-0500
_audit_creation_method            fapswitch 2.2
_symmetry_space_group_name_H-M    P1
_symmetry_Int_Tables_number       1
_space_group_crystal_system       triclinic
_cell_length_a                    12.330289
_cell_length_b                    13.172875
_cell_length_c                    15.861638
_cell_angle_alpha                 77.613223
_cell_angle_beta                  101.232789
_cell_angle_gamma                 116.627058
_cell_volume                      2235.07576985

loop_
_atom_site_label
_atom_site_type_symbol
_atom_type_description
_atom_site_fract_x
_atom_site_fract_y
_atom_site_fract_z
_atom_type_partial_charge
C1    C     C_R   0.854890 0.286557 0.507137 0.772162
C2    C     C_3   0.059107 0.417451 0.072440 -0.111165
C3    C     C_3   0.999413 0.495983 0.083654 0.291204
C4    C     C_3   0.074691 0.618942 0.038689 -0.418527
C5    C     C_3   0.075464 0.617852 0.941337 -0.378128
C6    C     C_1   0.999941 0.498662 0.175513 -0.105043
C7    C     C_1   0.997727 0.495707 0.825392 -0.106749
C8    C     C_1   0.997998 0.497286 0.749537 -0.184365
C9    C     C_R   0.275785 0.021659 0.383134 -0.196708
C10   C     C_R   0.228056 0.834757 0.468854 -0.046371
C11   C     C_R   0.815421 0.084510 0.562117 -0.192827
C12   C     C_R   0.999320 0.499163 0.659671 0.824353
C13   C     C_R   0.736633 0.969298 0.578358 -0.149774
C14   C     C_R   0.613307 0.931842 0.548073 -0.184554
C15   C     C_R   0.566634 0.009206 0.497390 0.077596
C16   C     C_R   0.650158 0.123927 0.472118 0.082896
C17   C     C_R   0.440028 0.976169 0.470056 0.071937
C18   C     C_R   0.400450 0.053603 0.410918 0.169208
C19   C     C_R   0.485826 0.161000 0.378593 -0.245087
C20   C     C_R   0.608890 0.195195 0.407776 -0.197274
C21   C     C_R   0.351157 0.868642 0.500479 -0.255596
C22   C     C_R   0.189865 0.912313 0.411533 -0.200210
C23   C     C_R   0.145095 0.713488 0.487220 0.793347
C24   C     C_R   0.773062 0.163422 0.511159 -0.098665
C25   C     C_R   0.345058 0.326630 0.636869 -0.305158
C26   C     C_R   0.760631 0.646722 0.384111 0.076442
C27   C     C_R   0.664847 0.679329 0.358916 -0.263340
C28   C     C_R   0.560897 0.623908 0.402421 -0.193351
C29   C     C_R   0.551685 0.534841 0.472295 -0.006944
C30   C     C_R   0.652721 0.504868 0.496099 0.287695
C31   C     C_R   0.446881 0.474933 0.519646 -0.039321
C32   C     C_R   0.445656 0.386790 0.589331 0.177125
C33   C     C_R   0.545014 0.359397 0.611654 -0.283691
C34   C     C_R   0.000355 0.500324 0.340428 0.822999
C35   C     C_R   0.646350 0.417475 0.566452 -0.178341
C36   C     C_R   0.342446 0.498259 0.501372 0.017885
C37   C     C_R   0.245728 0.353911 0.615717 0.072143
C38   C     C_3   0.053927 0.413953 0.973958 -0.410229
C39   C     C_3   0.866514 0.452640 0.939805 -0.385560
C40   C     C_3   0.867246 0.455406 0.037072 -0.378438
C41   C     C_1   0.000317 0.499776 0.250913 -0.175818
C42   C     C_3   0.998402 0.494920 0.917864 0.313214
Cu1   Cu    Cu3+1 0.098280 0.475420 0.519630 0.932333
Cu2   Cu    Cu3+1 0.901720 0.524580 0.480370 0.920485
H1    H     H_    0.148020 0.441829 0.957800 0.151370
H2    H     H_    0.157933 0.461450 0.096116 0.114591
H3    H     H_    0.035079 0.677842 0.044746 0.171164
H4    H     H_    0.094713 0.887016 0.386053 0.144139
H5    H     H_    0.457377 0.219106 0.330584 0.143606
H6    H     H_    0.245255 0.080172 0.337533 0.128981
H7    H     H_    0.375137 0.808470 0.548522 0.147787
H8    H     H_    0.909349 0.112233 0.591305 0.149868
H9    H     H_    0.557734 0.841285 0.563691 0.129908
H10   H     H_    0.770643 0.909007 0.617053 0.140862
H11   H     H_    0.000369 0.325704 0.957176 0.160056
H12   H     H_    0.671066 0.277055 0.377138 0.176964
H13   H     H_    0.167670 0.307795 0.652099 0.119874
H14   H     H_    0.544866 0.292466 0.665188 0.148892
H15   H     H_    0.343399 0.259062 0.690163 0.133268
H16   H     H_    0.335270 0.563512 0.449541 0.123190
H17   H     H_    0.841005 0.690270 0.350014 0.121558
H18   H     H_    0.489585 0.652677 0.380168 0.134115
H19   H     H_    0.671224 0.747816 0.305506 0.137007
H20   H     H_    0.718122 0.391104 0.589583 0.205541
H21   H     H_    0.823797 0.508141 0.899077 0.167035
H22   H     H_    0.809685 0.363819 0.924669 0.154255
H23   H     H_    0.806554 0.369868 0.068846 0.164598
H24   H     H_    0.828508 0.515317 0.042335 0.162965
H25   H     H_    0.171180 0.649422 0.927214 0.161940
H26   H     H_    0.038130 0.677721 0.900851 0.165942
H27   H     H_    0.170196 0.653407 0.070862 0.159056
N1    N     N_R   0.246300 0.438200 0.549400 -0.178751
N2    N     N_R   0.754300 0.561180 0.451130 -0.205238
O1    O     O_R   0.972520 0.318130 0.524690 -0.580203
O2    O     O_R   0.806530 0.359650 0.491530 -0.604856
O3    O     O_R   0.083030 0.479240 0.637150 -0.575613
O4    O     O_R   0.917040 0.520750 0.603990 -0.591313
O5    O     O_R   0.193470 0.640350 0.508470 -0.587021
O6    O     O_R   0.027480 0.681870 0.475310 -0.587109
O7    O     O_R   0.082960 0.479250 0.396010 -0.576296
O8    O     O_R   0.916970 0.520760 0.362850 -0.588840
C43   C     C_R   0.009744 0.298673 0.127122 0.132346
C44   C     C_R   0.077439 0.277822 0.205958 -0.154668
C45   C     C_R   0.032985 0.171542 0.258973 -0.128090
C46   C     C_R   0.920901 0.084279 0.233916 -0.110763
C47   C     C_R   0.852962 0.103246 0.155831 -0.146880
C48   C     C_R   0.896678 0.209578 0.102726 -0.147223
H28   H     H_    0.164109 0.344507 0.227248 0.116581
H29   H     H_    0.085273 0.157069 0.319773 0.127041
H30   H     H_    0.886633 0.002012 0.275038 0.118392
H31   H     H_    0.766070 0.035472 0.136437 0.121777
H32   H     H_    0.841945 0.221323 0.042660 0.116402

loop_
_geom_bond_atom_site_label_1
_geom_bond_atom_site_label_2
_ccdc_geom_bond_type
C22   H4    S    
C5    C42   S    
C33   H14   S    
C19   C20   A    
C20   H12   S    
C3    C6    S    
C7    C8    T    
C46   C47   A    
C10   C22   A    
Cu1   O5    S    
C26   C27   A    
Cu1   N1    S    
C30   C35   A    
C1    O1    A    
C28   C29   A    
C26   H17   S    
C38   C42   S    
C47   H31   S    
C9    C22   A    
C15   C16   A    
C11   C24   A    
C26   N2    A    
C18   C19   A    
C7    C42   S    
C2    C38   S    
C38   H1    S    
C5    H25   S    
C11   H8    S    
C2    H2    S    
C34   O7    A    
C38   H11   S    
C44   C45   A    
C6    C41   T    
C35   H20   S    
C34   O8    A    
C16   C20   A    
C25   C37   A    
Cu1   O1    S    
C44   H28   S    
C16   C24   A    
C48   H32   S    
C39   H21   S    
C34   C41   S    
C39   C42   S    
C10   C21   A    
C1    O2    A    
C45   C46   A    
Cu2   O8    S    
C39   C40   S    
C30   N2    A    
C47   C48   A    
Cu1   O7    S    
C40   H23   S    
C17   C21   A    
Cu2   O2    S    
Cu1   Cu2   S    
C29   C30   A    
C19   H5    S    
C31   C32   A    
C8    C12   S    
C12   O4    A    
C17   C18   A    
C27   H19   S    
C3    C40   S    
C12   O3    A    
C39   H22   S    
C2    C43   S    
C45   H29   S    
C3    C4    S    
C21   H7    S    
C13   H10   S    
Cu1   O3    S    
C15   C17   A    
Cu2   O4    S    
C14   C15   A    
Cu2   O6    S    
C9    H6    S    
C4    C5    S    
C36   H16   S    
C5    H26   S    
C46   H30   S    
C10   C23   S    
C32   C33   A    
C2    C3    S    
C29   C31   A    
C11   C13   A    
C25   C32   A    
C33   C35   A    
C23   O5    A    
Cu2   N2    S    
C36   N1    A    
C9    C18   A    
C14   H9    S    
C1    C24   S    
C43   C44   A    
C40   H24   S    
C37   N1    A    
C27   C28   A    
C31   C36   A    
C25   H15   S    
C23   O6    A    
C13   C14   A    
C4    H27   S    
C37   H13   S    
C43   C48   A    
C4    H3    S    
C28   H18   S    
