data_mof_unit_34491.cif
_audit_creation_date              2012-12-11T15:47:03-0500
_audit_creation_method            fapswitch 2.2
_symmetry_space_group_name_H-M    P1
_symmetry_Int_Tables_number       1
_space_group_crystal_system       triclinic
_cell_length_a                    20.218841
_cell_length_b                    7.242614
_cell_length_c                    13.59794
_cell_angle_alpha                 90.001181
_cell_angle_beta                  103.225108
_cell_angle_gamma                 89.998886
_cell_volume                      1938.43476222

loop_
_atom_site_label
_atom_site_type_symbol
_atom_type_description
_atom_site_fract_x
_atom_site_fract_y
_atom_site_fract_z
_atom_type_partial_charge
O1    O     O_R   0.449560 0.506810 0.599700 -0.542196
O2    O     O_R   0.550440 0.006810 0.400300 -0.542200
O3    O     O_R   0.587960 0.180060 0.595760 -0.515330
O4    O     O_R   0.412040 0.680060 0.404240 -0.515342
C1    C     C_R   0.613928 0.344349 0.619631 0.770409
C2    C     C_R   0.386071 0.844350 0.380371 0.770395
O5    O     O_R   0.452380 0.177430 0.611700 -0.535088
O6    O     O_R   0.547620 0.677430 0.388300 -0.535090
O7    O     O_R   0.413900 0.001890 0.416350 -0.543820
O8    O     O_R   0.586100 0.501890 0.583650 -0.543800
C3    C     C_R   0.436709 0.345759 0.637774 0.684672
C4    C     C_R   0.563286 0.845756 0.362221 0.684681
O9    O     O_3   0.487530 0.337490 0.435890 -0.369756
O10   O     O_3   0.512470 0.837490 0.564110 -0.369722
V1    V     V_3+5 0.502310 0.064660 0.511890 1.548449
V2    V     V_3+5 0.497690 0.564660 0.488110 1.548453
C5    C     C_R   0.608137 0.786867 0.112762 -0.068919
C6    C     C_R   0.391866 0.287251 0.887254 -0.068931
H1    H     H_    0.514898 0.801448 0.162029 0.141502
H2    H     H_    0.485094 0.301854 0.837962 0.141374
H3    H     H_    0.581077 0.756856 0.036244 0.156708
H4    H     H_    0.418931 0.257478 0.963778 0.156917
C7    C     C_R   0.601892 0.851691 0.283972 -0.045265
C8    C     C_R   0.398101 0.351715 0.716022 -0.045232
C9    C     C_R   0.927003 0.929591 0.311170 0.330764
C10   C     C_R   0.072998 0.429575 0.688831 0.330756
C11   C     C_R   0.889309 0.970614 0.382495 0.453790
C12   C     C_R   0.110698 0.470670 0.617528 0.453790
C13   C     C_R   0.819144 0.948977 0.358479 -0.235894
C14   C     C_R   0.180864 0.449055 0.641554 -0.235899
C15   C     C_R   0.784750 0.870813 0.265580 -0.016952
C16   C     C_R   0.215255 0.370860 0.734438 -0.016964
C17   C     C_R   0.823615 0.815239 0.195509 -0.035873
C18   C     C_R   0.176393 0.315293 0.804506 -0.035857
C19   C     C_R   0.712733 0.846989 0.240385 0.114404
C20   C     C_R   0.287271 0.347053 0.759630 0.114390
C21   C     C_R   0.679839 0.787802 0.141402 0.006286
C22   C     C_R   0.320171 0.288031 0.858627 0.006302
C23   C     C_R   0.719073 0.718668 0.076156 -0.059319
C24   C     C_R   0.280946 0.218923 0.923894 -0.059499
C25   C     C_R   0.790153 0.714214 0.109303 0.353382
C26   C     C_R   0.209867 0.214358 0.890734 0.353438
C27   C     C_R   0.672270 0.874283 0.311419 -0.173417
C28   C     C_R   0.327724 0.374215 0.688579 -0.173488
C29   C     C_R   0.569683 0.815288 0.184012 -0.142505
C30   C     C_R   0.430312 0.315566 0.815985 -0.142562
C31   C     C_R   0.894528 0.860039 0.215527 -0.187382
C32   C     C_R   0.105475 0.360034 0.784476 -0.187389
H5    H     H_    0.694137 0.900054 0.390258 0.107776
H6    H     H_    0.305847 0.399829 0.609738 0.107806
H7    H     H_    0.792941 0.996867 0.414233 0.168203
H8    H     H_    0.207077 0.497029 0.585835 0.168200
C33   C     C_R   0.205944 0.991199 0.262025 0.419613
C34   C     C_R   0.794040 0.491265 0.738017 0.419624
C35   C     C_R   0.271534 0.984800 0.323428 -0.185198
C36   C     C_R   0.728447 0.484881 0.676624 -0.185027
H9    H     H_    0.285749 0.084282 0.384163 0.172807
H10   H     H_    0.714220 0.584432 0.615925 0.172832
C37   C     C_R   0.318299 0.850865 0.309289 -0.249018
C38   C     C_R   0.681700 0.350859 0.690715 -0.249030
C39   C     C_R   0.299261 0.724336 0.228569 0.346788
C40   C     C_R   0.700757 0.224234 0.771383 0.346634
C41   C     C_R   0.233038 0.728653 0.166230 0.367714
C42   C     C_R   0.766977 0.228558 0.833727 0.367680
C43   C     C_R   0.184727 0.859610 0.183748 -0.244278
C44   C     C_R   0.815273 0.359606 0.816255 -0.244359
O11   O     O_R   0.913920 0.203370 0.916260 -0.524416
O12   O     O_R   0.086080 0.703370 0.083740 -0.524446
O13   O     O_R   0.047620 0.535540 0.888290 -0.523830
O14   O     O_R   0.952380 0.035540 0.111710 -0.523817
C45   C     C_R   0.067053 0.367908 0.865493 0.819227
C46   C     C_R   0.932946 0.867910 0.134504 0.819250
O15   O     O_R   0.912040 0.532780 0.904220 -0.503466
O16   O     O_R   0.087960 0.032780 0.095780 -0.503460
O17   O     O_R   0.949550 0.708160 0.099720 -0.517009
O18   O     O_R   0.050450 0.208160 0.900280 -0.517008
C47   C     C_R   0.885528 0.364936 0.882323 0.863659
C48   C     C_R   0.114471 0.864936 0.117679 0.863670
O19   O     O_3   0.012480 0.375300 0.064060 -0.367453
O20   O     O_3   0.987520 0.875300 0.935940 -0.367448
V3    V     V_3+5 0.997690 0.648180 0.988110 1.786917
V4    V     V_3+5 0.002310 0.148180 0.011890 1.786954
Cl1   Cl    Cl    0.359314 0.567260 0.199817 -0.576412
Cl2   Cl    Cl    0.640726 0.067014 0.800079 -0.576172
Cl3   Cl    Cl    0.213740 0.577169 0.061406 -0.540338
Cl4   Cl    Cl    0.786290 0.076943 0.938495 -0.540174
C49   C     C_2   0.687139 0.627795 0.978565 0.894919
O21   O     O_2   0.707275 0.664810 0.902667 -0.495713
O22   O     O_R   0.636421 0.494739 0.974361 -0.659841
H11   H     H_    0.619160 0.443186 0.903834 0.306870
C50   C     C_2   0.312888 0.128239 0.021542 0.895451
O23   O     O_2   0.292638 0.165008 0.097359 -0.495744
O24   O     O_R   0.363752 0.995639 0.025904 -0.659997
H12   H     H_    0.381008 0.944191 0.096452 0.306787
Cl5   Cl    Cl    0.015651 0.966248 0.342441 -0.444276
Cl6   Cl    Cl    0.984345 0.466196 0.657547 -0.444300
Cl7   Cl    Cl    0.928509 0.058958 0.502364 -0.407068
Cl8   Cl    Cl    0.071503 0.559110 0.497688 -0.407092
Cl9   Cl    Cl    0.830305 0.521545 0.069539 -0.610785
Cl10  Cl    Cl    0.169737 0.021692 0.930538 -0.610735
Cl11  Cl    Cl    0.152879 0.168389 0.288726 -0.494317
Cl12  Cl    Cl    0.847094 0.668496 0.711336 -0.494319

loop_
_geom_bond_atom_site_label_1
_geom_bond_atom_site_label_2
_ccdc_geom_bond_type
C14   C16   A    
C49   O21   D    
C41   C43   A    
O24   H12   S    
C7    C29   A    
C35   C37   A    
C11   C13   A    
O11   C47   A    
C23   C49   S    
O2    C4    A    
C2    O7    A    
O3    V1    S    
C23   C25   A    
O5    C3    A    
C4    C7    S    
O12   V3    S    
C16   C20   A    
C19   C21   A    
C5    C29   A    
C45   O18   A    
C12   Cl8   S    
C3    C8    S    
C7    C27   A    
C38   C40   A    
C42   Cl4   S    
O13   C45   A    
C40   Cl2   S    
C33   Cl11  S    
C18   C26   A    
O1    C3    A    
C40   C42   A    
C25   Cl9   S    
C36   H10   S    
C19   C27   A    
C9    C31   A    
C10   C32   A    
O5    V1    S    
O6    V2    S    
C41   Cl3   S    
O12   C48   A    
O16   V4    S    
C46   O17   A    
C6    C30   A    
O15   V3    S    
C33   C35   A    
C10   Cl6   S    
C34   C36   A    
C37   C39   A    
O4    C2    A    
C39   Cl1   S    
O18   V4    S    
C50   O23   D    
C27   H5    S    
C5    H3    S    
C36   C38   A    
C42   C44   A    
O4    V2    S    
C26   Cl10  S    
C50   O24   S    
O6    C4    A    
C15   C17   A    
O1    V2    S    
C5    C21   A    
O2    V1    S    
C9    Cl5   S    
C35   H9    S    
C17   C31   A    
C15   C19   A    
C20   C28   A    
C18   C32   A    
C32   C45   S    
C20   C22   A    
C33   C43   A    
C13   H7    S    
C28   H6    S    
C44   C47   S    
C14   H8    S    
C11   Cl7   S    
C43   C48   S    
C1    C38   S    
C6    H4    S    
C2    C37   S    
C34   Cl12  S    
C39   C41   A    
O17   V3    S    
O20   V3    S    
O3    C1    A    
O19   V4    S    
H1    C29   S    
C34   C44   A    
C9    C11   A    
C10   C12   A    
C8    C30   A    
C49   O22   S    
C6    C22   A    
C17   C25   A    
C1    O8    A    
C13   C15   A    
O8    V2    S    
C22   C24   A    
C8    C28   A    
C24   C26   A    
C12   C14   A    
C24   C50   S    
O7    V1    S    
O14   V4    S    
C31   C46   S    
O13   V3    S    
O11   V4    S    
C21   C23   A    
O16   C48   A    
O9    V2    S    
O15   C47   A    
O10   V1    S    
O14   C46   A    
O22   H11   S    
H2    C30   S    
C16   C18   A    
