data_mof_unit_11607.cif
_audit_creation_date              2012-12-11T14:38:23-0500
_audit_creation_method            fapswitch 2.2
_symmetry_space_group_name_H-M    P1
_symmetry_Int_Tables_number       1
_space_group_crystal_system       triclinic
_cell_length_a                    20.190566
_cell_length_b                    11.239316
_cell_length_c                    19.575275
_cell_angle_alpha                 89.721555
_cell_angle_beta                  95.140563
_cell_angle_gamma                 90.05303
_cell_volume                      4424.26121522

loop_
_atom_site_label
_atom_site_type_symbol
_atom_type_description
_atom_site_fract_x
_atom_site_fract_y
_atom_site_fract_z
_atom_type_partial_charge
C1    C     C_R   0.723060 0.958356 0.361440 0.576702
C2    C     C_3   0.177859 0.478471 0.472099 -0.263444
C3    C     C_3   0.163752 0.634003 0.952183 -0.210185
C4    C     C_3   0.322270 0.979135 0.527243 -0.265172
C5    C     C_3   0.677858 0.978471 0.472099 -0.263441
C6    C     C_3   0.755383 0.302389 0.551109 -0.227607
C7    C     C_3   0.244719 0.301249 0.449922 -0.230621
C8    C     C_3   0.255382 0.802388 0.551109 -0.227605
C9    C     C_3   0.744719 0.801249 0.449923 -0.230624
C10   C     C_3   0.761226 0.435362 0.564687 -0.010942
C11   C     C_3   0.238892 0.434200 0.435121 -0.008735
C12   C     C_3   0.261225 0.935362 0.564687 -0.010941
C13   C     C_R   0.277169 0.959376 0.638321 0.576335
C14   C     C_3   0.738892 0.934200 0.435121 -0.008738
C15   C     C_3   0.742706 0.396974 0.432993 0.000343
C16   C     C_3   0.257446 0.397323 0.567034 -0.001395
C17   C     C_3   0.242706 0.896974 0.432993 0.000336
C18   C     C_3   0.757446 0.897323 0.567034 -0.001392
C19   C     C_3   0.815642 0.436871 0.452600 0.127654
C20   C     C_3   0.184442 0.436714 0.547016 0.125606
C21   C     C_3   0.315642 0.936870 0.452601 0.127662
C22   C     C_3   0.684442 0.936714 0.547016 0.125601
C23   C     C_3   0.725893 0.287768 0.476586 -0.276323
C24   C     C_R   0.223060 0.458356 0.361440 0.576696
C25   C     C_3   0.274520 0.287643 0.524523 -0.277406
C26   C     C_3   0.225892 0.787767 0.476586 -0.276324
C27   C     C_3   0.774520 0.787644 0.524523 -0.277404
C28   C     C_3   0.501057 0.309532 0.957307 0.109511
C29   C     C_3   0.526842 0.309180 0.030991 0.131162
C30   C     C_3   0.001057 0.809531 0.957307 0.109493
C31   C     C_3   0.026842 0.809180 0.030991 0.131160
C32   C     C_3   0.417769 0.139158 0.990802 -0.031823
C33   C     C_3   0.559465 0.084288 0.014304 -0.009905
C34   C     C_3   0.917768 0.639159 0.990802 -0.031831
C35   C     C_R   0.777169 0.459376 0.638321 0.576336
C36   C     C_3   0.059465 0.584287 0.014304 -0.009905
C37   C     C_3   0.521643 0.086648 0.942694 -0.233387
C38   C     C_3   0.455116 0.142321 0.064033 -0.242810
C39   C     C_3   0.021641 0.586646 0.942694 -0.233380
C40   C     C_3   0.955115 0.642320 0.064034 -0.242809
C41   C     C_R   0.537401 0.180086 0.338881 0.544911
C42   C     C_R   0.462546 0.180481 0.661108 0.544698
C43   C     C_R   0.037401 0.680086 0.338881 0.544999
C44   C     C_R   0.962546 0.680481 0.661107 0.544672
C45   C     C_3   0.466304 0.183546 0.937446 -0.036102
C46   C     C_3   0.692760 0.493040 0.451861 -0.221294
C47   C     C_3   0.528606 0.179172 0.061959 -0.024498
C48   C     C_3   0.966303 0.683546 0.937446 -0.036110
C49   C     C_3   0.028605 0.679171 0.061959 -0.024492
C50   C     C_1   0.771004 0.444219 0.911161 0.011718
C51   C     C_1   0.237076 0.427553 0.095556 -0.011231
C52   C     C_1   0.271003 0.944218 0.911161 0.011719
C53   C     C_1   0.737076 0.927553 0.095556 -0.011235
C54   C     C_1   0.766555 0.433281 0.045355 0.054516
C55   C     C_1   0.245050 0.407281 0.963286 0.023428
C56   C     C_1   0.266554 0.933282 0.045355 0.054516
C57   C     C_3   0.307284 0.493472 0.547388 -0.222158
C58   C     C_1   0.745052 0.907280 0.963287 0.023431
C59   C     C_1   0.768888 0.438774 0.972828 0.026576
C60   C     C_1   0.242013 0.417525 0.034861 0.004568
C61   C     C_1   0.268887 0.938774 0.972828 0.026579
C62   C     C_1   0.742014 0.917526 0.034862 0.004559
C63   C     C_1   0.758216 0.417904 0.105554 0.083927
C64   C     C_1   0.250504 0.393685 0.902947 0.003267
C65   C     C_1   0.258216 0.917905 0.105554 0.083936
C66   C     C_1   0.750506 0.893684 0.902948 0.003282
C67   C     C_R   0.736758 0.358223 0.361535 0.611726
C68   C     C_3   0.192760 0.993040 0.451861 -0.221298
C69   C     C_R   0.263145 0.358984 0.638643 0.616538
C70   C     C_R   0.236758 0.858222 0.361535 0.611737
C71   C     C_R   0.763145 0.858985 0.638643 0.616532
C72   C     C_R   0.722005 0.954180 0.163882 0.540736
C73   C     C_R   0.280726 0.960643 0.839448 0.546010
C74   C     C_R   0.222006 0.454180 0.163882 0.540734
C75   C     C_R   0.780726 0.460643 0.839448 0.546010
C76   C     C_R   0.556761 0.182167 0.135402 0.504271
C77   C     C_R   0.439004 0.183560 0.863954 0.500884
C78   C     C_R   0.056760 0.682167 0.135402 0.504273
C79   C     C_3   0.807284 0.993472 0.547388 -0.222158
C80   C     C_R   0.939004 0.683561 0.863954 0.500876
C81   C     C_R   0.740255 0.368791 0.169987 0.565415
C82   C     C_R   0.262799 0.358836 0.834938 0.538979
C83   C     C_R   0.240255 0.868791 0.169987 0.565437
C84   C     C_R   0.762799 0.858835 0.834939 0.538976
C85   C     C_1   0.482506 0.171618 0.593626 0.115735
C86   C     C_1   0.517534 0.170613 0.406430 0.116007
C87   C     C_1   0.982506 0.671618 0.593626 0.115701
C88   C     C_1   0.017534 0.670614 0.406430 0.116092
C89   C     C_1   0.506421 0.164757 0.465449 0.157583
C90   C     C_3   0.822270 0.479136 0.527243 -0.265168
C91   C     C_1   0.493620 0.165234 0.534661 0.158307
C92   C     C_1   0.006421 0.664757 0.465449 0.157585
C93   C     C_1   0.993619 0.665235 0.534661 0.158295
C94   C     C_3   0.694513 0.498920 0.531699 0.081647
C95   C     C_3   0.305597 0.498219 0.467517 0.082640
C96   C     C_3   0.194513 0.998920 0.531699 0.081644
C97   C     C_3   0.805597 0.998219 0.467517 0.082636
C98   C     C_3   0.316385 0.189628 0.046316 -0.276524
C99   C     C_3   0.663753 0.134004 0.952184 -0.210185
C100  C     C_3   0.816384 0.689627 0.046318 -0.276529
Cr1   Cr    Cr6+3 0.765780 0.160710 0.267420 1.061703
Cr2   Cr    Cr6+3 0.383970 0.323720 0.751490 1.121619
Cr3   Cr    Cr6+3 0.116030 0.823720 0.248510 1.108671
Cr4   Cr    Cr6+3 0.883970 0.823720 0.751490 1.121625
Cr5   Cr    Cr6+3 0.234220 0.160710 0.732580 1.076997
Cr6   Cr    Cr6+3 0.265780 0.660710 0.267420 1.061731
Cr7   Cr    Cr6+3 0.734220 0.660710 0.732580 1.076979
Cr8   Cr    Cr6+3 0.612200 0.009560 0.248850 1.050108
Cr9   Cr    Cr6+3 0.387800 0.009560 0.751150 1.057761
Cr10  Cr    Cr6+3 0.112200 0.509560 0.248850 1.050105
Cr11  Cr    Cr6+3 0.887800 0.509560 0.751150 1.057765
Cr12  Cr    Cr6+3 0.616030 0.323720 0.248510 1.108676
H1    H     H_    0.690908 0.591345 0.545013 0.126030
H2    H     H_    0.130294 0.441908 0.447491 0.146157
H3    H     H_    0.369809 0.942747 0.552162 0.145757
H4    H     H_    0.630294 0.941908 0.447491 0.146159
H5    H     H_    0.847959 0.356670 0.451201 0.168626
H6    H     H_    0.152231 0.356319 0.548900 0.168724
H7    H     H_    0.347958 0.856668 0.451202 0.168627
H8    H     H_    0.652231 0.856320 0.548899 0.168729
H9    H     H_    0.543792 0.311675 0.925406 0.175488
H10   H     H_    0.491114 0.360754 0.059440 0.190906
H11   H     H_    0.043793 0.811670 0.925407 0.175490
H12   H     H_    0.309118 0.590282 0.452873 0.128875
H13   H     H_    0.991112 0.860755 0.059439 0.190896
H14   H     H_    0.432424 0.205392 0.098605 0.160393
H15   H     H_    0.553034 0.099674 0.899966 0.155330
H16   H     H_    0.932424 0.705391 0.098606 0.160392
H17   H     H_    0.053033 0.599671 0.899966 0.155335
H18   H     H_    0.500068 0.996214 0.933069 0.147958
H19   H     H_    0.451351 0.052665 0.087937 0.129687
H20   H     H_    0.000066 0.496212 0.933070 0.147959
H21   H     H_    0.951350 0.552663 0.087937 0.129679
H22   H     H_    0.550096 0.995415 0.037106 0.168537
H23   H     H_    0.190909 0.091345 0.545013 0.126016
H24   H     H_    0.405240 0.044204 0.979389 0.140241
H25   H     H_    0.050095 0.495413 0.037107 0.168536
H26   H     H_    0.905238 0.544205 0.979389 0.140242
H27   H     H_    0.641708 0.475170 0.428273 0.202618
H28   H     H_    0.358345 0.476271 0.571244 0.203224
H29   H     H_    0.141708 0.975170 0.428273 0.202615
H30   H     H_    0.858345 0.976272 0.571244 0.203226
H31   H     H_    0.707918 0.577643 0.430099 0.134081
H32   H     H_    0.291776 0.578223 0.568111 0.133238
H33   H     H_    0.207919 0.077642 0.430098 0.134077
H34   H     H_    0.809119 0.090281 0.452873 0.128878
H35   H     H_    0.791775 0.078223 0.568110 0.133237
H36   H     H_    0.328226 0.075305 0.531028 0.132795
H37   H     H_    0.671999 0.074674 0.467386 0.132101
H38   H     H_    0.828226 0.575306 0.531027 0.132793
H39   H     H_    0.171999 0.574674 0.467386 0.132096
H40   H     H_    0.805882 0.262674 0.557777 0.120101
H41   H     H_    0.194222 0.261413 0.443972 0.118438
H42   H     H_    0.305882 0.762674 0.557778 0.120101
H43   H     H_    0.694222 0.761413 0.443972 0.118439
H44   H     H_    0.725065 0.258877 0.587781 0.257970
H45   H     H_    0.671326 0.275568 0.474642 0.200534
H46   H     H_    0.274898 0.257413 0.413530 0.256749
H47   H     H_    0.225064 0.758877 0.587780 0.257971
H48   H     H_    0.774898 0.757413 0.413530 0.256753
H49   H     H_    0.741807 0.208746 0.453948 0.086208
H50   H     H_    0.259525 0.208465 0.548512 0.086595
H51   H     H_    0.241806 0.708744 0.453948 0.086203
H52   H     H_    0.759525 0.708465 0.548512 0.086597
H53   H     H_    0.369506 0.380354 0.929225 0.357709
H54   H     H_    0.657225 0.255549 0.093782 0.333518
H55   H     H_    0.869512 0.880345 0.929221 0.357702
H56   H     H_    0.329112 0.276216 0.526179 0.198440
H57   H     H_    0.157225 0.755546 0.093783 0.333514
H58   H     H_    0.326663 0.188188 0.941410 0.230337
H59   H     H_    0.262357 0.183896 0.030066 0.168276
H60   H     H_    0.327399 0.265807 0.080902 0.176399
H61   H     H_    0.331257 0.111067 0.077882 0.129461
H62   H     H_    0.658301 0.082331 0.057007 0.254679
H63   H     H_    0.717444 0.148821 0.967384 0.182590
H64   H     H_    0.642552 0.219760 0.932905 0.197007
H65   H     H_    0.659260 0.068770 0.909816 0.135541
H66   H     H_    0.826662 0.688190 0.941412 0.230336
H67   H     H_    0.171325 0.775568 0.474642 0.200530
H68   H     H_    0.762356 0.683894 0.030068 0.168279
H69   H     H_    0.827397 0.765805 0.080906 0.176391
H70   H     H_    0.831257 0.611065 0.077883 0.129458
H71   H     H_    0.158300 0.582330 0.057006 0.254680
H72   H     H_    0.217443 0.648818 0.967383 0.182588
H73   H     H_    0.142552 0.719760 0.932905 0.197008
H74   H     H_    0.159258 0.568771 0.909814 0.135545
H75   H     H_    0.600647 0.605850 0.625617 0.351460
H76   H     H_    0.399891 0.605059 0.373120 0.349572
H77   H     H_    0.100655 0.105867 0.625606 0.351459
H78   H     H_    0.829112 0.776216 0.526179 0.198438
H79   H     H_    0.899890 0.105057 0.373119 0.349566
H80   H     H_    0.414785 0.019546 0.313296 0.370317
H81   H     H_    0.584680 0.018046 0.685327 0.372901
H82   H     H_    0.914715 0.519417 0.313251 0.370394
H83   H     H_    0.084659 0.518089 0.685310 0.372897
H84   H     H_    0.869810 0.442748 0.552162 0.145758
N1    N     N_2   0.354790 0.201520 0.987364 -0.528469
N2    N     N_2   0.630851 0.089791 0.010858 -0.502336
N3    N     N_2   0.854789 0.701523 0.987366 -0.528481
N4    N     N_2   0.130851 0.589789 0.010857 -0.502335
O1    O     O_R   0.783100 0.287550 0.345460 -0.510922
O2    O     O_R   0.454350 0.284910 0.836260 -0.463622
O3    O     O_R   0.045650 0.784910 0.163740 -0.484358
O4    O     O_R   0.954350 0.784910 0.836260 -0.463622
O5    O     O_R   0.677950 0.374280 0.185410 -0.451629
O6    O     O_R   0.322050 0.374280 0.814590 -0.487585
O7    O     O_R   0.177950 0.874280 0.185410 -0.451634
O8    O     O_R   0.822050 0.874280 0.814590 -0.487579
O9    O     O_3   0.664670 0.164660 0.254930 -0.330761
O10   O     O_3   0.335330 0.164660 0.745070 -0.336426
O11   O     O_3   0.164670 0.664660 0.254930 -0.330775
O12   O     O_R   0.216900 0.287550 0.654540 -0.509560
O13   O     O_3   0.835330 0.664660 0.745070 -0.336423
O14   O     O_R   0.760020 0.037400 0.337700 -0.498563
O15   O     O_R   0.239980 0.037400 0.662300 -0.496980
O16   O     O_R   0.260020 0.537400 0.337700 -0.498564
O17   O     O_R   0.739980 0.537400 0.662300 -0.496978
O18   O     O_R   0.666600 0.921990 0.332020 -0.507843
O19   O     O_R   0.333400 0.921990 0.667980 -0.505023
O20   O     O_R   0.166600 0.421990 0.332020 -0.507848
O21   O     O_R   0.833400 0.421990 0.667980 -0.505021
O22   O     O_R   0.557260 0.082670 0.312540 -0.510183
O23   O     O_R   0.283100 0.787550 0.345460 -0.510892
O24   O     O_R   0.442740 0.082670 0.687460 -0.510971
O25   O     O_R   0.057260 0.582670 0.312540 -0.510149
O26   O     O_R   0.942740 0.582670 0.687460 -0.510982
O27   O     O_R   0.548410 0.285740 0.316480 -0.469469
O28   O     O_R   0.451590 0.285740 0.683520 -0.462658
O29   O     O_R   0.048410 0.785740 0.316480 -0.469492
O30   O     O_R   0.951590 0.785740 0.683520 -0.462646
O31   O     O_R   0.680500 0.375040 0.327000 -0.508037
O32   O     O_R   0.319500 0.375040 0.673000 -0.501384
O33   O     O_R   0.180500 0.875040 0.327000 -0.508046
O34   O     O_R   0.716900 0.787550 0.654540 -0.509567
O35   O     O_R   0.819500 0.875040 0.673000 -0.501382
O36   O     O_R   0.780350 0.286720 0.192720 -0.511831
O37   O     O_R   0.219650 0.286720 0.807280 -0.491277
O38   O     O_R   0.280350 0.786720 0.192720 -0.511808
O39   O     O_R   0.719650 0.786720 0.807280 -0.491292
O40   O     O_R   0.757470 0.036630 0.196110 -0.483419
O41   O     O_R   0.242530 0.036630 0.803890 -0.476537
O42   O     O_R   0.257470 0.536630 0.196110 -0.483419
O43   O     O_R   0.742530 0.536630 0.803890 -0.476539
O44   O     O_R   0.663840 0.921160 0.179280 -0.495329
O45   O     O_R   0.554710 0.081900 0.170950 -0.508971
O46   O     O_R   0.336160 0.921160 0.820720 -0.493748
O47   O     O_R   0.163840 0.421160 0.179280 -0.495333
O48   O     O_R   0.836160 0.421160 0.820720 -0.493746
O49   O     O_2   0.492200 0.551428 0.986821 -0.179391
O50   O     O_2   0.466095 0.499426 0.867871 -0.213006
O51   O     O_3   0.382735 0.450547 0.956100 -0.507482
O52   O     O_2   0.613703 0.464660 0.975598 -0.237155
O53   O     O_2   0.600954 0.480409 0.097393 -0.225150
O54   O     O_3   0.662704 0.296305 0.050531 -0.583188
O55   O     O_2   0.992199 0.051427 0.986824 -0.179399
O56   O     O_R   0.445290 0.081900 0.829050 -0.511760
O57   O     O_2   0.966116 0.999429 0.867870 -0.212987
O58   O     O_3   0.882734 0.950560 0.956078 -0.507470
O59   O     O_2   0.113704 0.964663 0.975598 -0.237151
O60   O     O_2   0.100953 0.980410 0.097395 -0.225153
O61   O     O_3   0.162704 0.796302 0.050531 -0.583192
O62   O     O_2   0.575197 0.382103 0.512065 -0.238294
O63   O     O_2   0.630613 0.375126 0.628444 -0.231387
O64   O     O_3   0.574806 0.571450 0.585022 -0.459809
O65   O     O_2   0.424851 0.381489 0.488004 -0.239262
O66   O     O_2   0.369555 0.374741 0.371556 -0.235875
O67   O     O_R   0.054710 0.581900 0.170950 -0.508975
O68   O     O_3   0.425462 0.570919 0.414134 -0.461873
O69   O     O_2   0.075196 0.882104 0.512066 -0.238298
O70   O     O_2   0.130613 0.875126 0.628444 -0.231377
O71   O     O_3   0.074805 0.071449 0.585023 -0.459805
O72   O     O_2   0.924851 0.881489 0.488005 -0.239262
O73   O     O_2   0.869555 0.874739 0.371556 -0.235864
O74   O     O_3   0.925461 0.070918 0.414134 -0.461874
O75   O     O_2   0.295040 0.078510 0.337624 -0.307292
O76   O     O_2   0.374648 0.148531 0.429330 -0.311196
O77   O     O_3   0.409422 0.972745 0.355480 -0.513416
O78   O     O_R   0.945290 0.581900 0.829050 -0.511755
O79   O     O_2   0.704256 0.077638 0.661591 -0.299619
O80   O     O_2   0.625710 0.148681 0.568896 -0.313964
O81   O     O_3   0.589693 0.972621 0.642854 -0.511824
O82   O     O_2   0.795036 0.578517 0.337627 -0.307346
O83   O     O_2   0.874648 0.648532 0.429329 -0.311130
O84   O     O_3   0.909420 0.472750 0.355476 -0.513546
O85   O     O_2   0.204258 0.577639 0.661591 -0.299600
O86   O     O_2   0.125709 0.648679 0.568897 -0.313990
O87   O     O_3   0.089697 0.472618 0.642858 -0.511808
O88   O     O_R   0.545650 0.284910 0.163740 -0.484361
S1    S     S_3+6 0.461264 0.456839 0.940198 0.072904
S2    S     S_3+6 0.652013 0.040183 0.606227 -0.031758
S3    S     S_3+6 0.847705 0.540425 0.392592 -0.034379
S4    S     S_3+6 0.152014 0.540182 0.606228 -0.031758
S5    S     S_3+6 0.602095 0.394368 0.039067 0.020658
S6    S     S_3+6 0.961268 0.956842 0.940194 0.072918
S7    S     S_3+6 0.102095 0.894369 0.039068 0.020661
S8    S     S_3+6 0.617799 0.450271 0.564931 0.045810
S9    S     S_3+6 0.382358 0.449688 0.434736 0.043280
S10   S     S_3+6 0.117799 0.950272 0.564931 0.045813
S11   S     S_3+6 0.882358 0.949687 0.434736 0.043280
S12   S     S_3+6 0.347706 0.040423 0.392592 -0.034370

loop_
_geom_bond_atom_site_label_1
_geom_bond_atom_site_label_2
_ccdc_geom_bond_type
C95   H12   S    
Cr3   O29   S    
Cr5   O15   S    
C21   S12   S    
C8    C26   S    
C32   C45   S    
Cr10  O11   S    
C77   O2    A    
C20   H6    S    
C22   H8    S    
O85   S4    D    
C30   S6    S    
O50   S1    D    
H76   O68   S    
C50   C59   T    
Cr4   O4    S    
C47   C76   S    
C52   C61   T    
C35   O21   A    
C79   H30   S    
C54   C63   T    
C10   C94   S    
C40   H16   S    
C35   O17   A    
C26   H51   S    
C16   C25   S    
C5    H37   S    
C49   C78   S    
C71   O34   A    
Cr4   O35   S    
C99   H64   S    
Cr11  O48   S    
O63   S8    D    
C4    C12   S    
C3    H72   S    
H79   O74   S    
O70   S10   D    
C67   O31   A    
Cr1   O40   S    
Cr2   O32   S    
C95   S9    S    
Cr7   O43   S    
C77   O56   A    
Cr5   O41   S    
Cr10  O67   S    
H77   O71   S    
C96   H23   S    
C69   O32   A    
C17   C21   S    
Cr5   O10   S    
C57   H28   S    
C32   N1    S    
O60   S7    D    
C16   C20   S    
O49   S1    D    
C29   H10   S    
H57   O61   S    
C70   O23   A    
C100  H69   S    
O72   S11   D    
O57   S6    D    
C24   O20   A    
C33   C47   S    
C34   C48   S    
C37   C45   S    
C18   C71   S    
H81   O81   S    
C79   C97   S    
Cr11  O13   S    
C28   S1    S    
C42   O28   A    
Cr6   O16   S    
Cr12  O9    S    
C13   O15   A    
C21   H7    S    
Cr1   O1    S    
O74   S11   S    
C2    H2    S    
C74   O42   A    
C1    O14   A    
Cr5   O37   S    
C8    H47   S    
C75   O48   A    
C46   H27   S    
C4    H36   S    
Cr10  O47   S    
H66   N3    S    
Cr3   O11   S    
C4    H3    S    
C90   H38   S    
C26   H67   S    
Cr12  O31   S    
C29   C47   S    
C30   C48   S    
Cr3   O7    S    
Cr12  O5    S    
C40   C49   S    
C83   O7    A    
Cr7   O17   S    
Cr7   O13   S    
C10   C35   S    
C71   O35   A    
C89   C91   S    
C36   H25   S    
C41   O22   A    
H80   O77   S    
C98   H60   S    
H82   O84   S    
O55   S6    D    
C42   O24   A    
C2    C11   S    
C3    H73   S    
O69   S10   D    
C38   H14   S    
C94   H1    S    
C54   C59   S    
C25   H56   S    
O52   S5    D    
C20   S4    S    
C78   O3    A    
C29   S5    S    
C98   H61   S    
C39   H17   S    
C9    H48   S    
Cr1   O9    S    
C34   H26   S    
C70   O33   A    
C67   O1    A    
C84   O8    A    
Cr6   O23   S    
C46   C94   S    
C8    C12   S    
C15   C67   S    
Cr1   O36   S    
Cr2   O28   S    
C3    N4    S    
Cr2   O6    S    
C10   C90   S    
O61   S7    S    
O62   S8    D    
C84   O39   A    
C31   H13   S    
C100  H68   S    
C82   O6    A    
C98   N1    S    
C18   C22   S    
C36   C39   S    
O71   S10   S    
Cr9   O56   S    
H71   N4    S    
O86   S4    D    
C78   O67   A    
Cr8   O18   S    
C19   C90   S    
C24   O16   A    
C33   N2    S    
Cr6   O11   S    
C87   C93   T    
C99   N2    S    
C68   H33   S    
C90   H84   S    
C12   C13   S    
C9    H43   S    
O87   S4    S    
C76   O88   A    
H83   O87   S    
C1    C14   S    
C15   C46   S    
C44   O26   A    
H58   N1    S    
C6    H44   S    
C58   C62   S    
C72   O44   A    
C76   O45   A    
C51   C74   S    
O54   S5    S    
C15   C19   S    
C41   C86   S    
C68   C96   S    
C43   C88   S    
C28   C29   S    
Cr6   O42   S    
Cr4   O13   S    
C30   C31   S    
C82   O37   A    
H75   O64   S    
C94   S8    S    
C33   H22   S    
C18   C79   S    
C27   H78   S    
C44   C87   S    
C100  H70   S    
C57   H32   S    
O81   S2    S    
C6    H40   S    
C83   O38   A    
O59   S7    D    
Cr3   O33   S    
Cr12  O27   S    
C19   S3    S    
C55   C60   S    
O66   S9    D    
C80   O78   A    
C31   C49   S    
O76   S12   D    
C31   S7    S    
C18   C27   S    
C2    C20   S    
C32   H24   S    
C79   H35   S    
C73   O46   A    
O83   S3    D    
Cr7   O39   S    
Cr8   O45   S    
C33   C37   S    
O53   S5    D    
C9    C14   S    
O73   S11   D    
Cr9   O19   S    
O77   S12   S    
Cr4   O30   S    
Cr1   O14   S    
O79   S2    D    
C42   C85   S    
C96   S10   S    
C30   H11   S    
Cr5   O12   S    
C5    C14   S    
Cr7   O34   S    
Cr9   O10   S    
O75   S12   D    
C9    C27   S    
C2    H39   S    
C17   C68   S    
Cr11  O26   S    
C36   N4    S    
C86   C89   T    
C6    C10   S    
C43   O29   A    
O65   S9    D    
C7    C25   S    
Cr2   O2    S    
C50   C75   S    
C80   O4    A    
C92   C93   S    
C16   C57   S    
Cr4   O8    S    
O80   S2    D    
O82   S3    D    
C73   O41   A    
C19   H5    S    
Cr6   O38   S    
C56   C61   S    
C12   C96   S    
O64   S8    S    
C53   C72   S    
C36   C49   S    
C39   C48   S    
C41   O27   A    
C4    C21   S    
C97   H34   S    
C97   S11   S    
Cr8   O9    S    
C85   C91   T    
C7    H46   S    
C7    C11   S    
C63   C81   S    
C34   C40   S    
C17   C26   S    
C99   H65   S    
C65   C83   S    
C39   H20   S    
C56   C65   T    
C23   H45   S    
C11   C24   S    
C37   H18   S    
Cr11  O21   S    
C44   O30   A    
C34   N3    S    
C58   C66   T    
C5    C22   S    
C88   C92   T    
O84   S3    S    
C72   O40   A    
H55   O58   S    
C32   C38   S    
Cr10  O20   S    
C15   C23   S    
C17   C70   S    
C28   C45   S    
H62   N2    S    
Cr11  O78   S    
C52   C73   S    
C69   O12   A    
C28   H9    S    
Cr2   O10   S    
O68   S9    S    
C27   H52   S    
Cr8   O22   S    
C53   C62   T    
O58   S6    S    
C7    H41   S    
C25   H50   S    
C55   C64   T    
Cr8   O44   S    
C81   O36   A    
C99   H63   S    
C68   H29   S    
C13   O19   A    
C64   C82   S    
C38   C47   S    
C1    O18   A    
Cr9   O24   S    
C98   H59   S    
Cr9   O46   S    
C5    H4    S    
C3    H74   S    
C8    H42   S    
C14   C97   S    
C81   O5    A    
C11   C95   S    
H53   O51   S    
C16   C69   S    
Cr10  O25   S    
C45   C77   S    
C46   H31   S    
C51   C60   T    
C40   H21   S    
C38   H19   S    
C48   C80   S    
C74   O47   A    
O51   S1    S    
C6    C23   S    
H54   O54   S    
C22   S2    S    
Cr3   O3    S    
C75   O43   A    
C66   C84   S    
C100  N3    S    
C57   C95   S    
Cr12  O88   S    
C23   H49   S    
C43   O25   A    
C37   H15   S    
