data_mof_unit_55508.cif
_audit_creation_date              2012-10-26T19:05:07-0400
_audit_creation_method            fapswitch 2.2
_symmetry_space_group_name_H-M    P1
_symmetry_Int_Tables_number       1
_space_group_crystal_system       triclinic
_cell_length_a                    15.881198
_cell_length_b                    10.86714
_cell_length_c                    9.582617
_cell_angle_alpha                 90.316966
_cell_angle_beta                  90.000848
_cell_angle_gamma                 92.5211
_cell_volume                      1652.17266087

loop_
_atom_site_label
_atom_site_type_symbol
_atom_type_description
_atom_site_fract_x
_atom_site_fract_y
_atom_site_fract_z
_atom_type_partial_charge
C1    C     C_R   0.506550 0.263030 0.500443 0.547442
C2    C     C_R   0.541715 0.063550 0.884316 -0.134112
C3    C     C_R   0.499960 0.948858 0.890571 -0.126459
C4    C     C_R   0.340250 0.499669 0.500049 0.555316
C5    C     C_R   0.476959 0.887081 0.767586 -0.098753
C6    C     C_R   0.496303 0.939270 0.635226 0.023331
C7    C     C_R   0.521642 0.065042 0.631335 0.024862
C8    C     C_R   0.513917 0.129165 0.503429 -0.010750
C9    C     C_R   0.501760 0.063090 0.378775 -0.165662
C10   C     C_R   0.494617 0.935924 0.380059 -0.167225
C11   C     C_R   0.491780 0.872221 0.506783 -0.010014
C12   C     C_3   0.949049 0.432877 0.630244 -0.213340
C13   C     C_R   0.611342 0.665021 0.145036 -0.092000
C14   C     C_R   0.665200 0.746235 0.073141 -0.180129
C15   C     C_R   0.665308 0.745969 0.929407 -0.167523
C16   C     C_R   0.495294 0.737571 0.501465 0.533238
C17   C     C_R   0.611428 0.664669 0.856711 -0.085592
C18   C     C_R   0.554639 0.581171 0.925605 0.146617
C19   C     C_R   0.554606 0.581226 0.075285 0.153585
C20   C     C_R   0.448348 0.422327 0.073447 -0.010194
C21   C     C_R   0.448364 0.422365 0.925454 -0.010994
C22   C     C_R   0.659738 0.500449 0.499963 0.535567
C23   C     C_3   0.917212 0.500942 0.500064 0.072990
C24   C     C_3   0.046643 0.432659 0.630250 -0.214082
C25   C     C_3   0.046720 0.434849 0.367635 -0.214245
C26   C     C_3   0.949129 0.435067 0.367621 -0.213050
C27   C     C_1   0.749448 0.500830 0.500000 -0.042525
C28   C     C_3   0.082728 0.500584 0.500081 0.072916
C29   C     C_3   0.955314 0.634705 0.502342 -0.215076
C30   C     C_3   0.052922 0.634494 0.502352 -0.212978
C31   C     C_1   0.825028 0.501015 0.500039 -0.080047
C32   C     C_1   0.174931 0.500305 0.500076 -0.080216
C33   C     C_1   0.250516 0.499996 0.500059 -0.041028
C34   C     C_R   0.552550 0.121716 0.756010 -0.098290
Cu1   Cu    Cu3+1 0.499990 0.499990 0.640660 0.906289
Cu2   Cu    Cu3+1 0.500010 0.500010 0.359340 0.918980
H1    H     H_    0.922638 0.336289 0.631000 0.111378
H2    H     H_    0.489939 0.887558 0.280996 0.135859
H3    H     H_    0.406054 0.358653 0.128369 0.114438
H4    H     H_    0.067032 0.335966 0.630999 0.111117
H5    H     H_    0.617481 0.672091 0.254989 0.184553
H6    H     H_    0.707494 0.809500 0.129712 0.114540
H7    H     H_    0.707516 0.809233 0.873460 0.118799
H8    H     H_    0.617067 0.672025 0.746804 0.187064
H9    H     H_    0.406109 0.358670 0.869680 0.122066
H10   H     H_    0.071597 0.482091 0.272442 0.112112
H11   H     H_    0.922721 0.338517 0.363582 0.111887
H12   H     H_    0.071464 0.478301 0.727025 0.111947
H13   H     H_    0.927199 0.482421 0.272429 0.113375
H14   H     H_    0.077856 0.683788 0.596810 0.112019
H15   H     H_    0.077910 0.685350 0.409601 0.112317
H16   H     H_    0.933433 0.684090 0.596798 0.109789
H17   H     H_    0.067110 0.338196 0.363609 0.110939
H18   H     H_    0.927063 0.478633 0.727009 0.113058
H19   H     H_    0.933488 0.685654 0.409585 0.109775
H20   H     H_    0.497796 0.109617 0.279432 0.133255
H21   H     H_    0.586932 0.209730 0.755971 0.146678
H22   H     H_    0.563566 0.109097 0.979214 0.110032
H23   H     H_    0.487001 0.906327 0.990668 0.113904
H24   H     H_    0.441480 0.800869 0.779329 0.151434
N1    N     N_R   0.500800 0.501210 0.147910 -0.242643
N2    N     N_R   0.500820 0.501290 0.852040 -0.249423
O1    O     O_R   0.499990 0.319640 0.618810 -0.509104
O2    O     O_R   0.500000 0.319660 0.381240 -0.502991
O3    O     O_R   0.379430 0.499990 0.618840 -0.494966
O4    O     O_R   0.379440 0.500020 0.381260 -0.491909
O5    O     O_R   0.500000 0.680340 0.618760 -0.534640
O6    O     O_R   0.500010 0.680360 0.381190 -0.523093
O7    O     O_R   0.620560 0.499980 0.618740 -0.518393
O8    O     O_R   0.620570 0.500010 0.381160 -0.512022

loop_
_geom_bond_atom_site_label_1
_geom_bond_atom_site_label_2
_ccdc_geom_bond_type
C34   H21   S    
C30   H15   S    
Cu2   O6    S    
C6    C7    A    
C16   O6    A    
C1    C8    S    
C9    C10   A    
C12   C24   S    
C22   O7    A    
Cu1   Cu2   S    
C14   C15   A    
Cu1   O5    S    
C10   H2    S    
C25   C26   S    
C32   C33   T    
C2    C34   A    
C28   C30   S    
C2    C3    A    
C30   H14   S    
C17   H8    S    
C15   H7    S    
C7    C8    A    
C16   O5    A    
C12   H1    S    
C13   C14   A    
C25   C28   S    
C4    O4    A    
C12   C23   S    
C21   N2    A    
C29   C30   S    
C26   H11   S    
C19   N1    A    
C5    C6    A    
C23   C29   S    
C13   H5    S    
C24   H4    S    
Cu2   O8    S    
C17   C18   A    
Cu1   N2    S    
C21   H9    S    
C22   C27   S    
C6    C11   A    
C4    C33   S    
C2    H22   S    
C7    C34   A    
Cu2   O4    S    
C26   H13   S    
C10   C11   A    
C13   C19   A    
C27   C31   T    
Cu2   N1    S    
C24   H12   S    
C1    O2    A    
C1    O1    A    
C28   C32   S    
C20   C21   A    
Cu1   O7    S    
C18   C19   A    
C11   C16   S    
C23   C26   S    
C20   N1    A    
C15   C17   A    
C20   H3    S    
Cu1   O3    S    
C4    O3    A    
C18   N2    A    
Cu1   O1    S    
C29   H19   S    
C5    H24   S    
C23   C31   S    
C9    H20   S    
Cu2   O2    S    
C14   H6    S    
C25   H10   S    
C22   O8    A    
C12   H18   S    
C24   C28   S    
C25   H17   S    
C8    C9    A    
C3    C5    A    
C29   H16   S    
C3    H23   S    
