data_mof_unit_54364.cif
_audit_creation_date              2012-12-10T17:01:29-0500
_audit_creation_method            fapswitch 2.2
_symmetry_space_group_name_H-M    P1
_symmetry_Int_Tables_number       1
_space_group_crystal_system       triclinic
_cell_length_a                    12.724588
_cell_length_b                    10.605846
_cell_length_c                    10.026731
_cell_angle_alpha                 89.063852
_cell_angle_beta                  97.844876
_cell_angle_gamma                 90.905194
_cell_volume                      1340.18913719

loop_
_atom_site_label
_atom_site_type_symbol
_atom_type_description
_atom_site_fract_x
_atom_site_fract_y
_atom_site_fract_z
_atom_type_partial_charge
C1    C     C_R   0.490739 0.262593 0.499741 0.919998
C2    C     C_2   0.465968 0.131017 0.503105 -0.421276
C3    C     C_2   0.536861 0.593044 0.933483 0.497793
C4    C     C_R   0.297379 0.504191 0.472902 0.910944
C5    C     C_2   0.516893 0.599060 0.076657 -0.204268
C6    C     C_R   0.498516 0.737699 0.497993 1.022225
C7    C     C_R   0.700203 0.479239 0.527307 0.964677
C8    C     C_R   0.811093 0.439680 0.545874 -0.272243
C9    C     C_R   0.183087 0.497716 0.455348 -0.184687
C10   C     C_R   0.023111 0.417063 0.328230 -0.148662
C11   C     C_R   0.130273 0.443733 0.338187 -0.258924
C12   C     C_R   0.026704 0.473612 0.563839 -0.098766
C13   C     C_R   0.128299 0.526044 0.563558 0.434481
C14   C     C_3   0.770673 0.254716 0.289211 -0.718756
C15   C     C_3   0.118333 0.344755 0.834441 -0.600714
C16   C     C_3   0.307095 0.828046 0.221925 -0.684747
C17   C     C_3   0.437776 0.115475 0.164759 -0.707847
C18   C     C_R   0.969697 0.433964 0.440009 0.019469
C19   C     C_R   0.860078 0.417362 0.430678 0.133907
C20   C     C_R   0.871864 0.430050 0.674955 0.362565
C21   C     C_R   0.981772 0.453603 0.684097 0.139263
C22   C     C_2   0.413505 0.928406 0.412888 0.193153
C23   C     C_2   0.494781 0.870801 0.488691 -0.312911
C24   C     C_2   0.419198 0.065462 0.397083 0.173709
H1    H     H_    0.484554 0.085422 0.601310 0.182383
H2    H     H_    0.729246 0.219817 0.373561 0.249603
H3    H     H_    0.843479 0.199044 0.285860 0.232603
H4    H     H_    0.715706 0.863544 0.990704 0.389867
H5    H     H_    0.866454 0.269737 0.002165 0.373388
H6    H     H_    0.012745 0.476044 0.893461 0.288511
H7    H     H_    0.165303 0.351527 0.935941 0.222482
H8    H     H_    0.174479 0.343878 0.758968 0.229718
H9    H     H_    0.072495 0.254680 0.828273 0.259881
H10   H     H_    0.280498 0.658820 0.868227 0.376193
H11   H     H_    0.251296 0.902326 0.387216 0.260559
H12   H     H_    0.453956 0.433703 0.890072 0.129296
H13   H     H_    0.247264 0.750814 0.203079 0.247596
H14   H     H_    0.382965 0.795199 0.193272 0.241027
H15   H     H_    0.279231 0.910450 0.157775 0.247129
H16   H     H_    0.340666 0.210406 0.281181 0.238777
H17   H     H_    0.392952 0.154420 0.070726 0.226249
H18   H     H_    0.457244 0.015948 0.147257 0.254709
H19   H     H_    0.512782 0.170398 0.188660 0.246830
H20   H     H_    0.525640 0.689230 0.126414 0.208097
H21   H     H_    0.503649 0.414890 0.103576 0.162827
H22   H     H_    0.984524 0.378507 0.234674 0.162126
H23   H     H_    0.171871 0.421218 0.254421 0.181509
H24   H     H_    0.565755 0.920980 0.533070 0.138944
H25   H     H_    0.818498 0.431287 0.220578 0.256692
H26   H     H_    0.716657 0.241573 0.193562 0.237727
N1    N     N_2   0.501130 0.501330 0.852280 -0.211793
N2    N     N_2   0.501160 0.501360 0.147950 -0.213187
N3    N     N_2   0.797706 0.386908 0.305553 -0.266176
N4    N     N_2   0.047911 0.451391 0.811158 -0.220217
N5    N     N_2   0.318716 0.860801 0.362664 -0.272059
N6    N     N_2   0.374024 0.123335 0.273312 -0.296482
O1    O     O_R   0.499980 0.319060 0.613040 -0.595784
O2    O     O_2   0.531955 0.827673 0.831533 -0.328096
O3    O     O_3   0.686370 0.782492 0.020801 -0.560404
O4    O     O_2   0.787669 0.484656 0.898552 -0.273910
O5    O     O_2   0.715565 0.297430 0.775270 -0.289623
O6    O     O_3   0.898802 0.281414 0.918298 -0.593074
O7    O     O_2   0.240563 0.742282 0.611416 -0.315368
O8    O     O_2   0.084251 0.713094 0.726340 -0.273667
O9    O     O_3   0.252905 0.585406 0.813721 -0.563635
O10   O     O_R   0.500020 0.319100 0.386900 -0.625784
O11   O     O_R   0.346340 0.499960 0.594380 -0.571783
O12   O     O_R   0.346380 0.500000 0.368250 -0.634368
O13   O     O_R   0.499980 0.680900 0.613100 -0.520773
O14   O     O_R   0.500020 0.680940 0.386960 -0.630255
O15   O     O_R   0.653620 0.500000 0.631750 -0.516203
O16   O     O_R   0.653660 0.500040 0.405620 -0.582621
O17   O     O_2   0.678982 0.697352 0.780476 -0.235608
S1    S     S_3+6 0.609000 0.726733 0.884306 0.068000
S2    S     S_3+6 0.814410 0.373989 0.818500 0.015422
S3    S     S_3+6 0.176102 0.647259 0.679473 0.040079
Zn1   Zn    Zn3+2 0.499980 0.499970 0.650990 1.108882
Zn2   Zn    Zn3+2 0.500020 0.500030 0.349010 0.955380

loop_
_geom_bond_atom_site_label_1
_geom_bond_atom_site_label_2
_ccdc_geom_bond_type
C4    C9    S    
C10   H22   S    
C6    O13   A    
O9    S3    S    
N1    Zn1   S    
C5    N2    D    
C15   H7    S    
C22   N5    S    
C23   H24   S    
C1    O1    A    
C14   H3    S    
O14   Zn2   S    
H6    N4    S    
O17   S1    D    
O4    S2    D    
C11   H23   S    
O11   Zn1   S    
C13   S3    S    
O15   Zn1   S    
C16   H13   S    
C19   N3    S    
C22   C24   S    
C17   H19   S    
C1    O10   A    
O8    S3    D    
C16   N5    S    
C15   H8    S    
C14   H26   S    
O5    S2    D    
O16   Zn2   S    
O12   Zn2   S    
C9    C11   A    
O3    S1    S    
C8    C20   A    
H12   N1    S    
C10   C18   A    
H25   N3    S    
C6    C23   S    
H10   O9    S    
C5    H20   S    
C18   C19   A    
C2    H1    S    
C17   N6    S    
C22   C23   D    
C7    O15   A    
C21   N4    S    
O10   Zn2   S    
N2    Zn2   S    
O6    S2    S    
C17   H17   S    
C24   N6    S    
C10   C11   A    
C16   H15   S    
H11   N5    S    
C8    C19   A    
C15   N4    S    
O1    Zn1   S    
C7    C8    S    
C14   N3    S    
C12   C13   A    
O2    S1    D    
C4    O12   A    
C1    C2    S    
O7    S3    D    
H4    O3    S    
C12   C18   A    
C7    O16   A    
C6    O14   A    
C3    S1    S    
C9    C13   A    
C17   H18   S    
C3    N1    D    
C2    C24   D    
H21   N2    S    
C3    C5    S    
C20   C21   A    
H5    O6    S    
O13   Zn1   S    
C12   C21   A    
C15   H9    S    
C14   H2    S    
C20   S2    S    
C16   H14   S    
H16   N6    S    
C4    O11   A    
