data_mof_unit_62923.cif
_audit_creation_date              2012-10-26T19:19:38-0400
_audit_creation_method            fapswitch 2.2
_symmetry_space_group_name_H-M    P1
_symmetry_Int_Tables_number       1
_space_group_crystal_system       triclinic
_cell_length_a                    15.896301
_cell_length_b                    10.97781
_cell_length_c                    9.726184
_cell_angle_alpha                 90.266928
_cell_angle_beta                  90.215275
_cell_angle_gamma                 90.304289
_cell_volume                      1697.22853572

loop_
_atom_site_label
_atom_site_type_symbol
_atom_type_description
_atom_site_fract_x
_atom_site_fract_y
_atom_site_fract_z
_atom_type_partial_charge
C1    C     C_R   0.498229 0.265713 0.499302 0.509368
C2    C     C_2   0.517976 0.864268 0.503321 0.365782
C3    C     C_2   0.522348 0.064427 0.398538 -0.017908
C4    C     C_R   0.340365 0.499839 0.499820 0.533388
C5    C     C_2   0.485633 0.134806 0.496200 -0.035749
C6    C     C_2   0.466298 0.414447 0.923006 0.575042
C7    C     C_2   0.452545 0.429085 0.075353 0.188586
C8    C     C_R   0.503470 0.734135 0.500403 0.583927
C9    C     C_R   0.659655 0.499888 0.500115 0.527833
C10   C     C_3   0.048799 0.475587 0.643187 0.702933
C11   C     C_3   0.047942 0.398350 0.396067 0.227606
C12   C     C_3   0.951229 0.477745 0.642445 -0.184514
C13   C     C_3   0.949598 0.397868 0.400398 0.181595
C14   C     C_1   0.749228 0.500145 0.500109 0.088673
C15   C     C_3   0.082985 0.500452 0.495293 -0.025292
C16   C     C_1   0.918602 0.660625 0.308807 0.446865
C17   C     C_1   0.579689 0.113368 0.296924 0.314048
C18   C     C_1   0.423409 0.087146 0.591082 0.325668
C19   C     C_1   0.386699 0.356783 0.136343 0.269494
C20   C     C_1   0.079055 0.413031 0.253835 0.437659
C21   C     C_3   0.917057 0.501981 0.495371 -0.169713
C22   C     C_3   0.951550 0.628665 0.446444 0.323991
C23   C     C_3   0.050303 0.628043 0.448095 0.639258
C24   C     C_1   0.824694 0.500715 0.498641 0.064579
C25   C     C_1   0.175381 0.499925 0.497784 0.173811
C26   C     C_1   0.250832 0.499773 0.499091 0.117685
C27   C     C_2   0.506819 0.933368 0.391522 0.353781
Cu1   Cu    Cu3+1 0.500020 0.500020 0.638630 1.276137
Cu2   Cu    Cu3+1 0.499980 0.499980 0.361370 1.201092
F1    F     F_    0.078782 0.562721 0.735071 -0.485876
F2    F     F_    0.079588 0.717496 0.537855 -0.431171
F3    F     F_    0.083063 0.656636 0.319886 -0.590604
F4    F     F_    0.923206 0.718093 0.536168 -0.537684
F5    F     F_    0.483297 0.884347 0.268274 -0.549360
F6    F     F_    0.548596 0.913687 0.622350 -0.596706
F7    F     F_    0.439101 0.309432 0.862913 -0.609315
F8    F     F_    0.499860 0.611136 0.900683 -0.442985
F9    F     F_    0.075999 0.363173 0.689762 -0.492580
F10   F     F_    0.573111 0.532944 0.100293 -0.446091
F11   F     F_    0.076258 0.285567 0.439736 -0.545048
F12   F     F_    0.914030 0.405967 0.270030 -0.600165
H1    H     H_    0.926305 0.389267 0.680820 0.170107
H2    H     H_    0.928345 0.549009 0.714764 0.236736
H3    H     H_    0.927855 0.309231 0.443153 0.234105
N1    N     N_2   0.499090 0.498660 0.846910 0.083289
N2    N     N_2   0.499070 0.498630 0.153040 0.045564
N3    N     N_1   0.892784 0.685708 0.201235 -0.106790
N4    N     N_1   0.625459 0.152343 0.215767 -0.158086
N5    N     N_1   0.373712 0.049480 0.666697 -0.091041
N6    N     N_1   0.333791 0.298317 0.184632 -0.188753
N7    N     N_1   0.103454 0.424269 0.142611 -0.087808
O1    O     O_R   0.500010 0.321960 0.617040 -0.448935
O2    O     O_R   0.499990 0.321920 0.382900 -0.546778
O3    O     O_R   0.379450 0.500030 0.617120 -0.475637
O4    O     O_R   0.379420 0.499980 0.382980 -0.533055
O5    O     O_R   0.500010 0.678080 0.617100 -0.418559
O6    O     O_R   0.499990 0.678040 0.382960 -0.443519
O7    O     O_R   0.620580 0.500020 0.617020 -0.491694
O8    O     O_R   0.620550 0.499970 0.382880 -0.447186

loop_
_geom_bond_atom_site_label_1
_geom_bond_atom_site_label_2
_ccdc_geom_bond_type
C2    F6    S    
C4    C26   S    
C9    C14   S    
C2    C27   D    
C6    N1    D    
Cu1   O7    S    
C8    O6    A    
C20   N7    T    
C11   C13   S    
C10   F1    S    
C17   N4    T    
Cu2   N2    S    
C10   F9    S    
C23   F3    S    
C8    O5    A    
C13   F12   S    
Cu1   O5    S    
Cu1   O3    S    
C13   C21   S    
C4    O4    A    
C21   C22   S    
Cu1   O1    S    
C19   N6    T    
C6    C7    S    
C12   H1    S    
Cu2   O2    S    
F10   N2    S    
C1    C5    S    
C10   C12   S    
C16   N3    T    
C3    C27   S    
Cu1   Cu2   S    
C6    F7    S    
C3    C17   S    
C12   H2    S    
C7    C19   S    
C10   C15   S    
C27   F5    S    
C11   F11   S    
Cu1   N1    S    
C1    O1    A    
C11   C20   S    
C15   C25   S    
C15   C23   S    
F8    N1    S    
C7    N2    D    
C3    C5    D    
C9    O7    A    
C21   C24   S    
C14   C24   T    
C22   F4    S    
C1    O2    A    
C22   C23   S    
C16   C22   S    
C5    C18   S    
Cu2   O4    S    
C4    O3    A    
C25   C26   T    
C11   C15   S    
C12   C21   S    
C13   H3    S    
C2    C8    S    
Cu2   O8    S    
C18   N5    T    
Cu2   O6    S    
C9    O8    A    
C23   F2    S    
