data_mof_unit_41744.cif
_audit_creation_date              2012-12-10T19:24:57-0500
_audit_creation_method            fapswitch 2.2
_symmetry_space_group_name_H-M    P1
_symmetry_Int_Tables_number       1
_space_group_crystal_system       triclinic
_cell_length_a                    15.731399
_cell_length_b                    10.494675
_cell_length_c                    9.763074
_cell_angle_alpha                 89.650974
_cell_angle_beta                  89.641331
_cell_angle_gamma                 89.834279
_cell_volume                      1611.77562901

loop_
_atom_site_label
_atom_site_type_symbol
_atom_type_description
_atom_site_fract_x
_atom_site_fract_y
_atom_site_fract_z
_atom_type_partial_charge
C1    C     C_R   0.500265 0.257709 0.500484 0.953059
C2    C     C_R   0.499724 0.742296 0.499521 0.960149
C3    C     C_3   0.573558 0.957861 0.547305 0.483850
C4    C     C_3   0.426355 0.042175 0.452744 0.554329
C5    C     C_3   0.499711 0.877100 0.498422 -0.156638
C6    C     C_3   0.500218 0.122915 0.501608 -0.168450
C7    C     C_3   0.435806 0.957099 0.580427 -0.293214
C8    C     C_3   0.564108 0.042918 0.419603 -0.338596
C9    C     C_3   0.492894 0.385517 0.049363 -0.054610
C10   C     C_3   0.507105 0.614483 0.950638 -0.053956
C11   C     C_3   0.562563 0.433248 0.951081 -0.087818
C12   C     C_3   0.437437 0.566750 0.048918 -0.087358
C13   C     C_3   0.430267 0.452305 0.952468 -0.057796
C14   C     C_3   0.569733 0.547694 0.047532 -0.057449
C15   C     C_R   0.338196 0.500153 0.500368 0.940738
C16   C     C_R   0.661807 0.499818 0.499627 0.931109
C17   C     C_3   0.971659 0.394997 0.564905 0.126857
C18   C     C_3   0.028363 0.604055 0.434871 0.134679
C19   C     C_3   0.029125 0.395238 0.436196 0.134373
C20   C     C_3   0.970911 0.603809 0.563581 0.108224
C21   C     C_1   0.249513 0.500225 0.501319 -0.104280
C22   C     C_1   0.750497 0.499405 0.498641 -0.114038
C23   C     C_3   0.026766 0.499599 0.630024 0.153835
C24   C     C_3   0.973259 0.499448 0.369751 0.154161
C25   C     C_3   0.083634 0.499849 0.501313 0.040688
C26   C     C_3   0.916388 0.499211 0.498468 0.039113
C27   C     C_1   0.174381 0.500118 0.501782 0.010854
C28   C     C_1   0.825633 0.499186 0.498090 0.005863
C29   C     C_3   0.510933 0.039754 0.630267 -0.257421
C30   C     C_3   0.488975 0.960272 0.369760 -0.235538
H1    H     H_    0.520847 0.075222 0.735876 0.190554
H2    H     H_    0.479069 0.924812 0.264146 0.187279
H3    H     H_    0.383151 0.918229 0.644222 0.184197
H4    H     H_    0.616749 0.081786 0.355780 0.173245
H5    H     H_    0.615183 0.376945 0.904979 0.139387
H6    H     H_    0.384816 0.623053 0.095020 0.140405
H7    H     H_    0.486939 0.288985 0.095503 0.163402
H8    H     H_    0.513054 0.711016 0.904501 0.162423
H9    H     H_    0.371557 0.412044 0.907646 0.145435
H10   H     H_    0.628443 0.587954 0.092354 0.146053
N1    N     N_3   0.499940 0.500030 0.863290 -0.084393
N2    N     N_3   0.500060 0.499970 0.136710 -0.084588
O1    O     O_R   0.500000 0.313960 0.616610 -0.628037
O2    O     O_R   0.500000 0.686040 0.383390 -0.626951
O3    O     O_R   0.500040 0.313950 0.383350 -0.602702
O4    O     O_R   0.499960 0.686050 0.616650 -0.604451
O5    O     O_R   0.376760 0.499990 0.616610 -0.630677
O6    O     O_R   0.623240 0.500010 0.383390 -0.631105
O7    O     O_R   0.376790 0.499980 0.383350 -0.596151
O8    O     O_R   0.623210 0.500020 0.616650 -0.596975
Zn1   Zn    Zn3+2 0.499980 0.500010 0.655740 0.984697
Zn2   Zn    Zn3+2 0.500020 0.499990 0.344260 0.985657
C31   C     C_3   0.063728 0.277369 0.364644 -0.819886
H11   H     H_    0.010160 0.218833 0.327150 0.235355
H12   H     H_    0.104362 0.306454 0.276611 0.254867
H13   H     H_    0.102112 0.220120 0.437634 0.270186
C32   C     C_3   0.936381 0.721673 0.635213 -0.758210
H14   H     H_    0.989992 0.780118 0.672721 0.231869
H15   H     H_    0.898017 0.779008 0.562276 0.277371
H16   H     H_    0.895757 0.692569 0.723251 0.255190
C33   C     C_3   0.938032 0.276838 0.638025 -0.835377
H17   H     H_    0.992102 0.218430 0.675498 0.253408
H18   H     H_    0.897665 0.305600 0.726247 0.247566
H19   H     H_    0.899624 0.219633 0.566060 0.244085
C34   C     C_3   0.061960 0.722219 0.361704 -0.851678
H20   H     H_    0.007874 0.780610 0.324260 0.249974
H21   H     H_    0.100387 0.779459 0.433614 0.254287
H22   H     H_    0.102301 0.693458 0.273450 0.248306
C35   C     C_3   0.941650 0.499345 0.222777 -0.876447
H23   H     H_    0.996706 0.499578 0.151148 0.247238
H24   H     H_    0.902832 0.412937 0.205113 0.242612
H25   H     H_    0.902190 0.585441 0.204026 0.253156
C36   C     C_3   0.058376 0.499677 0.777001 -0.877798
H26   H     H_    0.003320 0.499435 0.848630 0.247228
H27   H     H_    0.097833 0.413575 0.795740 0.252459
H28   H     H_    0.097197 0.586077 0.794686 0.243909
S1    S     S_3+6 0.672653 0.898529 0.608899 0.010642
O9    O     O_2   0.657501 0.816904 0.733567 -0.277427
O10   O     O_2   0.715193 0.820151 0.499788 -0.339692
O11   O     O_3   0.735706 0.021151 0.650790 -0.538181
H29   H     H_    0.741436 0.072215 0.565578 0.335315
S2    S     S_3+6 0.327298 0.101743 0.391520 -0.006125
O12   O     O_2   0.286378 0.182161 0.500506 -0.345321
O13   O     O_2   0.341987 0.180878 0.264831 -0.314273
O14   O     O_3   0.263671 0.978376 0.354573 -0.574488
H30   H     H_    0.208722 0.017664 0.328504 0.378459

loop_
_geom_bond_atom_site_label_1
_geom_bond_atom_site_label_2
_ccdc_geom_bond_type
C7    C29   S    
C33   H19   S    
C7    H3    S    
C36   H26   S    
C15   O5    A    
C1    O3    A    
C16   O6    A    
C13   N1    S    
C31   H11   S    
C2    O4    A    
C18   C34   S    
C9    N2    S    
C17   C23   S    
C18   C24   S    
C17   C26   S    
C16   O8    A    
C11   C14   S    
C31   H13   S    
C35   H24   S    
C3    C29   S    
C9    C13   S    
C12   N2    S    
C17   C33   S    
C1    O1    A    
C2    O2    A    
C34   H21   S    
C12   H6    S    
S1    O9    D    
C14   N2    S    
O2    Zn2   S    
C31   H12   S    
C21   C27   T    
C22   C28   T    
C10   N1    S    
C36   H27   S    
C35   H23   S    
C18   C25   S    
C23   C36   S    
C4    C7    S    
C9    H7    S    
C24   C35   S    
S1    O10   D    
C1    C6    S    
C4    C6    S    
C3    C8    S    
C10   C14   S    
C5    C7    S    
C32   H16   S    
C6    C8    S    
O3    Zn2   S    
O14   H30   S    
O4    Zn1   S    
C35   H25   S    
C20   C23   S    
C15   C21   S    
C34   H22   S    
C6    C29   S    
C33   H18   S    
O8    Zn1   S    
C8    H4    S    
C9    C11   S    
C10   C12   S    
C34   H20   S    
S2    O13   D    
C36   H28   S    
C2    C5    S    
C3    S1    S    
C5    C30   S    
S1    O11   S    
C16   C22   S    
O7    Zn2   S    
C24   C26   S    
O11   H29   S    
C3    C5    S    
O5    Zn1   S    
C25   C27   S    
S2    O14   S    
C26   C28   S    
C10   H8    S    
C8    C30   S    
C11   H5    S    
C19   C24   S    
C29   H1    S    
C30   H2    S    
C19   C31   S    
C32   H14   S    
C20   C26   S    
O1    Zn1   S    
C17   C19   S    
C11   N1    S    
C18   C20   S    
C15   O7    A    
C33   H17   S    
C19   C25   S    
C13   H9    S    
C32   H15   S    
C14   H10   S    
O6    Zn2   S    
C23   C25   S    
C4    S2    S    
C12   C13   S    
S2    O12   D    
C20   C32   S    
N1    Zn1   S    
C4    C30   S    
N2    Zn2   S    
