data_mof_unit_46532.cif
_audit_creation_date              2012-12-11T17:00:25-0500
_audit_creation_method            fapswitch 2.2
_symmetry_space_group_name_H-M    P1
_symmetry_Int_Tables_number       1
_space_group_crystal_system       triclinic
_cell_length_a                    6.954352
_cell_length_b                    13.681482
_cell_length_c                    20.202029
_cell_angle_alpha                 103.159019
_cell_angle_beta                  89.484906
_cell_angle_gamma                 90.919183
_cell_volume                      1871.39851552

loop_
_atom_site_label
_atom_site_type_symbol
_atom_type_description
_atom_site_fract_x
_atom_site_fract_y
_atom_site_fract_z
_atom_type_partial_charge
O1    O     O_R   0.506770 0.599700 0.449550 -0.538400
O2    O     O_R   0.179980 0.595740 0.587960 -0.545745
O3    O     O_R   0.004580 0.400300 0.550450 -0.542401
C1    C     C_R   0.348092 0.617733 0.615038 0.701674
O4    O     O_R   0.177380 0.611700 0.452380 -0.537272
O5    O     O_R   0.001970 0.416370 0.413900 -0.541677
C2    C     C_R   0.347218 0.638163 0.435725 0.710402
O6    O     O_R   0.509390 0.583630 0.586100 -0.538215
O7    O     O_3   0.337530 0.435890 0.487530 -0.376386
V1    V     V_3+5 0.064660 0.511890 0.502310 1.460020
O8    O     O_R   0.671950 0.404260 0.412040 -0.543977
C3    C     C_R   0.840808 0.382590 0.384875 0.714254
O9    O     O_R   0.674540 0.388300 0.547620 -0.542474
C4    C     C_R   0.841518 0.362391 0.564682 0.722386
V2    V     V_3+5 0.564030 0.488110 0.497690 1.455844
O10   O     O_3   0.841030 0.564110 0.512470 -0.369778
C5    C     C_R   0.747728 0.118128 0.615462 -0.075453
C6    C     C_R   0.841018 0.286405 0.605783 -0.132475
C7    C     C_R   0.965487 0.309932 0.928695 -0.043683
C8    C     C_R   0.037344 0.371826 0.888152 -0.151896
C9    C     C_R   0.006476 0.347027 0.818377 -0.141640
C10   C     C_R   0.880911 0.267044 0.788435 0.082048
C11   C     C_R   0.812579 0.202200 0.829489 0.061930
C12   C     C_R   0.832941 0.245580 0.717776 0.021923
C13   C     C_R   0.746594 0.151331 0.687551 0.035274
C14   C     C_R   0.654456 0.096741 0.730824 -0.050937
C15   C     C_R   0.688258 0.122349 0.800644 -0.189831
C16   C     C_R   0.853745 0.316951 0.677074 -0.098464
C17   C     C_R   0.799699 0.185556 0.574888 -0.095602
C18   C     C_R   0.869200 0.219734 0.898622 -0.134367
H1    H     H_    0.084762 0.390760 0.788575 0.134289
H2    H     H_    0.615980 0.078778 0.832119 0.135204
C19   C     C_R   0.726447 0.258991 0.201271 0.092234
C20   C     C_R   0.868836 0.186773 0.183090 -0.102487
C21   C     C_R   0.017255 0.187956 0.230542 -0.148827
H3    H     H_    0.134244 0.135594 0.218375 0.112480
C22   C     C_R   0.009135 0.252194 0.296038 -0.137112
H4    H     H_    0.120305 0.247627 0.332301 0.121585
C23   C     C_R   0.852290 0.316788 0.315818 -0.078256
C24   C     C_R   0.718151 0.322106 0.265573 0.102266
C25   C     C_3   0.503432 0.321260 0.265728 -0.438514
C26   C     C_3   0.513675 0.252151 0.194683 -0.242157
C27   C     C_R   0.503164 0.756367 0.703121 0.137955
C28   C     C_R   0.351384 0.688271 0.682550 -0.096800
C29   C     C_R   0.196544 0.690198 0.728230 -0.164462
H5    H     H_    0.075279 0.640061 0.713988 0.159593
C30   C     C_R   0.201882 0.752032 0.794193 -0.141665
H6    H     H_    0.084956 0.747601 0.829080 0.122162
C31   C     C_R   0.360710 0.815398 0.816070 -0.102382
C32   C     C_R   0.510211 0.817026 0.768969 0.088483
C33   C     C_3   0.719593 0.795963 0.774129 -0.247619
C34   C     C_3   0.712336 0.736358 0.700836 -0.437499
H7    H     H_    0.747697 0.749330 0.811352 0.141409
H8    H     H_    0.741861 0.655737 0.694304 0.202260
C35   C     C_R   0.346938 0.889387 0.390670 -0.124186
H9    H     H_    0.364495 0.014251 0.307926 0.127980
H10   H     H_    0.346676 0.967885 0.416907 0.131701
C36   C     C_R   0.356556 0.715338 0.396280 -0.045933
C37   C     C_R   0.326595 0.685256 0.068376 -0.192746
C38   C     C_R   0.286653 0.610523 0.102939 -0.119642
C39   C     C_R   0.276768 0.632489 0.173963 -0.038388
C40   C     C_R   0.324448 0.731319 0.212412 0.021942
C41   C     C_R   0.348665 0.808919 0.175944 0.067477
C42   C     C_R   0.341068 0.758038 0.285138 0.067344
C43   C     C_R   0.347094 0.861212 0.319317 0.139009
C44   C     C_R   0.356957 0.935537 0.282245 -0.181871
C45   C     C_R   0.364456 0.909828 0.211837 -0.191109
C46   C     C_R   0.360973 0.686615 0.325284 -0.203543
C47   C     C_R   0.345921 0.816591 0.428893 -0.137967
C48   C     C_R   0.350984 0.784557 0.103940 -0.068056
H11   H     H_    0.327706 0.666382 0.013271 0.110540
H12   H     H_    0.253995 0.535476 0.073619 0.159420
O11   O     O_R   0.203450 0.916320 0.913910 -0.530311
O12   O     O_R   0.535520 0.888300 0.047620 -0.542070
O13   O     O_R   0.710860 0.083650 0.086100 -0.547816
C49   C     C_R   0.365438 0.862174 0.064550 0.681165
O14   O     O_R   0.532860 0.904250 0.912040 -0.552047
O15   O     O_R   0.708190 0.099710 0.949550 -0.546622
C50   C     C_R   0.365171 0.882112 0.884980 0.692501
O16   O     O_R   0.206120 0.900260 0.050460 -0.543554
O17   O     O_3   0.375280 0.064080 0.012470 -0.370263
V3    V     V_3+5 0.648180 0.988110 0.997690 1.431043
O18   O     O_R   0.038220 0.111740 0.952370 -0.530590
C51   C     C_R   0.870383 0.137737 0.935073 0.735016
O19   O     O_R   0.040880 0.095790 0.087940 -0.540459
C52   C     C_R   0.872761 0.116742 0.115391 0.705025
V4    V     V_3+5 0.148800 0.011950 0.002300 1.468797
O20   O     O_3   0.871820 0.935920 0.987530 -0.375370
C53   C     C_1   0.798238 0.153166 0.501250 0.286561
N1    N     N_1   0.797051 0.127459 0.442561 -0.372550
H13   H     H_    0.444809 0.396977 0.267480 0.183183
H14   H     H_    0.443191 0.283376 0.304596 0.170112
C54   C     C_1   0.450839 0.299169 0.140199 0.417386
N2    N     N_1   0.404001 0.336216 0.096981 -0.343192
H15   H     H_    0.455435 0.175053 0.191058 0.121116
C55   C     C_1   0.845524 0.885081 0.782726 0.356504
N3    N     N_1   0.949550 0.953383 0.789255 -0.346452
C56   C     C_1   0.500432 0.025565 0.706958 0.301012
N4    N     N_1   0.375021 0.970037 0.687704 -0.333788
H16   H     H_    0.787673 0.772202 0.663430 0.189726
H17   H     H_    0.340060 0.839168 0.483860 0.140159
H18   H     H_    0.385768 0.608502 0.302997 0.111682
C57   C     C_1   0.187553 0.555653 0.203081 0.310855
N5    N     N_1   0.114827 0.493935 0.225904 -0.352450
H19   H     H_    0.378905 0.970404 0.185668 0.105237
C58   C     C_1   0.710602 0.013671 0.582664 0.330329
N6    N     N_1   0.681991 0.930363 0.556365 -0.359140
C59   C     C_1   0.842601 0.422821 0.708655 0.268581
N7    N     N_1   0.831810 0.506707 0.735353 -0.418931
C60   C     C_1   0.989830 0.339815 0.001481 0.297957
N8    N     N_1   0.005886 0.363725 0.059912 -0.331644
H20   H     H_    0.123165 0.437842 0.910241 0.124103

loop_
_geom_bond_atom_site_label_1
_geom_bond_atom_site_label_2
_ccdc_geom_bond_type
O18   V4    S    
V4    O20   S    
C54   N2    T    
C26   C54   S    
C5    C17   A    
C25   C26   S    
C4    C6    S    
C7    C8    A    
C1    O6    A    
C17   C53   S    
O17   V3    S    
C30   C31   A    
O19   C52   A    
C9    H1    S    
C14   C15   A    
C22   H4    S    
O12   C49   A    
C19   C26   S    
C42   C46   A    
C39   C57   S    
C46   H18   S    
O16   V4    S    
O5    C3    A    
V3    O20   S    
C27   C34   S    
C58   N6    T    
C38   H12   S    
V2    O10   S    
C59   N7    T    
C20   C21   A    
C20   C52   S    
C31   C32   A    
C60   N8    T    
O11   V4    S    
C40   C42   A    
C8    H20   S    
O8    V2    S    
C30   H6    S    
O1    V2    S    
C11   C15   A    
O7    V1    S    
C2    C36   S    
C33   C55   S    
C29   C30   A    
C44   C45   A    
C37   C38   A    
O9    C4    A    
O12   V3    S    
C35   C43   A    
C34   H8    S    
C19   C20   A    
O14   C50   A    
C41   C45   A    
C19   C24   A    
O19   V4    S    
C26   H15   S    
C11   C18   A    
C49   O16   A    
C6    C16   A    
C12   C13   A    
C23   C24   A    
O4    C2    A    
C45   H19   S    
C1    C28   S    
C13   C14   A    
C29   H5    S    
C34   H16   S    
C33   C34   S    
C38   C39   A    
C33   H7    S    
C21   H3    S    
O2    C1    A    
C27   C28   A    
C40   C41   A    
O15   C51   A    
O15   V3    S    
O13   C52   A    
O18   C51   A    
C41   C48   A    
C55   N3    T    
C32   C33   S    
O11   C50   A    
C36   C47   A    
C6    C17   A    
O17   V4    S    
C35   C47   A    
O3    C4    A    
C14   C56   S    
C36   C46   A    
C24   C25   S    
C25   H13   S    
C43   C44   A    
O6    V2    S    
C35   H10   S    
C48   C49   S    
C10   C12   A    
O2    V1    S    
C27   C32   A    
C28   C29   A    
C7    C60   S    
C21   C22   A    
C15   H2    S    
O1    C2    A    
C12   C16   A    
O5    V1    S    
O8    C3    A    
O13   V3    S    
C47   H17   S    
C5    C13   A    
C42   C43   A    
C3    C23   S    
O9    V2    S    
O7    V2    S    
O4    V1    S    
C22   C23   A    
O3    V1    S    
V1    O10   S    
C5    C58   S    
O14   V3    S    
C16   C59   S    
H9    C44   S    
C18   C51   S    
C39   C40   A    
C37   C48   A    
C31   C50   S    
C25   H14   S    
C8    C9    A    
C56   N4    T    
C57   N5    T    
C10   C11   A    
C53   N1    T    
C9    C10   A    
C7    C18   A    
C37   H11   S    
