data_mof_unit_31609.cif
_audit_creation_date              2012-12-10T20:48:47-0500
_audit_creation_method            fapswitch 2.2
_symmetry_space_group_name_H-M    P1
_symmetry_Int_Tables_number       1
_space_group_crystal_system       triclinic
_cell_length_a                    15.801574
_cell_length_b                    8.91372
_cell_length_c                    8.229803
_cell_angle_alpha                 89.999756
_cell_angle_beta                  89.795764
_cell_angle_gamma                 89.999638
_cell_volume                      1159.16702294

loop_
_atom_site_label
_atom_site_type_symbol
_atom_type_description
_atom_site_fract_x
_atom_site_fract_y
_atom_site_fract_z
_atom_type_partial_charge
C1    C     C_R   0.500000 0.218514 0.500000 0.916775
C2    C     C_3   0.051472 0.438369 0.345351 -0.321022
C3    C     C_3   0.948529 0.438370 0.654646 -0.321023
C4    C     C_3   0.952870 0.424748 0.351589 -0.215085
C5    C     C_1   0.750034 0.506069 0.498733 -0.145139
C6    C     C_1   0.249966 0.506064 0.501266 -0.145133
C7    C     C_3   0.083337 0.520119 0.502077 0.192867
C8    C     C_3   0.916660 0.520122 0.497922 0.192863
C9    C     C_3   0.949017 0.689697 0.493708 0.168990
C10   C     C_3   0.050983 0.689695 0.506291 0.168987
C11   C     C_2   0.091890 0.497300 0.191192 0.419355
C12   C     C_1   0.824936 0.512578 0.497595 -0.015834
C13   C     C_2   0.090802 0.433972 0.810787 0.532245
C14   C     C_2   0.909199 0.433980 0.189211 0.532243
C15   C     C_2   0.908111 0.497304 0.808806 0.419355
C16   C     C_1   0.175063 0.512572 0.502402 -0.015840
C17   C     C_R   0.338345 0.500238 0.500309 0.886746
C18   C     C_R   0.661655 0.500240 0.499691 0.886743
C19   C     C_1   0.500000 0.934639 0.500000 -0.179424
C20   C     C_1   0.500000 0.065331 0.500000 -0.181772
C21   C     C_R   0.500000 0.781459 0.500000 0.924129
C22   C     C_3   0.047131 0.424745 0.648408 -0.215079
H1    H     H_    0.924334 0.320752 0.650471 0.088535
H2    H     H_    0.845752 0.777731 0.619110 0.203574
H3    H     H_    0.949862 0.723868 0.240885 0.301300
H4    H     H_    0.926054 0.877728 0.348168 0.154705
H5    H     H_    0.152288 0.450869 0.153070 0.092163
H6    H     H_    0.069196 0.359837 0.906760 0.014263
H7    H     H_    0.930801 0.359840 0.093241 0.014259
H8    H     H_    0.847712 0.450879 0.846927 0.092164
H9    H     H_    0.939924 0.305137 0.382873 0.080958
H10   H     H_    0.060076 0.305133 0.617125 0.080957
H11   H     H_    0.075666 0.320750 0.349528 0.088535
H12   H     H_    0.073951 0.877723 0.651828 0.154705
H13   H     H_    0.050140 0.723866 0.759114 0.301300
H14   H     H_    0.154255 0.777716 0.380894 0.203570
H15   H     H_    0.069065 0.886655 0.375434 0.157654
H16   H     H_    0.930934 0.886646 0.624583 0.157661
N1    N     N_1   0.500000 0.500030 0.073640 -0.023665
N2    N     N_1   0.500000 0.500030 0.926360 -0.023665
N3    N     N_3   0.082069 0.761392 0.656698 -0.409374
N4    N     N_3   0.088383 0.774570 0.369740 -0.412263
N5    N     N_3   0.911616 0.774572 0.630259 -0.412290
N6    N     N_3   0.917933 0.761396 0.343301 -0.409365
O1    O     O_R   0.500000 0.285340 0.636850 -0.615357
O2    O     O_2   0.151727 0.515199 0.834511 -0.548571
O3    O     O_2   0.848275 0.515214 0.165487 -0.548568
O4    O     O_2   0.938588 0.599690 0.886929 -0.511698
O5    O     O_R   0.500000 0.285340 0.363150 -0.615357
O6    O     O_R   0.377140 0.500000 0.636930 -0.591564
O7    O     O_R   0.377140 0.500000 0.363070 -0.622874
O8    O     O_R   0.622860 0.500000 0.636930 -0.622873
O9    O     O_R   0.622860 0.500000 0.363070 -0.591564
O10   O     O_R   0.500000 0.714650 0.636900 -0.611737
O11   O     O_R   0.500000 0.714650 0.363100 -0.611738
O12   O     O_2   0.061416 0.599692 0.113070 -0.511693
Zn1   Zn    Zn3+2 0.500000 0.499990 0.682780 1.010981
Zn2   Zn    Zn3+2 0.500000 0.499990 0.317220 1.010980

loop_
_geom_bond_atom_site_label_1
_geom_bond_atom_site_label_2
_ccdc_geom_bond_type
C17   O6    A    
C7    C10   S    
C2    C4    S    
O9    Zn2   S    
C13   H6    S    
C14   O3    D    
N2    Zn1   S    
C8    C12   S    
C10   N4    S    
C7    C22   S    
C9    C10   S    
C3    C22   S    
C3    H1    S    
C19   C20   T    
C11   H5    S    
C4    C8    S    
O1    Zn1   S    
C17   O7    A    
C18   O8    A    
H16   N5    S    
O7    Zn2   S    
C10   N3    S    
O6    Zn1   S    
C1    O1    A    
C13   O2    D    
H12   N3    S    
C22   H10   S    
C15   O4    D    
C15   H8    S    
C2    C11   S    
C2    H11   S    
C7    C16   S    
C19   C21   S    
C13   C22   S    
C4    C14   S    
C21   O10   A    
H13   N3    S    
C9    N5    S    
C4    H9    S    
O8    Zn1   S    
C11   O12   D    
C14   H7    S    
H4    N6    S    
H15   N4    S    
C3    C15   S    
H3    N6    S    
C5    C12   T    
C3    C8    S    
C1    C20   S    
O11   Zn2   S    
N1    N2    T    
C21   O11   A    
C6    C17   S    
H2    N5    S    
C5    C18   S    
C18   O9    A    
N1    Zn2   S    
H14   N4    S    
C6    C16   T    
O5    Zn2   S    
C2    C7    S    
C8    C9    S    
C9    N6    S    
O10   Zn1   S    
C1    O5    A    
