data_mof_unit_52836.cif
_audit_creation_date              2012-12-11T19:47:19-0500
_audit_creation_method            fapswitch 2.2
_symmetry_space_group_name_H-M    P1
_symmetry_Int_Tables_number       1
_space_group_crystal_system       triclinic
_cell_length_a                    8.381843
_cell_length_b                    15.368726
_cell_length_c                    18.823781
_cell_angle_alpha                 103.117128
_cell_angle_beta                  91.685283
_cell_angle_gamma                 99.666898
_cell_volume                      2322.28099263

loop_
_atom_site_label
_atom_site_type_symbol
_atom_type_description
_atom_site_fract_x
_atom_site_fract_y
_atom_site_fract_z
_atom_type_partial_charge
Ba1   Ba    Ba6+2 0.853520 0.540910 0.466490 1.642087
Ba2   Ba    Ba6+2 0.336320 0.459170 0.533520 1.667204
C1    C     C_3   0.736298 0.860046 0.295452 -0.081182
C2    C     C_R   0.885266 0.425669 0.094874 -0.093108
C3    C     C_R   0.768713 0.410461 0.940334 0.120561
C4    C     C_3   0.176237 0.742912 0.273368 0.461231
C5    C     C_R   0.924583 0.458899 0.972568 0.003802
C6    C     C_R   0.707316 0.424990 0.875698 -0.080953
C7    C     C_R   0.804715 0.469592 0.831172 -0.076971
C8    C     C_R   0.966835 0.508554 0.856370 0.024804
C9    C     C_R   0.026115 0.505624 0.928311 0.010046
C10   C     C_R   0.746031 0.470151 0.760073 -0.039095
C11   C     C_R   0.849424 0.511000 0.713699 -0.088872
C12   C     C_3   0.666338 0.767048 0.309201 0.369735
C13   C     C_R   0.015618 0.544634 0.735507 0.041562
C14   C     C_R   0.070776 0.548403 0.809290 -0.059098
C15   C     C_R   0.146546 0.500597 0.070934 0.036580
C16   C     C_3   0.268900 0.814778 0.238438 -0.358434
C17   C     C_R   0.204955 0.500448 0.143785 0.000969
C18   C     C_R   0.103350 0.456297 0.189833 -0.056122
C19   C     C_R   0.949192 0.408761 0.158619 0.200941
C20   C     C_R   0.226749 0.591507 0.838003 -0.033123
C21   C     C_R   0.284189 0.591407 0.908071 -0.094051
C22   C     C_R   0.188525 0.546543 0.954156 0.011502
C23   C     C_3   0.420787 0.275775 0.302458 0.396273
C24   C     C_R   0.250051 0.542018 0.024844 0.029551
C25   C     C_R   0.412986 0.577329 0.051211 -0.103315
C26   C     C_R   0.366402 0.542375 0.169517 -0.020678
C27   C     C_R   0.468918 0.577853 0.121541 -0.104349
C28   C     C_3   0.253357 0.740680 0.628220 0.367075
C29   C     C_R   0.421962 0.546528 0.242068 -0.015772
C30   C     C_R   0.316824 0.509359 0.288338 -0.272437
C31   C     C_R   0.159445 0.463543 0.264626 0.050978
C32   C     C_R   0.845079 0.173757 0.549478 -0.015330
C33   C     C_R   0.781146 0.080505 0.541052 -0.049980
C34   C     C_3   0.350705 0.208057 0.229680 -0.125892
C35   C     C_R   0.654222 0.890146 0.526620 -0.030166
C36   C     C_R   0.801072 0.935252 0.569387 0.181091
C37   C     C_R   0.864098 0.026163 0.572556 -0.130295
C38   C     C_R   0.587939 0.793559 0.515035 0.082510
C39   C     C_R   0.436519 0.759486 0.474184 -0.141597
C40   C     C_3   0.283490 0.844803 0.645984 -0.108738
C41   C     C_R   0.603723 0.192253 0.482563 0.044122
C42   C     C_R   0.540230 0.096977 0.470804 -0.031351
C43   C     C_R   0.629224 0.041453 0.502455 -0.015781
C44   C     C_R   0.393012 0.053592 0.428790 0.156614
C45   C     C_3   0.007117 0.227150 0.722133 0.506959
C46   C     C_R   0.332793 0.963048 0.424326 -0.126058
C47   C     C_R   0.415478 0.908756 0.456143 -0.082647
C48   C     C_R   0.567617 0.946266 0.494335 -0.037279
C49   C     C_R   0.347465 0.817357 0.449077 0.010155
C50   C     C_R   0.750890 0.228637 0.523941 -0.246192
C51   C     C_3   0.897769 0.245064 0.339675 0.363360
C52   C     C_3   0.838494 0.152325 0.285412 -0.064561
C53   C     C_3   0.729209 0.728394 0.710316 0.441261
C54   C     C_3   0.688625 0.776718 0.789445 0.344193
C55   C     C_3   0.048230 0.192175 0.790801 0.379530
C56   C     C_3   0.591131 0.247342 0.718326 0.476710
C57   C     C_3   0.519891 0.146971 0.712200 0.203872
C58   C     C_R   0.983946 0.461146 0.045546 -0.019128
H1    H     H_    0.864409 0.881671 0.317902 0.131888
H2    H     H_    0.426613 0.913621 0.738174 0.197016
H3    H     H_    0.276647 0.866975 0.593946 0.019096
H4    H     H_    0.188139 0.871324 0.679630 0.073255
H5    H     H_    0.795051 0.281012 0.352642 0.069354
H6    H     H_    0.076013 0.205632 0.392926 0.203666
H7    H     H_    0.008808 0.295711 0.442300 0.196930
H8    H     H_    0.758848 0.162053 0.240652 0.090259
H9    H     H_    0.822881 0.073841 0.361811 0.179373
H10   H     H_    0.645645 0.103049 0.338484 0.204321
H11   H     H_    0.944381 0.126180 0.259879 0.117587
H12   H     H_    0.532544 0.757339 0.303233 -0.102255
H13   H     H_    0.958301 0.797860 0.708837 0.180191
H14   H     H_    0.948712 0.712587 0.751332 0.114382
H15   H     H_    0.662653 0.658824 0.699793 -0.050076
H16   H     H_    0.909734 0.863499 0.824680 0.152356
H17   H     H_    0.779893 0.905299 0.776064 0.196753
H18   H     H_    0.653986 0.654403 0.821654 0.137522
H19   H     H_    0.834562 0.721748 0.853677 0.159529
H20   H     H_    0.484446 0.806415 0.841125 0.190029
H21   H     H_    0.449250 0.725378 0.762755 0.189768
H22   H     H_    0.319883 0.302184 0.332062 0.065469
H23   H     H_    0.666667 0.910457 0.325437 0.074296
H24   H     H_    0.486259 0.382805 0.254231 0.116215
H25   H     H_    0.631210 0.323541 0.263429 0.196304
H26   H     H_    0.254495 0.155649 0.242155 0.108952
H27   H     H_    0.215034 0.297503 0.203533 0.176075
H28   H     H_    0.374007 0.283032 0.151428 0.168887
H29   H     H_    0.611020 0.830565 0.194638 0.185203
H30   H     H_    0.808661 0.821601 0.191357 0.205688
H31   H     H_    0.332942 0.781569 0.191935 0.092466
H32   H     H_    0.931044 0.339932 0.702555 0.112018
H33   H     H_    0.117140 0.361705 0.745307 0.223559
H34   H     H_    0.447191 0.172320 0.204165 0.109801
H35   H     H_    0.886381 0.188109 0.698317 -0.108264
H36   H     H_    0.234404 0.213663 0.870139 0.188102
H37   H     H_    0.207276 0.307946 0.845291 0.172572
H38   H     H_    0.814663 0.170524 0.821705 0.165671
H39   H     H_    0.918439 0.276131 0.858856 0.183130
H40   H     H_    0.138608 0.081316 0.733431 0.213145
H41   H     H_    0.070915 0.069773 0.814387 0.182014
H42   H     H_    0.691180 0.269098 0.761720 -0.083690
H43   H     H_    0.640468 0.253808 0.665192 -0.109550
H44   H     H_    0.617528 0.106075 0.698723 -0.030204
H45   H     H_    0.265692 0.708840 0.296229 -0.016568
H46   H     H_    0.352250 0.046165 0.646075 0.144974
H47   H     H_    0.434887 0.127192 0.605436 0.172884
H48   H     H_    0.011314 0.626173 0.242070 0.219385
H49   H     H_    0.987121 0.703869 0.194277 0.205593
H50   H     H_    0.546917 0.160056 0.823739 0.169108
H51   H     H_    0.423508 0.065331 0.778323 0.151829
H52   H     H_    0.833619 0.577909 0.632339 0.178892
H53   H     H_    0.668879 0.528624 0.646560 0.195119
H54   H     H_    0.583809 0.392537 0.858152 0.116018
H55   H     H_    0.928106 0.282228 0.172419 0.171964
H56   H     H_    0.183957 0.853107 0.217732 0.120520
H57   H     H_    0.750102 0.310141 0.156736 0.136287
H58   H     H_    0.307744 0.626139 0.806707 0.085375
H59   H     H_    0.594970 0.606520 0.137301 0.106507
H60   H     H_    0.362886 0.508966 0.342261 0.073582
H61   H     H_    0.759303 0.297195 0.983556 0.188473
H62   H     H_    0.587598 0.349419 0.993416 0.172188
H63   H     H_    0.756411 0.407615 0.084813 0.074966
H64   H     H_    0.405692 0.627982 0.924314 0.073107
H65   H     H_    0.502565 0.604977 0.018650 0.072618
H66   H     H_    0.894207 0.929936 0.667605 0.155652
H67   H     H_    0.359020 0.863271 0.279084 0.079562
H68   H     H_    0.007404 0.898156 0.597173 0.178199
H69   H     H_    0.978428 0.054546 0.603810 0.097860
H70   H     H_    0.218820 0.935910 0.392798 0.099372
H71   H     H_    0.180760 0.086301 0.401621 0.175459
H72   H     H_    0.301543 0.065965 0.332368 0.154973
H73   H     H_    0.324912 0.643249 0.503705 0.178647
H74   H     H_    0.444240 0.625551 0.433076 0.206247
H75   H     H_    0.799182 0.300279 0.531543 0.063198
H76   H     H_    0.367926 0.717733 0.613612 0.017522
H77   H     H_    0.158585 0.716113 0.582209 0.036012
H78   H     H_    0.705000 0.768638 0.366529 0.043386
H79   H     H_    0.500553 0.934041 0.660770 0.165449
N1    N     N_3   0.442763 0.882720 0.684089 -0.454568
N2    N     N_3   0.727497 0.860642 0.217873 -0.472732
N3    N     N_3   0.000350 0.324085 0.743219 -0.538472
N4    N     N_3   0.209074 0.238948 0.824725 -0.407691
N5    N     N_3   0.927253 0.207470 0.844871 -0.511581
N6    N     N_3   0.046468 0.094013 0.768316 -0.515611
N7    N     N_3   0.389237 0.116263 0.654193 -0.408185
N8    N     N_3   0.073476 0.674135 0.216758 -0.500267
N9    N     N_3   0.456107 0.134733 0.781442 -0.450192
N10   N     N_3   0.786001 0.515992 0.642861 -0.436907
N11   N     N_3   0.863288 0.335479 0.185465 -0.467095
N12   N     N_3   0.971895 0.232288 0.406484 -0.536072
N13   N     N_3   0.682059 0.332219 0.961088 -0.518754
N14   N     N_3   0.888996 0.892944 0.613405 -0.444277
N15   N     N_3   0.300969 0.097801 0.387701 -0.455014
N16   N     N_3   0.365877 0.665183 0.458245 -0.485806
N17   N     N_3   0.751243 0.082946 0.318623 -0.507567
N18   N     N_3   0.902468 0.731283 0.706195 -0.499511
N19   N     N_3   0.787978 0.867613 0.815374 -0.462884
N20   N     N_3   0.711799 0.721695 0.842451 -0.508763
N21   N     N_3   0.519363 0.787733 0.787661 -0.443347
N22   N     N_3   0.538031 0.351217 0.289968 -0.455250
N23   N     N_3   0.280818 0.249810 0.176610 -0.513654
O1    O     O_2   0.871960 0.437280 0.322960 -0.428286
O2    O     O_2   0.176388 0.181692 0.534162 -0.462967
O3    O     O_3   0.124934 0.211251 0.671074 -0.548657
O4    O     O_3   0.121410 0.444460 0.412450 -0.493296
O5    O     O_3   0.580430 0.613240 0.540320 -0.515074
O6    O     O_2   0.337390 0.273050 0.457610 -0.443848
O7    O     O_3   0.501768 0.226680 0.341481 -0.663022
O8    O     O_2   0.406906 0.462514 0.750504 -0.491394
O9    O     O_3   0.471341 0.300579 0.737041 -0.543141
O10   O     O_3   0.661450 0.607570 0.372550 -0.485306
O11   O     O_2   0.746463 0.526956 0.244550 -0.474346
O12   O     O_3   0.673045 0.769870 0.657866 -0.604486
O13   O     O_3   0.015120 0.292563 0.304703 -0.666538
O14   O     O_3   0.721994 0.697033 0.259892 -0.604841
O15   O     O_2   0.852310 0.726980 0.542430 -0.442764
O16   O     O_3   0.084010 0.657370 0.410280 -0.441934
O17   O     O_2   0.013340 0.818560 0.462773 -0.493597
O18   O     O_3   0.078391 0.784613 0.325775 -0.600093
O19   O     O_2   0.317750 0.562750 0.677090 -0.477753
O20   O     O_3   0.068300 0.555620 0.587560 -0.485421
O21   O     O_3   0.528270 0.392500 0.627460 -0.451795
O22   O     O_3   0.202158 0.708649 0.689037 -0.645549
O23   O     O_3   0.609290 0.386840 0.459690 -0.456345
O24   O     O_3   0.105700 0.342700 0.589730 -0.462397
P1    P     P_3+3 0.039430 0.410940 0.333230 0.989438
P2    P     P_3+3 0.676770 0.715000 0.563590 1.012022
P3    P     P_3+3 0.132497 0.771719 0.412947 0.962323
P4    P     P_3+3 0.150290 0.589140 0.666780 0.973181
P5    P     P_3+3 0.058481 0.226342 0.586046 0.982056
P6    P     P_3+3 0.635313 0.593428 0.278588 0.951260
P7    P     P_3+3 0.516882 0.270791 0.436288 0.984002
P8    P     P_3+3 0.539730 0.408182 0.721588 0.976885

loop_
_geom_bond_atom_site_label_1
_geom_bond_atom_site_label_2
_ccdc_geom_bond_type
C53   H15   S    
C53   C54   S    
C15   C24   A    
C2    C19   A    
C55   N6    S    
C25   C27   A    
H25   N22   S    
C17   C18   A    
C1    N2    S    
C26   C27   A    
C51   C52   S    
O10   P6    S    
C5    C9    A    
C27   H59   S    
C45   N3    S    
H41   N6    S    
C24   C25   A    
C3    N13   S    
H10   N17   S    
C57   H44   S    
Ba1   O4    S    
C10   P8    S    
C32   P5    S    
C22   C24   A    
C32   C33   A    
C35   C38   A    
O18   P3    S    
H19   N20   S    
C36   C37   A    
C45   O3    S    
H28   N23   S    
C41   C50   A    
H20   N21   S    
C52   H8    S    
Ba1   O5    S    
C13   C14   A    
H13   N18   S    
C9    C22   A    
O3    P5    S    
O21   P8    S    
O1    P1    D    
Ba1   Ba2   S    
Ba2   O20   S    
O24   P5    S    
H37   N4    S    
C54   N19   S    
O12   P2    S    
Ba1   O15   S    
C52   H11   S    
C12   H78   S    
C23   N22   S    
C6    C7    A    
C47   C49   A    
H72   N15   S    
C21   C22   A    
H57   N11   S    
C56   H42   S    
O2    P5    D    
H32   N3    S    
C7    C8    A    
Ba2   O4    S    
C49   P3    S    
C6    H54   S    
H17   N19   S    
H48   N8    S    
H38   N5    S    
C57   N9    S    
C1    H1    S    
H21   N21   S    
C34   N23   S    
O19   P4    D    
C46   H70   S    
H49   N8    S    
C28   O22   S    
C30   H60   S    
O9    P8    S    
H50   N9    S    
C20   C21   A    
C42   C44   A    
Ba1   P1    S    
C4    C16   S    
C44   C46   A    
H9    N17   S    
C26   C29   A    
C55   N4    S    
H7    N12   S    
O4    P1    S    
C57   N7    S    
H53   N10   S    
H39   N5    S    
C16   H56   S    
C3    C5    A    
O16   P3    S    
O7    P7    S    
C37   H69   S    
C34   H26   S    
C56   C57   S    
C40   N1    S    
C29   P6    S    
C2    H63   S    
Ba2   O19   S    
H62   N13   S    
C33   C37   A    
C41   C42   A    
Ba2   O24   S    
C53   O12   S    
C35   C36   A    
C16   H67   S    
C45   C55   S    
Ba1   O16   S    
H74   N16   S    
O17   P3    D    
H40   N6    S    
Ba1   O20   S    
H16   N19   S    
C2    C58   A    
C31   P1    S    
C19   N11   S    
C10   C11   A    
C17   C26   A    
O15   P2    D    
C1    C12   S    
H68   N14   S    
H71   N15   S    
C18   C31   A    
C44   N15   S    
C38   C39   A    
C13   P4    S    
C28   H76   S    
O6    P7    D    
C11   C13   A    
C1    H23   S    
C23   H22   S    
O22   P4    S    
C3    C6    A    
C16   H31   S    
C33   C43   A    
Ba2   O6    S    
C5    C58   A    
C51   H5    S    
C42   C43   A    
C51   O13   S    
O8    P8    D    
Ba1   P2    S    
C23   O7    S    
H47   N7    S    
C20   H58   S    
C46   C47   A    
C14   C20   A    
O11   P6    D    
C55   N5    S    
C4    O18   S    
C23   C34   S    
H73   N16   S    
C12   H12   S    
C29   C30   A    
Ba2   P4    S    
O23   P7    S    
C40   H4    S    
H79   N1    S    
C21   H64   S    
C38   P2    S    
Ba1   O23   S    
C54   N20   S    
Ba1   O10   S    
C32   C50   A    
H46   N7    S    
H61   N13   S    
C41   P7    S    
C30   C31   A    
C56   O9    S    
Ba2   O23   S    
C11   N10   S    
H6    N12   S    
C54   N21   S    
C8    C14   A    
H51   N9    S    
H36   N4    S    
C52   N17   S    
C4    N8    S    
C25   H65   S    
C43   C48   A    
H14   N18   S    
H29   N2    S    
O5    P2    S    
Ba2   O5    S    
H55   N11   S    
C35   C48   A    
C15   C17   A    
C4    H45   S    
Ba2   O21   S    
C7    C10   A    
H30   N2    S    
O14   P6    S    
C8    C9    A    
H33   N3    S    
C15   C58   A    
O13   P1    S    
H66   N14   S    
C34   H34   S    
H18   N20   S    
C53   N18   S    
H27   N23   S    
C18   C19   A    
Ba1   O1    S    
C47   C48   A    
C28   H77   S    
C50   H75   S    
C45   H35   S    
H52   N10   S    
C28   C40   S    
C56   H43   S    
O20   P4    S    
C36   N14   S    
H2    N1    S    
C40   H3    S    
C39   C49   A    
H24   N22   S    
C51   N12   S    
C39   N16   S    
C12   O14   S    
