data_mof_unit_43432.cif
_audit_creation_date              2012-12-10T19:44:55-0500
_audit_creation_method            fapswitch 2.2
_symmetry_space_group_name_H-M    P1
_symmetry_Int_Tables_number       1
_space_group_crystal_system       triclinic
_cell_length_a                    15.061009
_cell_length_b                    10.835997
_cell_length_c                    13.6931
_cell_angle_alpha                 90.475634
_cell_angle_beta                  89.279974
_cell_angle_gamma                 89.674931
_cell_volume                      2234.43751763

loop_
_atom_site_label
_atom_site_type_symbol
_atom_type_description
_atom_site_fract_x
_atom_site_fract_y
_atom_site_fract_z
_atom_type_partial_charge
C1    C     C_R   0.497795 0.262160 0.499453 0.859540
C2    C     C_R   0.502205 0.737840 0.500547 0.859540
C3    C     C_R   0.041139 0.351301 0.634229 -0.106453
C4    C     C_R   0.958861 0.648699 0.365771 -0.106453
C5    C     C_R   0.314279 0.244278 0.251872 0.293378
C6    C     C_R   0.685721 0.755722 0.748128 0.293378
C7    C     C_R   0.348656 0.188969 0.335653 0.602140
C8    C     C_R   0.651344 0.811031 0.664347 0.602140
C9    C     C_R   0.426946 0.117565 0.329110 -0.159149
C10   C     C_R   0.573054 0.882435 0.670890 -0.159149
C11   C     C_R   0.468144 0.098901 0.237479 -0.244832
C12   C     C_R   0.531856 0.901099 0.762521 -0.244832
C13   C     C_R   0.432898 0.152840 0.153997 0.652708
C14   C     C_R   0.567101 0.847160 0.846003 0.652709
C15   C     C_R   0.356636 0.226434 0.161322 -0.352419
C16   C     C_R   0.643364 0.773566 0.838677 -0.352419
C17   C     C_R   0.470665 0.932342 0.419688 -0.215727
C18   C     C_R   0.529335 0.067658 0.580312 -0.215727
C19   C     C_R   0.503880 0.871700 0.501493 -0.036381
C20   C     C_R   0.496120 0.128300 0.498507 -0.036381
C21   C     C_R   0.534390 0.939906 0.582834 0.132581
C22   C     C_R   0.465610 0.060094 0.417166 0.132581
C23   C     C_R   0.328745 0.497098 0.500638 0.908834
C24   C     C_R   0.671255 0.502902 0.499362 0.908836
C25   C     C_R   0.557291 0.424228 0.791652 -0.018628
C26   C     C_R   0.442709 0.575772 0.208348 -0.018627
C27   C     C_R   0.442708 0.575639 0.794539 0.763569
C28   C     C_R   0.557292 0.424361 0.205461 0.763569
C29   C     C_R   0.441404 0.577217 0.897619 -0.155006
C30   C     C_R   0.558595 0.422783 0.102380 -0.155006
C31   C     C_R   0.500137 0.499739 0.948129 -0.011222
C32   C     C_R   0.499863 0.500261 0.051871 -0.011222
C33   C     C_R   0.559028 0.421790 0.894907 -0.063256
C34   C     C_R   0.440972 0.578210 0.105093 -0.063256
C35   C     C_R   0.383089 0.654668 0.950974 -0.073015
C36   C     C_R   0.616911 0.345332 0.049026 -0.073015
C37   C     C_R   0.382609 0.655898 0.053532 0.415029
C38   C     C_R   0.617391 0.344102 0.946468 0.415029
C39   C     C_R   0.815187 0.579869 0.431452 0.378952
C40   C     C_R   0.184813 0.420131 0.568548 0.378952
C41   C     C_R   0.767823 0.505510 0.497978 -0.099496
C42   C     C_R   0.232177 0.494490 0.502022 -0.099495
C43   C     C_R   0.812524 0.431927 0.564898 -0.219602
C44   C     C_R   0.187476 0.568073 0.435102 -0.219602
C45   C     C_R   0.904706 0.429342 0.566078 0.122736
C46   C     C_R   0.095294 0.570658 0.433922 0.122736
C47   C     C_R   0.953291 0.501654 0.499328 0.040466
C48   C     C_R   0.046708 0.498346 0.500671 0.040466
C49   C     C_R   0.908664 0.577416 0.431534 0.019906
C50   C     C_R   0.091336 0.422584 0.568466 0.019906
C51   C     C_R   0.948846 0.354886 0.632995 -0.135910
C52   C     C_R   0.051154 0.645114 0.367005 -0.135910
Cu1   Cu    Cu3+1 0.500010 0.499980 0.597420 1.055784
Cu2   Cu    Cu3+1 0.499990 0.500020 0.402580 1.055784
H1    H     H_    0.445911 0.879846 0.358041 0.176831
H2    H     H_    0.554089 0.120154 0.641959 0.176831
H3    H     H_    0.601413 0.365897 0.748577 0.193263
H4    H     H_    0.398587 0.634103 0.251423 0.193263
H5    H     H_    0.337811 0.715188 0.913088 0.224258
H6    H     H_    0.662189 0.284812 0.086912 0.224258
H7    H     H_    0.775091 0.375434 0.615742 0.176141
H8    H     H_    0.224909 0.624566 0.384258 0.176141
H9    H     H_    0.911862 0.299124 0.684571 0.182574
H10   H     H_    0.088138 0.700876 0.315429 0.182574
H11   H     H_    0.072293 0.292527 0.687416 0.213339
H12   H     H_    0.927707 0.707473 0.312583 0.213339
H13   H     H_    0.330187 0.269032 0.096538 0.226776
H14   H     H_    0.669813 0.730968 0.903462 0.226776
H15   H     H_    0.527915 0.043208 0.230970 0.220898
H16   H     H_    0.472084 0.956792 0.769030 0.220898
N1    N     N_R   0.499960 0.499900 0.743810 -0.249398
N2    N     N_R   0.500040 0.500100 0.256190 -0.249398
O1    O     O_R   0.500000 0.319630 0.582270 -0.591346
O2    O     O_R   0.500000 0.680370 0.417730 -0.591346
O3    O     O_R   0.499990 0.319660 0.417730 -0.561212
O4    O     O_R   0.500010 0.680340 0.582270 -0.561211
O5    O     O_R   0.370260 0.499960 0.582280 -0.501092
O6    O     O_R   0.629740 0.500040 0.417720 -0.501093
O7    O     O_R   0.370250 0.499990 0.417740 -0.599800
O8    O     O_R   0.629750 0.500010 0.582260 -0.599800
Cl1   Cl    Cl    0.757343 0.680465 0.352425 -0.519760
Cl2   Cl    Cl    0.242657 0.319534 0.647575 -0.519760
F1    F     F_    0.387043 0.650443 0.744750 -0.649386
F2    F     F_    0.612957 0.349557 0.255250 -0.649386
Cl3   Cl    Cl    0.307925 0.757186 0.114182 -0.570883
Cl4   Cl    Cl    0.692074 0.242814 0.885818 -0.570883
Cl5   Cl    Cl    0.217720 0.335436 0.259537 -0.509786
Cl6   Cl    Cl    0.782280 0.664564 0.740463 -0.509786
F3    F     F_    0.306170 0.204524 0.422969 -0.623539
F4    F     F_    0.693830 0.795476 0.577031 -0.623539
F5    F     F_    0.472886 0.133970 0.065832 -0.592407
F6    F     F_    0.527114 0.866030 0.934168 -0.592407

loop_
_geom_bond_atom_site_label_1
_geom_bond_atom_site_label_2
_ccdc_geom_bond_type
C4    H12   S    
C28   F2    S    
C34   C37   A    
C26   N2    A    
C27   N1    A    
C47   C49   A    
C28   N2    A    
Cu1   Cu2   S    
C4    C52   A    
C23   C42   S    
C25   H3    S    
C38   Cl4   S    
C37   Cl3   S    
C35   C37   A    
C9    C22   S    
C27   C29   A    
C45   C51   A    
C18   C21   A    
C46   C52   A    
C6    Cl6   S    
C35   H5    S    
Cu2   O2    S    
C26   C34   A    
C47   C48   A    
C44   C46   A    
C31   C33   A    
C25   N1    A    
C27   F1    S    
C17   H1    S    
C2    O2    A    
C18   H2    S    
C40   C42   A    
C13   F5    S    
C24   C41   S    
C41   C43   A    
C3    H11   S    
C42   C44   A    
C3    C50   A    
C24   O8    A    
C45   C47   A    
C10   C21   S    
C46   C48   A    
C1    O3    A    
C40   Cl2   S    
Cu1   O8    S    
C51   H9    S    
C39   Cl1   S    
C39   C41   A    
C52   H10   S    
C5    C7    A    
C3    C51   A    
C6    C8    A    
C44   H8    S    
C32   C34   A    
Cu1   O5    S    
C26   H4    S    
C31   C32   A    
C15   H13   S    
C23   O5    A    
C48   C50   A    
C9    C11   A    
C14   F6    S    
C10   C12   A    
C16   H14   S    
C24   O6    A    
C39   C49   A    
C20   C22   A    
C13   C15   A    
C14   C16   A    
Cu1   O4    S    
C8    F4    S    
Cu1   N1    S    
C2    O4    A    
C43   H7    S    
Cu2   O7    S    
C7    C9    A    
C12   H16   S    
C1    C20   S    
C19   C21   A    
C2    C19   S    
C8    C10   A    
Cu1   O1    S    
C33   C38   A    
C12   C14   A    
C36   H6    S    
C11   H15   S    
C29   C35   A    
C17   C22   A    
C30   C36   A    
C4    C49   A    
C1    O1    A    
C36   C38   A    
C43   C45   A    
C30   C32   A    
C11   C13   A    
C40   C50   A    
C28   C30   A    
C17   C19   A    
C18   C20   A    
C5    C15   A    
C6    C16   A    
Cu2   O3    S    
C5    Cl5   S    
Cu2   N2    S    
C29   C31   A    
C23   O7    A    
C25   C33   A    
Cu2   O6    S    
C7    F3    S    
