data_mof_unit_23699.cif
_audit_creation_date              2012-12-10T19:56:44-0500
_audit_creation_method            fapswitch 2.2
_symmetry_space_group_name_H-M    P1
_symmetry_Int_Tables_number       1
_space_group_crystal_system       triclinic
_cell_length_a                    28.715545
_cell_length_b                    18.242157
_cell_length_c                    18.250969
_cell_angle_alpha                 89.898601
_cell_angle_beta                  130.889802
_cell_angle_gamma                 90.078181
_cell_volume                      7227.41580691

loop_
_atom_site_label
_atom_site_type_symbol
_atom_type_description
_atom_site_fract_x
_atom_site_fract_y
_atom_site_fract_z
_atom_type_partial_charge
C1    C     C_R   0.500320 0.000029 0.359054 0.938430
C2    C     C_R   0.220236 0.037002 0.277449 -0.024564
C3    C     C_R   0.807034 0.448043 0.121937 -0.021279
C4    C     C_R   0.672816 0.899591 0.915855 0.100672
C5    C     C_R   0.345092 0.883369 0.116356 0.082824
C6    C     C_R   0.172691 0.398772 0.914438 0.099732
C7    C     C_R   0.827301 0.406658 0.081870 0.099380
C8    C     C_R   0.644201 0.831608 0.872068 -0.172252
C9    C     C_R   0.364973 0.813189 0.157933 -0.183844
C10   C     C_R   0.143412 0.331210 0.869897 -0.171678
C11   C     C_R   0.856989 0.338973 0.125211 -0.168933
C12   C     C_R   0.783176 0.951678 0.829843 -0.050845
C13   C     C_R   0.280075 0.541928 0.725621 -0.031477
C14   C     C_R   0.216872 0.951297 0.170143 -0.053741
C15   C     C_R   0.283266 0.450769 0.828363 -0.051293
C16   C     C_R   0.716955 0.452915 0.168868 -0.051878
C17   C     C_1   0.863202 0.278469 0.721921 0.137510
C18   C     C_1   0.112500 0.258587 0.264192 0.149614
C19   C     C_1   0.348296 0.793286 0.725355 0.140954
C20   C     C_1   0.610669 0.756646 0.260995 0.142709
C21   C     C_1   0.810889 0.188713 0.782583 0.166967
C22   C     C_1   0.165173 0.178660 0.197186 0.153992
C23   C     C_1   0.301287 0.692411 0.784936 0.173089
C24   C     C_R   0.720402 0.535315 0.278859 -0.023382
C25   C     C_1   0.667109 0.677733 0.199647 0.155400
C26   C     C_1   0.610934 0.735094 0.752648 0.144020
C27   C     C_1   0.377875 0.716727 0.263934 0.142902
C28   C     C_1   0.108842 0.235456 0.748991 0.145608
C29   C     C_1   0.892021 0.241194 0.244277 0.151531
C30   C     C_1   0.719427 0.014649 0.916099 0.142948
C31   C     C_1   0.298192 0.003308 0.100858 0.137229
C32   C     C_1   0.220457 0.513196 0.915984 0.143376
C33   C     C_1   0.779719 0.519820 0.083171 0.143096
C34   C     C_3   0.685064 0.926429 0.006176 -0.431829
C35   C     C_R   0.715930 0.040619 0.662372 -0.057654
C36   C     C_3   0.671546 0.871196 0.053845 -0.330307
C37   C     C_3   0.693260 0.900330 0.150258 -0.774644
C38   C     C_3   0.349653 0.904920 0.041296 -0.403886
C39   C     C_3   0.289606 0.887037 0.939141 -0.354358
C40   C     C_3   0.294697 0.904852 0.862925 -0.781693
C41   C     C_3   0.184780 0.425634 0.004620 -0.431309
C42   C     C_3   0.170803 0.370576 0.051824 -0.331236
C43   C     C_3   0.192652 0.399562 0.148383 -0.771254
C44   C     C_3   0.814170 0.434953 0.991340 -0.429534
C45   C     C_3   0.826331 0.380352 0.941629 -0.331699
C46   C     C_R   0.284118 0.040594 0.337148 -0.072104
C47   C     C_3   0.802992 0.410099 0.844504 -0.777721
C48   C     C_1   0.817397 0.901021 0.911402 0.199985
C49   C     C_1   0.182609 0.901641 0.087702 0.197371
C50   C     C_1   0.317532 0.398783 0.908412 0.198973
C51   C     C_1   0.682813 0.403663 0.085970 0.200692
C52   C     C_1   0.680981 0.085174 0.574896 0.171057
C53   C     C_1   0.319082 0.084638 0.424958 0.176517
C54   C     C_1   0.180966 0.587787 0.576693 0.172261
C55   C     C_1   0.819585 0.579823 0.429049 0.172841
C56   C     C_3   0.813182 0.971173 0.615569 -0.418003
C57   C     C_R   0.215966 0.542456 0.663493 -0.053422
C58   C     C_3   0.749333 0.959796 0.515553 -0.355436
C59   C     C_3   0.740492 0.880596 0.481878 -0.854554
C60   C     C_3   0.217956 0.970917 0.423273 -0.444898
C61   C     C_3   0.172733 0.907566 0.364298 -0.317269
C62   C     C_3   0.200883 0.834494 0.416714 -0.864867
C63   C     C_3   0.318600 0.486890 0.619649 -0.413851
C64   C     C_3   0.257367 0.478403 0.515354 -0.359796
C65   C     C_3   0.249906 0.401014 0.477299 -0.852601
C66   C     C_3   0.715408 0.469084 0.421905 -0.444395
C67   C     C_3   0.670346 0.405956 0.361217 -0.317162
C68   C     C_R   0.784390 0.538147 0.339317 -0.071576
C69   C     C_3   0.697589 0.332714 0.413641 -0.862788
C70   C     C_3   0.872995 0.064004 0.563117 -0.429320
C71   C     C_3   0.897203 0.118263 0.530144 -0.365888
C72   C     C_3   0.910929 0.079573 0.471997 -0.835602
C73   C     C_3   0.154782 0.055828 0.478860 -0.442199
C74   C     C_3   0.209447 0.082638 0.581164 -0.335079
C75   C     C_3   0.207190 0.051115 0.656275 -0.857359
C76   C     C_3   0.384601 0.588651 0.586704 -0.430101
C77   C     C_3   0.413372 0.646873 0.565715 -0.370779
C78   C     C_3   0.437181 0.612525 0.519505 -0.812888
C79   C     C_R   0.686161 0.999034 0.686208 -0.132760
C80   C     C_3   0.648519 0.553275 0.471541 -0.441404
C81   C     C_3   0.701054 0.580425 0.574806 -0.334502
C82   C     C_3   0.694211 0.551179 0.645684 -0.869393
C83   C     C_R   0.313865 0.998681 0.313848 -0.131734
C84   C     C_R   0.186199 0.499073 0.685924 -0.133980
C85   C     C_R   0.499708 0.999918 0.640975 0.938442
C86   C     C_R   0.813972 0.498916 0.313733 -0.130162
C87   C     C_R   0.719291 0.954402 0.769542 -0.029993
C88   C     C_R   0.280856 0.952307 0.232262 -0.034005
C89   C     C_R   0.219410 0.453490 0.768395 -0.029795
C90   C     C_R   0.780830 0.455872 0.229250 -0.030127
C91   C     C_R   0.826279 0.052083 0.643676 0.114555
C92   C     C_R   0.187941 0.045140 0.377543 0.118405
C93   C     C_R   0.330091 0.566520 0.653348 0.118557
C94   C     C_R   0.685973 0.543456 0.376104 0.119609
C95   C     C_R   0.854413 0.096808 0.617834 0.115537
C96   C     C_R   0.000292 0.500026 0.359024 0.938216
C97   C     C_R   0.159140 0.084699 0.405590 0.116382
C98   C     C_R   0.359040 0.616169 0.633417 0.121030
C99   C     C_R   0.655616 0.582729 0.401619 0.116680
C100  C     C_R   0.865709 0.171215 0.645158 -0.206271
C101  C     C_R   0.134523 0.154353 0.366306 -0.236505
C102  C     C_R   0.364442 0.690489 0.658957 -0.207906
C103  C     C_R   0.631392 0.652451 0.362184 -0.239532
C104  C     C_R   0.851083 0.201428 0.697971 -0.009172
C105  C     C_R   0.136878 0.185537 0.299033 0.005649
C106  C     C_R   0.344377 0.715656 0.706256 -0.014636
C107  C     C_R   0.999712 0.499917 0.640980 0.939940
C108  C     C_R   0.635517 0.683942 0.297026 0.009133
C109  C     C_R   0.824670 0.157599 0.725648 -0.046073
C110  C     C_R   0.163606 0.146637 0.268271 -0.032209
C111  C     C_R   0.319596 0.666420 0.731969 -0.051216
C112  C     C_R   0.663864 0.645400 0.268797 -0.032752
C113  C     C_R   0.620206 0.999877 0.621891 0.896404
C114  C     C_R   0.379810 0.999804 0.378182 0.895455
C115  C     C_R   0.120221 0.499871 0.621716 0.896397
C116  C     C_R   0.879846 0.499861 0.377952 0.898329
C117  C     C_R   0.811508 0.083178 0.697893 0.034599
C118  C     C_R   0.813319 0.996376 0.809244 -0.157777
C119  C     C_R   0.189338 0.076530 0.307353 0.037028
C120  C     C_R   0.311667 0.591951 0.704866 0.026255
C121  C     C_R   0.689240 0.575188 0.308090 0.037290
C122  C     C_1   0.501316 0.000043 0.283596 -0.180240
C123  C     C_1   0.498752 0.999731 0.716475 -0.182101
C124  C     C_1   0.001250 0.500018 0.283525 -0.179516
C125  C     C_1   0.998752 0.499729 0.716476 -0.179892
C126  C     C_1   0.501683 0.999949 0.219165 -0.192601
C127  C     C_1   0.498383 0.999663 0.780907 -0.186674
C128  C     C_1   0.001617 0.499891 0.219092 -0.181629
C129  C     C_R   0.186732 0.995959 0.190701 -0.147652
C130  C     C_1   0.998382 0.499658 0.780907 -0.183190
C131  C     C_R   0.999783 0.141297 0.999698 0.942647
C132  C     C_R   0.499799 0.641295 0.999702 0.942729
C133  C     C_R   0.879620 0.999636 0.878464 0.890614
C134  C     C_R   0.120396 0.999262 0.121539 0.886344
C135  C     C_R   0.379646 0.500245 0.878521 0.892415
C136  C     C_R   0.620427 0.499094 0.121613 0.886278
C137  C     C_R   0.000033 0.858772 0.000091 0.931706
C138  C     C_R   0.500031 0.358772 0.000090 0.933272
C139  C     C_R   0.500010 0.140924 0.000058 0.935151
C140  C     C_R   0.313389 0.497379 0.809451 -0.156529
C141  C     C_R   0.000010 0.640923 0.000056 0.935400
C142  C     C_R   0.500615 0.999880 0.141577 0.936470
C143  C     C_R   0.499399 0.999760 0.858440 0.929419
C144  C     C_R   0.000600 0.499822 0.141560 0.938775
C145  C     C_R   0.999399 0.499755 0.858440 0.934717
C146  C     C_R   0.499946 0.859066 0.999480 0.939339
C147  C     C_R   0.999955 0.359066 0.999623 0.942057
C148  C     C_1   0.999718 0.217773 0.999398 -0.183166
C149  C     C_1   0.499706 0.717768 0.999308 -0.184502
C150  C     C_R   0.638943 0.805370 0.794975 0.033180
C151  C     C_R   0.686830 0.495641 0.190990 -0.150572
C152  C     C_R   0.358362 0.789368 0.223477 0.040911
C153  C     C_R   0.138047 0.305020 0.792678 0.033163
C154  C     C_R   0.862728 0.311027 0.202173 0.033702
C155  C     C_1   0.499779 0.782579 0.999164 -0.179752
C156  C     C_1   0.999807 0.282583 0.999349 -0.177509
C157  C     C_1   0.000042 0.782271 0.000202 -0.179683
C158  C     C_1   0.500041 0.282272 0.000204 -0.179140
C159  C     C_1   0.500033 0.217439 0.000173 -0.178431
C160  C     C_1   0.000034 0.717439 0.000171 -0.178822
C161  C     C_R   0.662606 0.846100 0.760985 -0.156571
C162  C     C_R   0.779954 0.038495 0.723290 -0.028338
C163  C     C_R   0.331603 0.835445 0.247991 -0.157591
C164  C     C_R   0.162335 0.345333 0.759396 -0.155224
C165  C     C_R   0.838453 0.349695 0.236389 -0.158258
C166  C     C_R   0.688699 0.915247 0.800024 0.028098
C167  C     C_R   0.312517 0.906324 0.208901 0.037650
C168  C     C_R   0.189023 0.414146 0.799109 0.028739
C169  C     C_R   0.811518 0.418659 0.198007 0.025307
C170  C     C_R   0.692798 0.942808 0.876401 -0.021702
C171  C     C_R   0.319137 0.930686 0.142680 -0.006039
C172  C     C_R   0.193264 0.441656 0.875645 -0.022051
H1    H     H_    0.626542 0.797912 0.897943 0.139221
H2    H     H_    0.325373 0.816283 0.297375 0.139705
H3    H     H_    0.160601 0.323232 0.702527 0.148462
H4    H     H_    0.840253 0.326100 0.292782 0.148203
H5    H     H_    0.744140 0.906807 0.202821 0.232036
H6    H     H_    0.671670 0.954172 0.139805 0.261528
H7    H     H_    0.680335 0.861152 0.180968 0.260385
H8    H     H_    0.621227 0.860401 0.004789 0.239093
H9    H     H_    0.696116 0.818904 0.068166 0.234864
H10   H     H_    0.734676 0.941274 0.061007 0.211245
H11   H     H_    0.657836 0.977080 0.987515 0.226813
H12   H     H_    0.384692 0.776525 0.137844 0.147630
H13   H     H_    0.305577 0.963820 0.866038 0.250997
H14   H     H_    0.331306 0.871004 0.875088 0.282055
H15   H     H_    0.250316 0.892397 0.789695 0.236145
H16   H     H_    0.278771 0.827790 0.934359 0.244078
H17   H     H_    0.251106 0.919296 0.923373 0.231633
H18   H     H_    0.359642 0.964375 0.046762 0.228383
H19   H     H_    0.388577 0.875308 0.055025 0.212766
H20   H     H_    0.243572 0.405567 0.201038 0.233387
H21   H     H_    0.171402 0.453612 0.138214 0.261834
H22   H     H_    0.179453 0.360549 0.178838 0.259864
H23   H     H_    0.125185 0.297883 0.895141 0.139522
H24   H     H_    0.120404 0.360291 0.002629 0.239446
H25   H     H_    0.195013 0.318033 0.065840 0.234507
H26   H     H_    0.234445 0.440160 0.059741 0.212253
H27   H     H_    0.157738 0.476471 0.985951 0.226323
H28   H     H_    0.752186 0.416716 0.794041 0.233813
H29   H     H_    0.824568 0.463854 0.854209 0.260607
H30   H     H_    0.814477 0.370990 0.811942 0.262883
H31   H     H_    0.876518 0.369468 0.988966 0.243962
H32   H     H_    0.801930 0.328052 0.928087 0.236100
H33   H     H_    0.764594 0.450205 0.937683 0.211997
H34   H     H_    0.875129 0.306815 0.099094 0.139581
H35   H     H_    0.841516 0.485560 0.010157 0.226542
H36   H     H_    0.774708 0.866201 0.474237 0.261072
H37   H     H_    0.745624 0.842639 0.534440 0.261073
H38   H     H_    0.693595 0.873935 0.410412 0.265400
H39   H     H_    0.713134 0.972843 0.518990 0.232543
H40   H     H_    0.742857 0.996566 0.460965 0.223808
H41   H     H_    0.849170 0.947191 0.616872 0.195909
H42   H     H_    0.816105 0.938531 0.669809 0.214549
H43   H     H_    0.243547 0.823398 0.428924 0.259155
H44   H     H_    0.212041 0.835248 0.487615 0.267281
H45   H     H_    0.886501 0.207051 0.626346 0.143029
H46   H     H_    0.167500 0.789568 0.371951 0.258596
H47   H     H_    0.129685 0.916820 0.351548 0.220432
H48   H     H_    0.160703 0.904245 0.292918 0.237926
H49   H     H_    0.258951 0.962505 0.430390 0.205276
H50   H     H_    0.236690 0.968487 0.499022 0.212017
H51   H     H_    0.287310 0.388692 0.476183 0.259961
H52   H     H_    0.251007 0.360167 0.523635 0.262433
H53   H     H_    0.205007 0.396487 0.402281 0.264203
H54   H     H_    0.218480 0.489464 0.513045 0.234124
H55   H     H_    0.254484 0.518160 0.466396 0.222878
H56   H     H_    0.113687 0.185050 0.389271 0.153200
H57   H     H_    0.357104 0.465676 0.625554 0.194591
H58   H     H_    0.317793 0.450355 0.667444 0.216689
H59   H     H_    0.741087 0.321493 0.428402 0.260748
H60   H     H_    0.707064 0.333299 0.483221 0.266196
H61   H     H_    0.664375 0.287965 0.367626 0.258518
H62   H     H_    0.626458 0.415335 0.345882 0.220612
H63   H     H_    0.659961 0.402783 0.291082 0.237422
H64   H     H_    0.757192 0.460718 0.431154 0.206317
H65   H     H_    0.732753 0.466421 0.496850 0.210122
H66   H     H_    0.946302 0.036338 0.516641 0.262509
H67   H     H_    0.384251 0.730310 0.642297 0.142215
H68   H     H_    0.868344 0.054365 0.405698 0.257230
H69   H     H_    0.928713 0.119960 0.449921 0.260238
H70   H     H_    0.862191 0.161534 0.483696 0.223557
H71   H     H_    0.940532 0.144097 0.594451 0.235433
H72   H     H_    0.909545 0.022490 0.610609 0.199436
H73   H     H_    0.832434 0.035813 0.497408 0.210751
H74   H     H_    0.164164 0.068320 0.640030 0.269148
H75   H     H_    0.209250 0.990313 0.656551 0.258682
H76   H     H_    0.247196 0.071512 0.729419 0.248799
H77   H     H_    0.253543 0.066077 0.600491 0.226965
H78   H     H_    0.609204 0.682829 0.383049 0.151179
H79   H     H_    0.208535 0.143488 0.583534 0.225524
H80   H     H_    0.111197 0.075233 0.459485 0.205184
H81   H     H_    0.151989 0.995140 0.477125 0.209401
H82   H     H_    0.473064 0.570883 0.568773 0.262690
H83   H     H_    0.398818 0.586166 0.449565 0.262839
H84   H     H_    0.457840 0.655748 0.505598 0.257435
H85   H     H_    0.378290 0.688883 0.515129 0.221443
H86   H     H_    0.452797 0.673738 0.634421 0.236115
H87   H     H_    0.420781 0.547231 0.635957 0.199903
H88   H     H_    0.347019 0.561399 0.517124 0.208343
H89   H     H_    0.661119 0.823900 0.704400 0.148190
H90   H     H_    0.650804 0.571607 0.625882 0.270416
H91   H     H_    0.693672 0.490321 0.644819 0.258878
H92   H     H_    0.733604 0.570047 0.720161 0.250016
H93   H     H_    0.746110 0.562171 0.598836 0.225087
H94   H     H_    0.700936 0.641358 0.576319 0.225983
H95   H     H_    0.603768 0.571968 0.448541 0.205057
H96   H     H_    0.646284 0.492557 0.469988 0.208233
N1    N     N_1   0.872865 0.340239 0.740416 -0.192596
N2    N     N_1   0.393534 0.658271 0.296228 -0.221186
N3    N     N_1   0.085338 0.179586 0.713836 -0.217037
N4    N     N_1   0.915579 0.185090 0.278130 -0.218082
N5    N     N_1   0.740700 0.071998 0.947688 -0.180842
N6    N     N_1   0.281424 0.061354 0.067486 -0.183897
N7    N     N_1   0.242176 0.570301 0.948076 -0.181339
N8    N     N_1   0.757899 0.577101 0.052315 -0.183282
N9    N     N_1   0.844508 0.860639 0.976166 -0.189238
N10   N     N_1   0.155470 0.862040 0.022223 -0.191320
N11   N     N_1   0.344688 0.357348 0.971986 -0.187989
N12   N     N_1   0.093116 0.317226 0.236992 -0.205822
N13   N     N_1   0.655775 0.364393 0.020145 -0.188451
N14   N     N_1   0.653294 0.120605 0.505301 -0.197793
N15   N     N_1   0.346783 0.119612 0.494832 -0.196249
N16   N     N_1   0.153242 0.623860 0.507655 -0.199402
N17   N     N_1   0.847485 0.612922 0.500460 -0.196940
N18   N     N_1   0.351067 0.855555 0.739687 -0.187567
N19   N     N_1   0.590824 0.814995 0.232799 -0.207668
N20   N     N_1   0.799830 0.213114 0.828148 -0.209749
N21   N     N_1   0.166334 0.203883 0.140192 -0.214607
N22   N     N_1   0.286673 0.712922 0.827268 -0.200674
N23   N     N_1   0.669612 0.703222 0.144208 -0.212209
N24   N     N_1   0.588468 0.678610 0.718665 -0.218973
O1    O     O_R   0.500010 0.939400 0.392680 -0.621879
O2    O     O_R   0.551740 0.000000 0.944400 -0.637198
O3    O     O_R   0.948260 0.500000 0.055600 -0.637991
O4    O     O_R   0.051740 0.500000 0.944400 -0.637517
O5    O     O_R   0.551720 0.892660 0.051710 -0.617319
O6    O     O_R   0.448280 0.892660 0.948290 -0.621012
O7    O     O_R   0.051720 0.392660 0.051710 -0.618271
O8    O     O_R   0.948280 0.392660 0.948290 -0.618920
O9    O     O_R   0.499990 0.060580 0.392690 -0.611337
O10   O     O_R   0.500010 0.060580 0.607310 -0.610820
O11   O     O_R   0.999990 0.560580 0.392690 -0.612880
O12   O     O_R   0.499990 0.939400 0.607320 -0.625399
O13   O     O_R   0.000010 0.560580 0.607310 -0.611396
O14   O     O_R   0.591620 0.939400 0.591620 -0.633055
O15   O     O_R   0.408380 0.939400 0.408380 -0.630315
O16   O     O_R   0.091620 0.439400 0.591620 -0.632535
O17   O     O_R   0.908380 0.439400 0.408380 -0.635090
O18   O     O_R   0.591600 0.060580 0.591620 -0.611648
O19   O     O_R   0.408400 0.060580 0.408380 -0.612209
O20   O     O_R   0.091600 0.560580 0.591620 -0.611933
O21   O     O_R   0.908400 0.560580 0.408380 -0.612627
O22   O     O_R   0.999970 0.107360 0.060570 -0.616876
O23   O     O_R   0.000010 0.439400 0.392680 -0.620838
O24   O     O_R   0.000030 0.107360 0.939430 -0.615748
O25   O     O_R   0.499970 0.607360 0.060570 -0.618118
O26   O     O_R   0.500030 0.607360 0.939430 -0.616157
O27   O     O_R   0.908370 0.000030 0.968970 -0.606212
O28   O     O_R   0.091630 0.000030 0.031030 -0.605202
O29   O     O_R   0.408370 0.500030 0.968970 -0.607067
O30   O     O_R   0.591630 0.500030 0.031030 -0.604734
O31   O     O_R   0.908380 0.000000 0.847800 -0.637367
O32   O     O_R   0.091620 0.000000 0.152200 -0.639136
O33   O     O_R   0.408380 0.500000 0.847800 -0.639009
O34   O     O_R   0.999990 0.439400 0.607320 -0.623744
O35   O     O_R   0.591620 0.500000 0.152200 -0.638862
O36   O     O_R   0.000000 0.892710 0.060610 -0.620702
O37   O     O_R   0.000000 0.892710 0.939390 -0.618058
O38   O     O_R   0.500000 0.392710 0.060610 -0.620480
O39   O     O_R   0.500000 0.392710 0.939390 -0.617769
O40   O     O_R   0.551710 0.107310 0.051740 -0.620094
O41   O     O_R   0.448290 0.107310 0.948260 -0.616585
O42   O     O_R   0.051710 0.607310 0.051740 -0.619288
O43   O     O_R   0.948290 0.607310 0.948260 -0.620140
O44   O     O_R   0.551700 0.999990 0.159040 -0.608232
O45   O     O_R   0.448300 0.999990 0.840960 -0.605484
O46   O     O_R   0.051700 0.499990 0.159040 -0.610276
O47   O     O_R   0.948300 0.499990 0.840960 -0.606493
O48   O     O_R   0.448260 1.000000 0.055600 -0.639684
Zn1   Zn    Zn3+2 0.500000 0.919080 0.500000 0.955684
Zn2   Zn    Zn3+2 0.430940 0.999980 0.930930 0.948908
Zn3   Zn    Zn3+2 0.069060 0.499980 0.069070 0.935490
Zn4   Zn    Zn3+2 0.930940 0.499980 0.930930 0.936444
Zn5   Zn    Zn3+2 0.000000 0.419080 0.500000 0.957271
Zn6   Zn    Zn3+2 0.500000 0.080900 0.500000 1.001080
Zn7   Zn    Zn3+2 0.000000 0.580900 0.500000 0.999460
Zn8   Zn    Zn3+2 0.999980 0.000040 0.080910 0.975843
Zn9   Zn    Zn3+2 0.000020 0.000040 0.919090 0.975562
Zn10  Zn    Zn3+2 0.499980 0.500040 0.080910 0.972333
Zn11  Zn    Zn3+2 0.500020 0.500040 0.919090 0.971853
Zn12  Zn    Zn3+2 0.569060 0.999980 0.069070 0.935721

loop_
_geom_bond_atom_site_label_1
_geom_bond_atom_site_label_2
_ccdc_geom_bond_type
C59   H36   S    
C135  O33   A    
C99   C103  A    
C105  C110  A    
C80   H95   S    
C115  O16   A    
C23   N22   T    
C79   C87   A    
O35   Zn10  S    
C37   H6    S    
C76   H88   S    
C25   N23   T    
C43   H22   S    
O4    Zn3   S    
C26   N24   T    
C92   C119  A    
O28   Zn9   S    
C76   C98   S    
C100  C104  A    
C41   C42   S    
C1    C122  S    
O14   Zn1   S    
C38   H18   S    
O27   Zn8   S    
C96   O11   A    
O44   Zn12  S    
C59   H38   S    
C12   C48   S    
C73   H80   S    
C60   C92   S    
C83   C88   A    
C32   C172  S    
C139  C159  S    
C101  C105  A    
C83   C114  S    
C45   C47   S    
C73   C74   S    
C165  C169  A    
C109  C117  A    
C164  C168  A    
C17   N1    T    
C86   C90   A    
C69   H60   S    
C23   C111  S    
C40   H15   S    
C3    C169  A    
C167  C171  A    
C139  O41   A    
C48   N9    T    
C8    C150  A    
C24   C151  A    
C63   H57   S    
C45   H31   S    
C65   H53   S    
C127  C143  S    
C128  C144  S    
C96   O23   A    
C133  O27   A    
C63   H58   S    
O29   Zn10  S    
C157  C160  T    
C158  C159  T    
O1    Zn1   S    
C150  C161  A    
C118  C162  A    
C61   H47   S    
C33   N8    T    
C138  O39   A    
C149  C155  T    
C14   C88   A    
C9    H12   S    
C46   C53   S    
C44   H33   S    
C85   C123  S    
C16   C151  A    
C70   H73   S    
C19   C106  S    
C161  H89   S    
C30   N5    T    
C141  O42   A    
C136  O35   A    
C36   H9    S    
C31   N6    T    
C65   H52   S    
C75   H76   S    
C20   C108  S    
C27   C152  S    
C16   C51   S    
O37   Zn9   S    
C49   N10   T    
C60   H49   S    
C74   H79   S    
C6    C172  A    
C58   H39   S    
C102  H67   S    
C4    C170  A    
C78   H83   S    
C36   C37   S    
C38   C39   S    
C39   H17   S    
C40   H14   S    
O46   Zn3   S    
C2    C129  A    
C164  H3    S    
C69   H61   S    
C24   C121  S    
C154  C165  A    
C56   H42   S    
O45   Zn2   S    
C11   C154  A    
C137  O36   A    
C116  O17   A    
C66   C67   S    
C77   H85   S    
O26   Zn11  S    
C81   H93   S    
O13   Zn7   S    
C11   H34   S    
C134  O32   A    
C92   C97   A    
C106  C111  A    
C146  O6    A    
C132  O26   A    
C107  C125  S    
C39   C40   S    
C44   H35   S    
C46   C83   A    
C47   H30   S    
C5    C9    A    
C15   C89   A    
C138  C158  S    
C123  C127  T    
C131  O24   A    
C113  O14   A    
C34   H10   S    
C34   H11   S    
C75   H74   S    
C39   H16   S    
C93   C120  A    
C147  O7    A    
C43   H20   S    
C166  C170  A    
C79   C113  S    
C80   C99   S    
C82   H92   S    
C28   C153  S    
C13   C120  S    
C80   H96   S    
C71   H70   S    
C110  C119  A    
O41   Zn2   S    
C21   C109  S    
C117  C162  S    
C37   H5    S    
C137  C157  S    
C1    O1    A    
C43   H21   S    
O7    Zn3   S    
C112  C121  A    
C31   C171  S    
C90   C169  S    
C35   C79   A    
C56   C58   S    
C34   C36   S    
C61   C62   S    
C21   N20   T    
C152  C163  A    
C91   C95   A    
C63   C64   S    
C38   H19   S    
O8    Zn4   S    
C64   H55   S    
C59   H37   S    
C29   C154  S    
C54   C57   S    
C67   H62   S    
C16   C90   A    
C62   H43   S    
C36   H8    S    
C41   H27   S    
O15   Zn1   S    
C55   C68   S    
O39   Zn11  S    
C77   C78   S    
C165  H4    S    
C17   C104  S    
O48   Zn2   S    
O18   Zn6   S    
O19   Zn6   S    
C3    C7    A    
C69   H59   S    
O5    Zn12  S    
C3    C33   S    
C131  O22   A    
C55   N17   T    
C114  O15   A    
C22   N21   T    
C30   C170  S    
C56   C91   S    
C146  C155  S    
C22   C110  S    
C82   H90   S    
C91   C117  A    
C70   C71   S    
O6    Zn2   S    
C142  O48   A    
C124  C128  T    
O24   Zn9   S    
C85   O10   A    
C5    C38   S    
C130  C145  S    
C132  C149  S    
C103  H78   S    
O16   Zn5   S    
O11   Zn7   S    
C132  O25   A    
C10   C153  A    
C53   N15   T    
C135  C140  S    
C37   H7    S    
C76   H87   S    
C13   C140  A    
C26   C150  S    
C134  O28   A    
C95   C100  A    
C41   H26   S    
C58   C59   S    
C19   N18   T    
C126  C142  S    
C107  O13   A    
C108  C112  A    
C60   C61   S    
C20   N19   T    
C107  O34   A    
C73   C97   S    
C89   C168  S    
C116  O21   A    
C88   C167  S    
C57   C84   A    
C42   H24   S    
C147  C156  S    
C18   N12   T    
O17   Zn5   S    
C72   H66   S    
C42   C43   S    
C65   H51   S    
C136  C151  S    
C75   H75   S    
C44   C45   S    
C15   C140  A    
O25   Zn10  S    
C42   H25   S    
O33   Zn11  S    
C145  O4    A    
C60   H50   S    
C6    C10   A    
C58   H40   S    
C135  O29   A    
C63   C93   S    
C113  O18   A    
C78   H84   S    
C64   C65   S    
C115  O20   A    
C71   H71   S    
C32   N7    T    
C98   C102  A    
O40   Zn12  S    
C45   H32   S    
O32   Zn8   S    
C24   C68   A    
C129  C134  S    
C14   C49   S    
C94   C121  A    
C168  C172  A    
C85   O12   A    
C13   C57   A    
C35   C52   S    
C148  C156  T    
C14   C129  A    
O42   Zn3   S    
C9    C152  A    
C68   C86   A    
O38   Zn10  S    
C61   H48   S    
C4    C8    A    
C64   H54   S    
C81   C82   S    
C2    C46   A    
C7    C11   A    
C74   H77   S    
C138  O38   A    
C67   H63   S    
C101  H56   S    
C62   H46   S    
C104  C109  A    
O36   Zn8   S    
C87   C166  S    
C144  O3    A    
C47   H29   S    
C86   C116  S    
O23   Zn5   S    
C15   C50   S    
C70   H72   S    
C125  C130  T    
O20   Zn7   S    
C6    C41   S    
C72   H68   S    
C136  O30   A    
C103  C108  A    
C161  C166  A    
C66   C94   S    
C143  O45   A    
C28   N3    T    
C25   C112  S    
C1    O9    A    
O3    Zn4   S    
O43   Zn4   S    
C139  O40   A    
C54   N16   T    
C4    C34   S    
C35   C162  A    
C74   C75   S    
C96   C124  S    
C153  C164  A    
C114  O19   A    
C78   H82   S    
C76   C77   S    
C8    H1    S    
C40   H13   S    
C50   N11   T    
C66   H64   S    
C111  C120  A    
C67   C69   S    
C122  C126  T    
C163  C167  A    
O9    Zn6   S    
C142  O44   A    
C141  C160  S    
C141  O43   A    
C5    C171  A    
C131  C148  S    
C7    C44   S    
C56   H41   S    
C118  C133  S    
C137  O37   A    
C100  H45   S    
C84   C115  S    
C77   H86   S    
O12   Zn1   S    
C66   H65   S    
C81   H94   S    
C73   H81   S    
C47   H28   S    
O34   Zn5   S    
C84   C89   A    
C12   C118  A    
C146  O5    A    
O21   Zn7   S    
C12   C87   A    
C29   N4    T    
C62   H44   S    
C72   H69   S    
C51   N13   T    
C80   C81   S    
C145  O47   A    
C2    C119  S    
C143  O2    A    
O10   Zn6   S    
C133  O31   A    
C144  O46   A    
C70   C95   S    
C18   C105  S    
C10   H23   S    
C94   C99   A    
O47   Zn4   S    
C52   N14   T    
C27   N2    T    
C71   C72   S    
C147  O8    A    
C102  C106  A    
O2    Zn12  S    
C82   H91   S    
O31   Zn9   S    
O30   Zn11  S    
C163  H2    S    
O22   Zn8   S    
C93   C98   A    
C97   C101  A    
