data_mof_unit_22099.cif
_audit_creation_date              2012-12-10T17:18:15-0500
_audit_creation_method            fapswitch 2.2
_symmetry_space_group_name_H-M    P1
_symmetry_Int_Tables_number       1
_space_group_crystal_system       triclinic
_cell_length_a                    10.163656
_cell_length_b                    10.81388
_cell_length_c                    15.009428
_cell_angle_alpha                 90.654714
_cell_angle_beta                  80.830329
_cell_angle_gamma                 95.936369
_cell_volume                      1619.82814608

loop_
_atom_site_label
_atom_site_type_symbol
_atom_type_description
_atom_site_fract_x
_atom_site_fract_y
_atom_site_fract_z
_atom_type_partial_charge
C1    C     C_R   0.556493 0.732448 0.490835 0.928406
C2    C     C_R   0.443529 0.267280 0.504045 0.924890
C3    C     C_R   0.301206 0.613173 0.979225 -0.204267
C4    C     C_R   0.685634 0.367321 0.022344 -0.189428
C5    C     C_2   0.588807 0.864586 0.479027 -0.383614
C6    C     C_2   0.411542 0.134707 0.498817 -0.383050
C7    C     C_2   0.488406 0.933406 0.475055 -0.158311
C8    C     C_2   0.512717 0.065600 0.475484 -0.158427
C9    C     C_2   0.929685 0.517370 0.501381 0.420192
C10   C     C_2   0.070300 0.482650 0.498612 0.417141
C11   C     C_R   0.500573 0.503099 0.673179 0.927063
C12   C     C_R   0.499174 0.496490 0.326917 0.903460
C13   C     C_R   0.588481 0.422015 0.174670 0.403381
C14   C     C_R   0.408263 0.571419 0.826285 0.445430
C15   C     C_R   0.496324 0.488233 0.231390 -0.189145
C16   C     C_R   0.500646 0.506076 0.769186 -0.177398
C17   C     C_R   0.398937 0.546951 0.197135 -0.317706
C18   C     C_R   0.593270 0.441020 0.803634 -0.332344
C19   C     C_R   0.396376 0.547078 0.105534 0.123284
C20   C     C_R   0.592521 0.436167 0.895644 0.125625
C21   C     C_R   0.493482 0.488456 0.047134 0.025428
C22   C     C_R   0.495312 0.494569 0.954129 0.026949
C23   C     C_R   0.589698 0.425208 0.081578 0.001619
C24   C     C_R   0.400761 0.560056 0.919734 -0.018432
C25   C     C_R   0.299630 0.607313 0.071567 -0.203314
C26   C     C_R   0.686617 0.372450 0.929898 -0.212219
H1    H     H_    0.326839 0.595702 0.241697 0.183240
H2    H     H_    0.665094 0.392438 0.758722 0.183194
H3    H     H_    0.223623 0.651018 0.116380 0.145541
H4    H     H_    0.761380 0.327170 0.885154 0.146281
H5    H     H_    0.224777 0.660103 0.954834 0.174132
H6    H     H_    0.760480 0.318467 0.047067 0.186939
H7    H     H_    0.616483 0.105883 0.461323 0.188851
H8    H     H_    0.385308 0.892757 0.477720 0.184327
H9    H     H_    0.308179 0.093726 0.513931 0.138410
H10   H     H_    0.691629 0.905774 0.476106 0.139303
H11   H     H_    0.125252 0.624497 0.575968 0.161185
H12   H     H_    0.874873 0.375665 0.423927 0.154935
N1    N     N_2   0.842700 0.448880 0.462930 -0.225919
N2    N     N_2   0.157300 0.551120 0.537070 -0.226646
O1    O     O_R   0.431060 0.692470 0.507460 -0.631162
O2    O     O_R   0.568940 0.307530 0.492540 -0.631452
O3    O     O_R   0.651120 0.659650 0.483670 -0.580481
O4    O     O_R   0.348880 0.340350 0.516330 -0.582325
O5    O     O_R   0.389960 0.516440 0.644050 -0.567204
O6    O     O_R   0.610040 0.483560 0.355950 -0.573560
O7    O     O_R   0.610030 0.483620 0.620260 -0.595747
O8    O     O_R   0.389970 0.516380 0.379740 -0.596114
Zn1   Zn    Zn3+2 0.353060 0.521920 0.515880 0.983673
Zn2   Zn    Zn3+2 0.646940 0.478080 0.484120 0.982944
O9    O     O_3   0.681458 0.359636 0.209501 -0.597092
C27   C     C_3   0.623851 0.237521 0.232925 0.113615
H13   H     H_    0.589900 0.187907 0.173808 0.125248
H14   H     H_    0.537227 0.238568 0.288575 0.139745
C28   C     C_3   0.728374 0.165399 0.264992 -0.813727
H15   H     H_    0.763266 0.211564 0.324697 0.253586
H16   H     H_    0.684371 0.069166 0.283843 0.206619
H17   H     H_    0.815343 0.161307 0.210301 0.249830
O10   O     O_3   0.323174 0.642539 0.790258 -0.601270
C29   C     C_3   0.364068 0.771078 0.798921 0.057591
H18   H     H_    0.436899 0.793076 0.846719 0.126395
H19   H     H_    0.273871 0.818396 0.824979 0.160839
C30   C     C_3   0.424577 0.826679 0.707189 -0.789130
H20   H     H_    0.351155 0.810918 0.659800 0.269670
H21   H     H_    0.450748 0.928315 0.713552 0.205593
H22   H     H_    0.516986 0.783202 0.680425 0.237743
O11   O     O_3   0.109518 0.378368 0.451614 -0.584730
C31   C     C_3   0.065294 0.272965 0.507469 -0.313022
H23   H     H_    0.954442 0.253652 0.519214 0.119477
H24   H     H_    0.101188 0.282591 0.573799 0.178068
H25   H     H_    0.106399 0.190640 0.473157 0.183266
O12   O     O_3   0.890480 0.621721 0.548289 -0.584333
C32   C     C_3   0.934313 0.726980 0.492220 -0.310372
H26   H     H_    0.899133 0.716685 0.425678 0.177285
H27   H     H_    0.045084 0.746985 0.480952 0.117860
H28   H     H_    0.892173 0.809150 0.526080 0.183683

loop_
_geom_bond_atom_site_label_1
_geom_bond_atom_site_label_2
_ccdc_geom_bond_type
O4    Zn1   S    
C4    C26   A    
C28   H15   S    
C30   H21   S    
O3    Zn2   S    
C15   C17   A    
C7    C8    S    
C2    O2    A    
H11   N2    S    
C32   H26   S    
O6    Zn2   S    
C11   O7    A    
C12   C15   S    
O5    Zn1   S    
C12   O8    A    
C28   H16   S    
C30   H22   S    
O10   C29   S    
C9    O12   S    
C31   H23   S    
C4    H6    S    
C21   C22   A    
C6    H9    S    
C29   H19   S    
C3    H5    S    
C14   O10   S    
C32   H27   S    
N2    Zn1   S    
C3    C24   A    
C2    C6    S    
C20   C26   A    
O2    Zn2   S    
C31   H25   S    
C1    C5    S    
C13   O9    S    
C22   C24   A    
C1    O1    A    
O8    Zn1   S    
C17   C19   A    
C27   C28   S    
C27   H14   S    
C26   H4    S    
O7    Zn2   S    
C18   C20   A    
C8    H7    S    
C21   C23   A    
C13   C15   A    
C25   H3    S    
H12   N1    S    
C19   C25   A    
C32   H28   S    
C14   C16   A    
C11   O5    A    
C11   C16   S    
C29   C30   S    
C14   C24   A    
O11   C31   S    
C17   H1    S    
C5    H10   S    
C3    C25   A    
N1    Zn2   S    
C18   H2    S    
C27   H13   S    
C13   C23   A    
O12   C32   S    
C16   C18   A    
C9    C10   S    
C7    H8    S    
O1    Zn1   S    
C5    C7    D    
C31   H24   S    
C28   H17   S    
C29   H18   S    
C10   N2    D    
C6    C8    D    
C19   C21   A    
C4    C23   A    
C10   O11   S    
C1    O3    A    
C9    N1    D    
C2    O4    A    
O9    C27   S    
C20   C22   A    
C30   H20   S    
C12   O6    A    
