data_mof_unit_13656.cif
_audit_creation_date              2012-12-10T17:44:37-0500
_audit_creation_method            fapswitch 2.2
_symmetry_space_group_name_H-M    P1
_symmetry_Int_Tables_number       1
_space_group_crystal_system       triclinic
_cell_length_a                    9.989165
_cell_length_b                    10.559651
_cell_length_c                    15.376406
_cell_angle_alpha                 94.361625
_cell_angle_beta                  71.408391
_cell_angle_gamma                 89.018824
_cell_volume                      1531.37350027

loop_
_atom_site_label
_atom_site_type_symbol
_atom_type_description
_atom_site_fract_x
_atom_site_fract_y
_atom_site_fract_z
_atom_type_partial_charge
C1    C     C_R   0.508713 0.732252 0.478207 0.970209
C2    C     C_R   0.760294 0.437136 0.029762 -0.088233
C3    C     C_R   0.616440 0.417207 0.074893 -0.096455
C4    C     C_R   0.415600 0.484127 0.673292 0.960858
C5    C     C_R   0.849926 0.464396 0.083085 0.490285
C6    C     C_R   0.790685 0.500986 0.177510 0.303735
C7    C     C_R   0.555348 0.464705 0.167844 0.161089
C8    C     C_R   0.273930 0.878000 0.434576 0.371757
C9    C     C_R   0.141579 0.946116 0.465712 0.272215
C10   C     C_R   0.124237 0.054507 0.528059 0.467303
C11   C     C_R   0.242806 0.106157 0.543106 -0.184091
C12   C     C_R   0.468964 0.365726 0.885532 -0.007739
C13   C     C_R   0.379683 0.052886 0.497151 -0.111804
C14   C     C_R   0.389837 0.928888 0.457508 -0.051552
C15   C     C_R   0.515785 0.858815 0.445351 -0.161992
C16   C     C_R   0.500999 0.257465 0.499742 0.909393
C17   C     C_R   0.642810 0.919996 0.421580 0.417115
C18   C     C_R   0.639357 0.051509 0.443259 0.330095
C19   C     C_R   0.506739 0.118278 0.487012 -0.209538
C20   C     C_R   0.783984 0.657435 0.626297 0.291057
C21   C     C_R   0.787733 0.672563 0.714417 0.282467
C22   C     C_R   0.918499 0.703911 0.722052 0.083581
C23   C     C_R   0.345918 0.297280 0.923916 -0.074129
C24   C     C_R   0.045706 0.662846 0.648040 0.148449
C25   C     C_R   0.034803 0.580875 0.567707 0.009980
C26   C     C_R   0.892756 0.581420 0.562246 -0.112836
C27   C     C_R   0.958266 0.424217 0.438164 0.513171
C28   C     C_R   0.587336 0.502311 0.324098 0.917264
C29   C     C_R   0.101142 0.421277 0.439713 0.128322
C30   C     C_R   0.381547 0.424340 0.762090 -0.106827
C31   C     C_R   0.642912 0.495346 0.221845 -0.287438
C32   C     C_R   0.252897 0.274601 0.870651 0.212294
C33   C     C_R   0.277050 0.334240 0.786913 0.364308
C34   C     C_R   0.574147 0.376109 0.928939 -0.019992
C35   C     C_R   0.477375 0.435858 0.810685 -0.223547
C36   C     C_R   0.533886 0.362447 0.023355 -0.055509
C37   C     C_R   0.418144 0.286069 0.061768 0.354602
C38   C     C_R   0.322761 0.254892 0.013109 0.459915
C39   C     C_R   0.717414 0.399139 0.882069 0.080218
C40   C     C_R   0.808458 0.433291 0.932706 0.237972
H1    H     H_    0.225373 0.191781 0.587520 0.247221
H2    H     H_    0.998264 0.331014 0.318307 0.358822
H3    H     H_    0.676234 0.685838 0.842627 0.356657
H4    H     H_    0.832001 0.627050 0.261353 0.379296
H5    H     H_    0.147660 0.231239 0.742633 0.363697
H6    H     H_    0.496258 0.223928 0.152341 0.360663
H7    H     H_    0.560903 0.500805 0.789359 0.223693
H8    H     H_    0.193002 0.179206 0.119121 0.396715
H9    H     H_    0.042848 0.453934 0.090282 0.393954
H10   H     H_    0.843148 0.905609 0.351794 0.403319
H11   H     H_    0.206099 0.721500 0.393593 0.350186
H12   H     H_    0.069811 0.866121 0.372666 0.367808
H13   H     H_    0.921409 0.073003 0.553885 0.391017
H14   H     H_    0.773439 0.145458 0.482668 0.374008
I1    I     I_    0.754786 0.849215 0.600044 -0.207076
I2    I     I_    0.343517 0.545211 0.207580 -0.217444
I3    I     I_    0.898997 0.848440 0.835115 -0.137741
I4    I     I_    0.214644 0.764077 0.675927 -0.208701
I5    I     I_    0.242500 0.275265 0.355528 -0.209777
I6    I     I_    0.996835 0.522712 0.864448 -0.199089
I7    I     I_    0.075272 0.153478 0.911300 -0.124455
I8    I     I_    0.810533 0.337065 0.738720 -0.265517
N1    N     N_R   0.856800 0.501200 0.500850 -0.117808
N2    N     N_R   0.142390 0.501280 0.500880 -0.122979
O1    O     O_R   0.385310 0.683220 0.500000 -0.591701
O2    O     O_3   0.994981 0.448822 0.042874 -0.708189
O3    O     O_3   0.767155 0.848454 0.380559 -0.735553
O4    O     O_3   0.295288 0.767346 0.377355 -0.717529
O5    O     O_3   0.031222 0.912343 0.434488 -0.747919
O6    O     O_3   0.996543 0.120469 0.568660 -0.714898
O7    O     O_3   0.765477 0.111219 0.422893 -0.687482
O8    O     O_3   0.916790 0.348736 0.375076 -0.661935
O9    O     O_3   0.663109 0.706514 0.783947 -0.717905
O10   O     O_3   0.879566 0.548893 0.223448 -0.721265
O11   O     O_3   0.197987 0.310381 0.729052 -0.747414
O12   O     O_R   0.614640 0.683250 0.500010 -0.572059
O13   O     O_3   0.403237 0.230048 0.142362 -0.737781
O14   O     O_R   0.319840 0.499980 0.632240 -0.536959
O15   O     O_R   0.549160 0.500000 0.632250 -0.634941
O16   O     O_R   0.385360 0.316750 0.499990 -0.602549
O17   O     O_R   0.614690 0.316780 0.500000 -0.571647
O18   O     O_R   0.450840 0.500000 0.367750 -0.567635
O19   O     O_R   0.680160 0.500020 0.367760 -0.550068
O20   O     O_3   0.205882 0.186306 0.053162 -0.696499
Zn1   Zn    Zn3+2 0.346880 0.499980 0.499990 1.049923
Zn2   Zn    Zn3+2 0.653120 0.500020 0.500010 1.069562

loop_
_geom_bond_atom_site_label_1
_geom_bond_atom_site_label_2
_ccdc_geom_bond_type
H3    O9    S    
C40   I6    S    
C27   C29   A    
C35   H7    S    
C22   I3    S    
C12   C23   A    
C37   C38   A    
C30   C35   A    
C36   C37   A    
C9    O5    S    
C32   I7    S    
C3    C7    A    
C5    C6    A    
C21   O9    S    
C18   C19   A    
H12   O5    S    
C33   O11   S    
H14   O7    S    
C29   I5    S    
C8    C9    A    
C1    O1    A    
C1    C15   S    
H10   O3    S    
O17   Zn2   S    
C6    C31   A    
C29   N2    A    
C13   C14   A    
C28   O19   A    
C7    I2    S    
C20   I1    S    
H13   O6    S    
C6    O10   S    
C17   O3    S    
C7    C31   A    
H9    O2    S    
C13   C19   A    
C28   O18   A    
C34   C39   A    
C24   C25   A    
C4    O15   A    
C39   C40   A    
C25   C26   A    
C37   O13   S    
H8    O20   S    
C16   O16   A    
C25   N2    A    
C26   N1    A    
C4    O14   A    
O16   Zn1   S    
H2    O8    S    
C17   C18   A    
C12   C35   A    
H4    O10   S    
C27   N1    A    
C10   O6    S    
O14   Zn1   S    
C8    O4    S    
N1    Zn2   S    
C22   C24   A    
C2    C5    A    
C12   C34   A    
O18   Zn1   S    
O12   Zn2   S    
N2    Zn1   S    
C9    C10   A    
C18   O7    S    
C15   C17   A    
C39   I8    S    
C8    C14   A    
C30   C33   A    
C38   O20   S    
C1    O12   A    
C28   C31   S    
C5    O2    S    
H6    O13   S    
O1    Zn1   S    
C23   C38   A    
H5    O11   S    
C23   C32   A    
C2    C3    A    
C32   C33   A    
C11   C13   A    
C20   C26   A    
C3    C36   A    
C16   C19   S    
C16   O17   A    
C11   H1    S    
C34   C36   A    
H11   O4    S    
C10   C11   A    
C2    C40   A    
O19   Zn2   S    
C20   C21   A    
C24   I4    S    
C14   C15   A    
C21   C22   A    
O15   Zn2   S    
C4    C30   S    
C27   O8    S    
