data_mof_unit_36759.cif
_audit_creation_date              2013-03-05T15:50:45-0500
_audit_creation_method            fapswitch 2.2
_symmetry_space_group_name_H-M    P1
_symmetry_Int_Tables_number       1
_space_group_crystal_system       triclinic
_cell_length_a                    22.876313
_cell_length_b                    7.208512
_cell_length_c                    20.870329
_cell_angle_alpha                 90.008752
_cell_angle_beta                  93.15539
_cell_angle_gamma                 89.892384
_cell_volume                      3436.38062216

loop_
_atom_site_label
_atom_site_type_symbol
_atom_site_description
_atom_site_fract_x
_atom_site_fract_y
_atom_site_fract_z
_atom_type_partial_charge
O1    O     O_R   0.438030 0.494310 0.439340 -0.562898
O2    O     O_R   0.561970 0.994310 0.560660 -0.565306
O3    O     O_R   0.556900 0.822900 0.435960 -0.577856
O4    O     O_R   0.443100 0.322900 0.564040 -0.571655
C1    C     C_R   0.575880 0.655376 0.421249 1.002763
C2    C     C_R   0.424151 0.155624 0.578846 1.021749
O5    O     O_R   0.438170 0.823950 0.431660 -0.552431
O6    O     O_R   0.561830 0.323950 0.568340 -0.554606
O7    O     O_R   0.442390 0.995390 0.556340 -0.582920
O8    O     O_R   0.557610 0.495390 0.443660 -0.580971
C3    C     C_R   0.417867 0.655236 0.416326 1.030732
C4    C     C_R   0.581888 0.155493 0.583843 1.033665
O9    O     O_3   0.501520 0.661170 0.540910 -0.256517
O10   O     O_3   0.498480 0.161170 0.459090 -0.262396
V1    V     V_3+5 0.499720 0.935580 0.492410 1.367760
V2    V     V_3+5 0.500280 0.435580 0.507590 1.368693
C5    C     C_R   0.829121 0.951663 0.858017 -0.081826
C6    C     C_R   0.170927 0.719522 0.133340 -0.092235
C7    C     C_R   0.873047 0.085973 0.861520 -0.296214
C8    C     C_R   0.128040 0.583081 0.136965 -0.293089
C9    C     C_R   0.871187 0.232701 0.816389 0.358960
C10   C     C_R   0.130578 0.458067 0.189160 0.382574
C11   C     C_R   0.825002 0.242740 0.767445 -0.140882
C12   C     C_R   0.177508 0.468367 0.237243 -0.152294
C13   C     C_R   0.778668 0.111596 0.767669 0.077576
C14   C     C_R   0.221236 0.607039 0.232004 0.054522
C15   C     C_R   0.780813 0.966040 0.813677 0.018186
C16   C     C_R   0.216991 0.735376 0.180254 0.039641
C17   C     C_R   0.823604 0.379275 0.718288 0.209880
C18   C     C_R   0.182088 0.345854 0.290556 0.210098
C19   C     C_R   0.775946 0.391504 0.672943 0.232072
C20   C     C_R   0.229160 0.358299 0.336525 0.232400
C21   C     C_R   0.728402 0.264997 0.673980 -0.168001
C22   C     C_R   0.273812 0.493567 0.331017 -0.173097
C23   C     C_R   0.730261 0.124276 0.721738 0.042374
C24   C     C_R   0.269344 0.618385 0.278330 0.027724
C25   C     C_R   0.683727 0.994891 0.723810 -0.005758
C26   C     C_R   0.313099 0.755204 0.271481 -0.007492
C27   C     C_R   0.686957 0.853167 0.770042 -0.157929
C28   C     C_R   0.307842 0.879096 0.219574 -0.190125
C29   C     C_R   0.734707 0.836167 0.814088 0.303953
C30   C     C_R   0.260075 0.873961 0.175204 0.309240
C31   C     C_R   0.679837 0.271228 0.627927 0.356327
C32   C     C_R   0.322359 0.509665 0.376725 0.371559
C33   C     C_R   0.632415 0.146926 0.632162 -0.423503
C34   C     C_R   0.366705 0.643535 0.368655 -0.426453
C35   C     C_R   0.634187 0.010259 0.680517 0.334605
C36   C     C_R   0.361926 0.765669 0.315905 0.335493
C37   C     C_3   0.265043 0.163729 0.827973 -0.097128
C38   C     C_3   0.735558 0.663037 0.173007 -0.099131
C39   C     C_3   0.217215 0.911285 0.757064 0.192835
C40   C     C_3   0.783859 0.411014 0.243908 0.189091
C41   C     C_3   0.267873 0.929155 0.710221 -0.452649
C42   C     C_3   0.732910 0.428154 0.290488 -0.446966
C43   C     C_1   0.378846 0.147103 0.624702 -0.116880
C44   C     C_1   0.621291 0.646154 0.375612 -0.118311
C45   C     C_3   0.206321 0.102429 0.790539 -0.211990
C46   C     C_3   0.794375 0.602423 0.210535 -0.210032
C47   C     C_3   0.318488 0.181630 0.781363 0.371785
C48   C     C_3   0.682093 0.681381 0.219514 0.372650
C49   C     C_3   0.294139 0.129154 0.710478 -0.184238
C50   C     C_3   0.706322 0.628056 0.290336 -0.187226
C51   C     C_3   0.243467 0.269641 0.690852 0.041348
C52   C     C_3   0.756713 0.768262 0.310458 0.044440
C53   C     C_3   0.192560 0.258387 0.738619 0.066337
C54   C     C_3   0.807677 0.758261 0.262645 0.065479
C55   C     C_1   0.340845 0.139483 0.663085 0.233825
C56   C     C_1   0.659433 0.638109 0.337449 0.236108
C57   C     C_1   0.159075 0.090963 0.837162 0.214180
C58   C     C_1   0.841604 0.591574 0.163791 0.213782
C59   C     C_1   0.120925 0.082953 0.875314 -0.137087
C60   C     C_1   0.879517 0.583641 0.125307 -0.137780
O11   O     O_R   0.942420 0.735670 0.056390 -0.592289
O12   O     O_R   0.057580 0.235670 0.943610 -0.577618
O13   O     O_R   0.061840 0.404850 0.068350 -0.555712
O14   O     O_R   0.938160 0.904850 0.931650 -0.568865
C61   C     C_R   0.080700 0.573469 0.085204 0.972084
C62   C     C_R   0.919690 0.074238 0.914255 0.977727
O15   O     O_R   0.943100 0.406010 0.064050 -0.568785
O16   O     O_R   0.056900 0.906010 0.935950 -0.579922
O17   O     O_R   0.938020 0.234710 0.939330 -0.568639
O18   O     O_R   0.061980 0.734710 0.060670 -0.585943
C63   C     C_R   0.924455 0.574601 0.079029 0.968665
C64   C     C_R   0.075670 0.074362 0.921150 0.973151
O19   O     O_3   0.998500 0.567790 0.959120 -0.247934
O20   O     O_3   0.001500 0.067790 0.040880 -0.260089
V3    V     V_3+5 0.000280 0.293330 0.007580 1.329922
V4    V     V_3+5 0.999720 0.793330 0.992420 1.306779
H1    H     H_    0.832195 0.838444 0.892008 0.188976
H2    H     H_    0.168855 0.810117 0.091966 0.181465
N1    N     N_R   0.278789 0.049076 0.885549 0.276614
O21   O     O_R   0.294972 0.876502 0.881620 -0.285903
O22   O     O_R   0.276070 0.123169 0.942188 -0.269825
N2    N     N_R   0.721957 0.547309 0.115695 0.276561
O23   O     O_R   0.705753 0.375035 0.119972 -0.282613
O24   O     O_R   0.724399 0.620562 0.058929 -0.258708
N3    N     N_R   0.163438 0.828997 0.727259 0.276683
O25   O     O_R   0.125477 0.755619 0.763920 -0.322358
O26   O     O_R   0.156187 0.804413 0.665578 -0.217121
N4    N     N_R   0.837762 0.329489 0.273936 0.278042
O27   O     O_R   0.876302 0.258306 0.237396 -0.311981
O28   O     O_R   0.844482 0.302276 0.335522 -0.214908
H3    H     H_    0.232239 0.809976 0.794178 0.160068
H4    H     H_    0.769298 0.309489 0.206724 0.159768
H5    H     H_    0.301897 0.825254 0.724344 0.238128
H6    H     H_    0.699092 0.324311 0.276043 0.238633
H7    H     H_    0.254622 0.887575 0.660555 0.257383
H8    H     H_    0.746014 0.386320 0.340189 0.260539
H9    H     H_    0.193080 0.392583 0.765217 0.101166
H10   H     H_    0.806778 0.892647 0.236163 0.099400
N5    N     N_R   0.134006 0.251056 0.705241 0.307236
O29   O     O_R   0.117490 0.388554 0.668060 -0.188358
O30   O     O_R   0.094501 0.132267 0.720771 -0.246011
N6    N     N_R   0.866220 0.751532 0.296039 0.303853
O31   O     O_R   0.882247 0.888479 0.333624 -0.194009
O32   O     O_R   0.906091 0.633787 0.280296 -0.247399
H11   H     H_    0.262057 0.411800 0.696123 0.119869
H12   H     H_    0.737951 0.910508 0.305637 0.120362
H13   H     H_    0.254841 0.302552 0.847320 0.173300
H14   H     H_    0.745516 0.801600 0.153385 0.174458
N7    N     N_R   0.341737 0.374001 0.780547 0.231201
O33   O     O_R   0.315870 0.512705 0.807251 -0.373859
O34   O     O_R   0.390511 0.406761 0.753284 -0.300490
N8    N     N_R   0.658908 0.874091 0.220475 0.230386
O35   O     O_R   0.685198 0.012906 0.194535 -0.375718
O36   O     O_R   0.609937 0.907245 0.247371 -0.288737
N9    N     N_R   0.915883 0.371866 0.821468 0.250922
O37   O     O_R   0.969901 0.328321 0.811659 -0.313434
O38   O     O_R   0.904137 0.533508 0.845399 -0.352602
N10   N     N_R   0.084329 0.325447 0.193456 0.248931
O39   O     O_R   0.090879 0.158391 0.171294 -0.304750
O40   O     O_R   0.032527 0.381153 0.207842 -0.300491
N11   N     N_R   0.223116 0.253183 0.622887 0.288580
O41   O     O_R   0.230405 0.391811 0.584242 -0.238377
O42   O     O_R   0.194813 0.108131 0.601079 -0.232203
N12   N     N_R   0.776811 0.749771 0.378481 0.288390
O43   O     O_R   0.766226 0.882736 0.418440 -0.268891
O44   O     O_R   0.806494 0.606267 0.399581 -0.221891
N13   N     N_R   0.872305 0.500454 0.710304 0.279215
O45   O     O_R   0.918273 0.438170 0.683149 -0.203357
O46   O     O_R   0.866868 0.677884 0.719877 -0.289429
N14   N     N_R   0.138251 0.208831 0.300655 0.278863
O47   O     O_R   0.148785 0.035326 0.288410 -0.295257
O48   O     O_R   0.093420 0.251859 0.333441 -0.197971
N15   N     N_R   0.777735 0.533833 0.625215 0.278910
O49   O     O_R   0.761055 0.701284 0.638762 -0.316529
O50   O     O_R   0.806937 0.505824 0.574330 -0.198548
N16   N     N_R   0.229665 0.231549 0.389425 0.277867
O51   O     O_R   0.202481 0.275666 0.440426 -0.198465
O52   O     O_R   0.245998 0.060455 0.381348 -0.304217
N17   N     N_R   0.679985 0.392910 0.573547 0.246523
O53   O     O_R   0.692840 0.327155 0.517989 -0.339626
O54   O     O_R   0.657880 0.558802 0.576931 -0.320569
N18   N     N_R   0.325941 0.397040 0.433459 0.247298
O55   O     O_R   0.349374 0.232589 0.431698 -0.332126
O56   O     O_R   0.316971 0.472224 0.488734 -0.339363
N19   N     N_R   0.584394 0.891777 0.687071 0.240188
O57   O     O_R   0.587917 0.715469 0.674514 -0.327450
O58   O     O_R   0.533984 0.963311 0.699448 -0.342115
N20   N     N_R   0.407975 0.896152 0.306123 0.242557
O59   O     O_R   0.399052 0.072821 0.313961 -0.335579
O60   O     O_R   0.460030 0.837311 0.294021 -0.332437
H15   H     H_    0.651821 0.754111 0.773294 0.215079
H16   H     H_    0.340507 0.984856 0.213357 0.215786
N21   N     N_R   0.734594 0.687874 0.860006 0.242917
O61   O     O_R   0.721014 0.520662 0.841064 -0.364768
O62   O     O_R   0.736612 0.725359 0.921060 -0.302551
N22   N     N_R   0.256099 0.012408 0.125572 0.237464
O63   O     O_R   0.302616 0.058684 0.096180 -0.271781
O64   O     O_R   0.209603 0.116177 0.118435 -0.382849
N23   N     N_R   0.367965 0.061838 0.804689 0.287338
O65   O     O_R   0.395468 0.101817 0.859235 -0.196555
O66   O     O_R   0.391919 0.940916 0.767913 -0.303699
N24   N     N_R   0.632609 0.562478 0.195983 0.287696
O67   O     O_R   0.605084 0.603487 0.141518 -0.196427
O68   O     O_R   0.608923 0.440280 0.232369 -0.317379

loop_
_geom_bond_atom_site_label_1
_geom_bond_atom_site_label_2
_geom_bond_distance
_ccdc_geom_bond_type
C47   N7    1.486567 S    
O15   C63   1.330111 A    
N23   O65   1.302521 A    
C51   C53   1.576329 S    
C39   N3    1.473289 S    
N19   O57   1.300867 A    
C48   N24   1.483097 S    
C1    C44   1.448926 S    
N5    O29   1.301464 A    
O1    C3    1.327741 A    
C2    C43   1.450267 S    
O16   C64   1.330108 A    
O2    C4    1.330130 A    
C3    C34   1.496323 S    
C2    O7    1.322290 A    
C52   N12   1.473969 S    
N3    O25   1.301662 A    
C37   C45   1.580126 S    
C27   C29   1.393642 A    
O5    C3    1.335237 A    
N23   O66   1.301352 A    
N21   O61   1.301313 A    
C8    C61   1.488659 S    
C38   H14   1.108388 S    
C11   C17   1.420838 A    
C23   C25   1.419076 A    
O14   C62   1.335125 A    
C28   H16   1.081333 S    
N15   O49   1.300997 A    
C51   H11   1.113348 S    
C39   H3    1.105143 S    
C52   H12   1.113274 S    
C48   C50   1.596504 S    
O6    V2    2.009257 S    
C57   C59   1.214778 T    
C49   C55   1.497387 S    
N24   O67   1.302523 A    
C53   N5    1.476443 S    
C50   C52   1.574060 S    
N3    O26   1.300995 A    
C41   C49   1.562834 S    
C46   C54   1.581689 S    
C32   C34   1.418193 A    
C15   C29   1.411993 A    
C29   N21   1.435852 S    
N17   O53   1.300953 A    
C19   C21   1.421742 A    
C39   C45   1.570448 S    
O12   V3    1.965666 S    
C25   C35   1.414160 A    
O14   V4    2.009340 S    
N18   O56   1.300801 A    
N22   O64   1.301042 A    
N21   O62   1.300853 A    
C10   N10   1.433731 S    
C17   C19   1.406461 A    
C37   N1    1.477687 S    
C47   N23   1.483078 S    
O15   V3    1.981215 S    
N15   O50   1.300921 A    
C40   C42   1.562982 S    
N6    O31   1.301441 A    
C59   C64   1.449154 S    
C33   C35   1.409364 A    
C17   N13   1.433933 S    
C34   C36   1.409172 A    
C47   C49   1.597466 S    
C42   H6    1.107324 S    
C6    H2    1.081611 S    
C6    C16   1.403210 A    
N16   O51   1.301097 A    
N12   O44   1.299877 A    
O12   C64   1.327572 A    
N1    O21   1.301114 A    
O20   V3    1.767787 S    
C38   N2    1.477556 S    
O5    V1    2.011220 S    
C42   C50   1.562987 S    
C20   C22   1.422722 A    
C44   C56   1.214655 T    
C40   N4    1.473417 S    
N6    O32   1.300111 A    
C39   C41   1.562258 S    
C5    C15   1.405475 A    
O4    V2    1.983109 S    
C7    C62   1.492447 S    
N10   O40   1.301190 A    
N9    O38   1.301054 A    
O11   V4    1.966795 S    
C18   C20   1.405223 A    
N1    O22   1.301627 A    
C36   N20   1.436502 S    
C41   H7    1.105348 S    
C28   C30   1.393441 A    
O6    C4    1.330976 A    
C49   C51   1.574961 S    
N18   O55   1.301450 A    
C38   C46   1.580073 S    
C5    H1    1.081088 S    
N5    O30   1.300097 A    
O1    V2    2.002668 S    
C54   H10   1.114960 S    
N2    O24   1.301199 A    
O2    V1    2.003707 S    
C31   C33   1.414844 A    
C53   H9    1.114986 S    
N7    O33   1.301675 A    
O17   V3    2.003694 S    
C40   C46   1.570594 S    
C13   C23   1.427001 A    
C20   N16   1.432715 S    
N16   O52   1.301646 A    
C14   C24   1.426831 A    
N22   O63   1.301241 A    
C8    C10   1.412529 A    
C9    C11   1.430332 A    
N11   O41   1.300997 A    
C10   C12   1.430646 A    
C30   N22   1.437653 S    
O4    C2    1.324464 A    
C9    N9    1.433512 S    
N24   O68   1.301341 A    
C27   H15   1.081085 S    
N9    O37   1.301470 A    
C51   N11   1.473173 S    
N14   O48   1.300845 A    
C31   N17   1.434637 S    
N8    O36   1.302088 A    
N4    O28   1.300915 A    
C35   N19   1.437532 S    
O19   V4    1.767688 S    
O13   V3    2.011301 S    
C22   C32   1.428524 A    
C40   H4    1.105035 S    
C54   N6    1.476048 S    
C7    C9    1.415422 A    
N14   O47   1.301240 A    
C26   C36   1.413931 A    
C46   C58   1.496940 S    
C12   C14   1.423973 A    
C45   C53   1.580707 S    
N12   O43   1.301509 A    
O3    C1    1.324264 A    
C18   N14   1.432748 S    
C43   C55   1.215437 T    
N13   O45   1.300897 A    
O9    V2    1.768183 S    
C48   N8    1.486563 S    
C4    C33   1.492725 S    
C50   C56   1.496143 S    
C13   C15   1.421352 A    
C14   C16   1.421325 A    
C37   C47   1.609140 S    
C42   H8    1.105563 S    
C38   C48   1.607970 S    
N20   O59   1.301117 A    
C24   C26   1.419353 A    
N10   O39   1.301280 A    
O7    V1    1.968870 S    
C32   N18   1.434291 S    
C1    O8    1.321729 A    
O16   V4    1.983372 S    
C52   C54   1.577313 S    
O8    V2    1.970036 S    
C26   C28   1.403986 A    
N13   O46   1.301270 A    
C62   O17   1.328640 A    
C37   H13   1.108279 S    
C61   O18   1.330672 A    
O18   V4    2.002654 S    
C16   C30   1.412685 A    
N4    O27   1.301684 A    
C21   C23   1.421178 A    
C22   C24   1.420106 A    
C6    C8    1.395505 A    
N17   O54   1.300917 A    
N2    O23   1.301139 A    
C12   C18   1.419885 A    
N7    O34   1.302063 A    
C60   C63   1.450160 S    
C19   N15   1.432294 S    
C5    C7    1.395706 A    
C41   H5    1.107383 S    
C25   C27   1.404395 A    
C11   C13   1.421801 A    
N19   O58   1.301157 A    
O13   C61   1.331322 A    
N11   O42   1.299856 A    
O10   V1    1.768280 S    
O3    V1    1.980949 S    
C58   C60   1.215351 T    
C45   C57   1.495966 S    
C21   C31   1.429105 A    
O11   C63   1.327989 A    
N20   O60   1.301130 A    
N8    O35   1.301679 A    
