data_mof_unit_18796.cif
_audit_creation_date              2012-10-26T17:12:49-0400
_audit_creation_method            fapswitch 2.2
_symmetry_space_group_name_H-M    P1
_symmetry_Int_Tables_number       1
_space_group_crystal_system       triclinic
_cell_length_a                    27.838951
_cell_length_b                    18.740142
_cell_length_c                    16.698916
_cell_angle_alpha                 90.010311
_cell_angle_beta                  63.229202
_cell_angle_gamma                 90.194926
_cell_volume                      7778.08589169

loop_
_atom_site_label
_atom_site_type_symbol
_atom_type_description
_atom_site_fract_x
_atom_site_fract_y
_atom_site_fract_z
_atom_type_partial_charge
C1    C     C_R   0.296295 0.731826 0.328164 0.811619
C2    C     C_R   0.703478 0.267901 0.672139 0.808438
C3    C     C_R   0.703551 0.732267 0.671886 0.816629
C4    C     C_R   0.296522 0.267750 0.328010 0.811649
C5    C     C_R   0.796295 0.231827 0.328164 0.811616
C6    C     C_R   0.203478 0.767901 0.672139 0.808434
C7    C     C_R   0.203552 0.232266 0.671886 0.816622
C8    C     C_R   0.796522 0.767749 0.328010 0.811641
C9    C     C_R   0.404397 0.000004 0.480005 0.073326
C10   C     C_R   0.599097 0.000848 0.507537 0.072778
C11   C     C_R   0.904421 0.500010 0.479929 0.073319
C12   C     C_R   0.099111 0.500854 0.507495 0.072781
C13   C     C_R   0.616734 0.880452 0.447476 -0.236252
C14   C     C_R   0.387107 0.119977 0.541335 -0.225008
C15   C     C_R   0.421949 0.878315 0.423963 -0.230884
C16   C     C_R   0.581205 0.122830 0.562388 -0.218147
C17   C     C_R   0.116750 0.380458 0.447439 -0.236266
C18   C     C_R   0.887123 0.619973 0.541290 -0.224997
C19   C     C_R   0.921968 0.378310 0.423910 -0.230892
C20   C     C_R   0.081212 0.622830 0.562363 -0.218133
C21   C     C_R   0.201417 0.735949 0.972501 -0.015899
C22   C     C_R   0.760687 0.207576 0.067723 -0.019213
C23   C     C_R   0.797029 0.737478 0.029348 -0.015439
C24   C     C_R   0.238679 0.208699 0.932868 -0.019220
C25   C     C_R   0.701418 0.235954 0.972502 -0.015895
C26   C     C_R   0.260685 0.707570 0.067722 -0.019212
C27   C     C_R   0.297023 0.237483 0.029357 -0.015443
C28   C     C_R   0.738683 0.708696 0.932861 -0.019238
C29   C     C_R   0.245223 0.688329 0.936279 0.015348
C30   C     C_R   0.715897 0.254619 0.106154 0.014247
C31   C     C_R   0.753710 0.688877 0.064523 0.018788
C32   C     C_R   0.283601 0.255662 0.894831 0.016123
C33   C     C_R   0.745224 0.188333 0.936281 0.015347
C34   C     C_R   0.215893 0.754611 0.106155 0.014238
C35   C     C_R   0.253703 0.188883 0.064535 0.018808
C36   C     C_R   0.783604 0.755661 0.894824 0.016125
C37   C     C_R   0.268362 0.665971 0.992715 0.012592
C38   C     C_R   0.681082 0.257849 0.063209 0.011808
C39   C     C_R   0.731045 0.666501 0.007341 0.009267
C40   C     C_R   0.317467 0.259901 0.939062 0.015729
C41   C     C_R   0.768363 0.165975 0.992718 0.012590
C42   C     C_R   0.181079 0.757841 0.063208 0.011834
C43   C     C_R   0.231037 0.166507 0.007353 0.009274
C44   C     C_R   0.817472 0.759899 0.939055 0.015726
C45   C     C_R   0.131347 0.805912 0.958102 0.058695
C46   C     C_R   0.835553 0.142850 0.075505 0.060940
C47   C     C_R   0.867231 0.807518 0.043554 0.057023
C48   C     C_R   0.164224 0.143501 0.924222 0.059011
C49   C     C_R   0.631347 0.305914 0.958103 0.058663
C50   C     C_R   0.335552 0.642847 0.075504 0.060942
C51   C     C_R   0.367228 0.307521 0.043558 0.057025
C52   C     C_R   0.664226 0.643501 0.924219 0.059018
C53   C     C_R   0.112456 0.841501 0.902190 -0.109828
C54   C     C_R   0.873732 0.137479 0.110545 -0.114183
C55   C     C_R   0.886829 0.842253 0.098785 -0.110930
C56   C     C_R   0.125979 0.138240 0.889514 -0.115834
C57   C     C_R   0.612456 0.341502 0.902190 -0.109825
C58   C     C_R   0.373731 0.637477 0.110545 -0.114182
C59   C     C_R   0.386827 0.342255 0.098787 -0.110931
C60   C     C_R   0.625979 0.638241 0.889513 -0.115835
C61   C     C_R   0.136228 0.825555 0.810498 -0.265545
C62   C     C_R   0.863069 0.173716 0.189948 -0.262494
C63   C     C_R   0.863547 0.825699 0.190159 -0.264464
C64   C     C_R   0.136446 0.174931 0.810480 -0.261003
C65   C     C_R   0.636228 0.325555 0.810499 -0.265543
C66   C     C_R   0.363068 0.673716 0.189948 -0.262497
C67   C     C_R   0.363546 0.325701 0.190161 -0.264464
C68   C     C_R   0.636445 0.674934 0.810481 -0.261004
C69   C     C_R   0.177366 0.774926 0.772247 -0.114035
C70   C     C_R   0.818691 0.218963 0.230074 -0.113854
C71   C     C_R   0.822231 0.774976 0.228398 -0.110864
C72   C     C_R   0.181109 0.220063 0.770017 -0.113279
C73   C     C_R   0.677366 0.274926 0.772247 -0.114040
C74   C     C_R   0.318688 0.718961 0.230074 -0.113854
C75   C     C_R   0.322230 0.274978 0.228400 -0.110862
C76   C     C_R   0.681109 0.720064 0.770018 -0.113283
C77   C     C_R   0.196187 0.739141 0.828929 -0.009654
C78   C     C_R   0.790033 0.239083 0.180875 -0.008719
C79   C     C_R   0.802652 0.739629 0.172333 -0.010344
C80   C     C_R   0.210096 0.240169 0.818880 -0.013003
C81   C     C_R   0.696188 0.239143 0.828931 -0.009647
C82   C     C_R   0.290029 0.739079 0.180877 -0.008722
C83   C     C_R   0.302650 0.239633 0.172337 -0.010347
C84   C     C_R   0.710096 0.740170 0.818880 -0.013000
C85   C     C_R   0.196885 0.631627 0.526937 0.824284
C86   C     C_R   0.803401 0.368205 0.471880 0.817158
C87   C     C_R   0.799650 0.630885 0.485111 0.834557
C88   C     C_R   0.200616 0.369047 0.513826 0.828633
C89   C     C_R   0.696884 0.131627 0.526937 0.824279
C90   C     C_R   0.303398 0.868206 0.471891 0.817173
C91   C     C_R   0.299647 0.130886 0.485121 0.834572
C92   C     C_R   0.700615 0.869047 0.513829 0.828632
C93   C     C_R   0.176948 0.761251 0.919095 0.059683
C94   C     C_R   0.795710 0.197070 0.107706 0.057663
C95   C     C_R   0.821543 0.762573 0.082673 0.059221
C96   C     C_R   0.203976 0.198143 0.892388 0.057611
C97   C     C_R   0.676949 0.261254 0.919096 0.059685
C98   C     C_R   0.295708 0.697066 0.107706 0.057665
C99   C     C_R   0.321539 0.262577 0.082679 0.059219
C100  C     C_R   0.703978 0.698143 0.892384 0.057605
C101  C     C_R   0.103229 0.806216 0.052610 -0.227108
C102  C     C_R   0.830623 0.090602 0.018929 -0.233481
C103  C     C_R   0.895213 0.808278 0.949247 -0.223640
C104  C     C_R   0.169514 0.090577 0.979665 -0.234663
C105  C     C_R   0.603231 0.306222 0.052611 -0.227062
C106  C     C_R   0.330624 0.590600 0.018927 -0.233490
C107  C     C_R   0.395209 0.308279 0.949251 -0.223637
C108  C     C_R   0.669517 0.590576 0.979659 -0.234637
C109  C     C_R   0.126399 0.777761 0.104778 -0.015775
C110  C     C_R   0.793472 0.099629 0.984546 -0.029064
C111  C     C_R   0.872125 0.778927 0.897715 -0.019366
C112  C     C_R   0.206830 0.099565 0.013743 -0.028952
C113  C     C_R   0.626402 0.277770 0.104780 -0.015753
C114  C     C_R   0.293472 0.599626 0.984544 -0.029078
C115  C     C_R   0.372121 0.278924 0.897721 -0.019380
C116  C     C_R   0.706835 0.599560 0.013731 -0.028898
C117  C     C_R   0.232755 0.681406 0.800643 -0.048552
C118  C     C_R   0.754627 0.297812 0.203974 -0.037068
C119  C     C_R   0.765838 0.681577 0.200454 -0.056266
C120  C     C_R   0.246886 0.297978 0.794430 -0.045273
C121  C     C_R   0.732757 0.181410 0.800644 -0.048558
C122  C     C_R   0.254620 0.797805 0.203978 -0.037067
C123  C     C_R   0.265837 0.181581 0.200459 -0.056266
C124  C     C_R   0.746885 0.797980 0.794430 -0.045272
C125  C     C_R   0.263740 0.665355 0.845731 0.043092
C126  C     C_R   0.712565 0.300324 0.178003 0.049948
C127  C     C_R   0.735154 0.665133 0.154706 0.038722
C128  C     C_R   0.288731 0.299665 0.820831 0.044611
C129  C     C_R   0.763742 0.165360 0.845732 0.043095
C130  C     C_R   0.212559 0.800314 0.178006 0.049958
C131  C     C_R   0.235149 0.165138 0.154717 0.038713
C132  C     C_R   0.788732 0.799667 0.820827 0.044616
C133  C     C_R   0.927906 0.900218 0.064929 0.790029
C134  C     C_R   0.077202 0.092117 0.930514 0.824106
C135  C     C_R   0.071812 0.899907 0.935393 0.788890
C136  C     C_R   0.922664 0.091813 0.069561 0.821640
C137  C     C_R   0.427906 0.400219 0.064929 0.790032
C138  C     C_R   0.577202 0.592118 0.930514 0.824106
C139  C     C_R   0.571812 0.399908 0.935393 0.788891
C140  C     C_R   0.422664 0.591813 0.069561 0.821640
C141  C     C_R   0.034683 0.623935 0.550988 0.099089
C142  C     C_R   0.971107 0.378952 0.427982 0.103233
C143  C     C_R   0.936965 0.622341 0.541263 0.098774
C144  C     C_R   0.068756 0.379999 0.439999 0.099880
C145  C     C_R   0.534670 0.123932 0.551031 0.099100
C146  C     C_R   0.471085 0.878950 0.428040 0.103230
C147  C     C_R   0.436946 0.122339 0.541319 0.098782
C148  C     C_R   0.568735 0.879992 0.440048 0.099878
C149  C     C_R   0.003142 0.685544 0.571085 -0.145356
C150  C     C_R   0.004679 0.319052 0.401814 -0.191025
C151  C     C_R   0.953963 0.684363 0.568059 -0.157699
C152  C     C_R   0.053179 0.319607 0.407659 -0.203727
C153  C     C_R   0.503132 0.185544 0.571118 -0.145346
C154  C     C_R   0.504664 0.819061 0.401839 -0.191033
C155  C     C_R   0.453951 0.184364 0.568097 -0.157694
C156  C     C_R   0.553162 0.819610 0.407689 -0.203735
C157  C     C_R   0.970298 0.562139 0.514037 0.034848
C158  C     C_R   0.035462 0.440283 0.466317 0.034555
C159  C     C_R   0.019077 0.562627 0.520019 0.030594
C160  C     C_R   0.986700 0.439914 0.459803 0.030483
C161  C     C_R   0.470274 0.062130 0.514111 0.034841
C162  C     C_R   0.535437 0.940272 0.466386 0.034555
C163  C     C_R   0.519056 0.062618 0.520084 0.030594
C164  C     C_R   0.486672 0.939903 0.459882 0.030488
C165  C     C_R   0.453769 0.000624 0.484655 -0.042533
C166  C     C_R   0.551253 0.001252 0.497893 -0.042759
C167  C     C_R   0.953797 0.500635 0.484571 -0.042531
C168  C     C_R   0.051275 0.501262 0.497830 -0.042756
C169  C     C_R   0.386621 0.937093 0.454519 0.045950
C170  C     C_R   0.615763 0.063305 0.535798 0.042561
C171  C     C_R   0.630361 0.938216 0.488244 0.042533
C172  C     C_R   0.372300 0.061963 0.502938 0.040508
C173  C     C_R   0.886641 0.437094 0.454454 0.045983
C174  C     C_R   0.115771 0.563307 0.535774 0.042554
C175  C     C_R   0.130374 0.438221 0.488212 0.042529
C176  C     C_R   0.872319 0.561964 0.502883 0.040511
C177  C     C_R   0.333825 0.935395 0.461406 -0.110320
C178  C     C_R   0.666969 0.064420 0.534853 -0.108693
C179  C     C_R   0.674224 0.936187 0.510075 -0.119160
C180  C     C_R   0.326618 0.063630 0.486419 -0.117815
C181  C     C_R   0.833837 0.435393 0.461372 -0.110313
C182  C     C_R   0.166972 0.564421 0.534847 -0.108696
C183  C     C_R   0.174228 0.436188 0.510064 -0.119159
C184  C     C_R   0.826628 0.563629 0.486388 -0.117823
C185  C     C_R   0.306686 0.999717 0.470000 -0.236390
C186  C     C_R   0.693330 0.999940 0.528778 -0.238696
C187  C     C_R   0.806695 0.499714 0.469975 -0.236383
C188  C     C_R   0.193330 0.499940 0.528778 -0.238691
Cu1   Cu    Cu3+1 0.209920 0.785290 0.495070 0.949387
Cu2   Cu    Cu3+1 0.790080 0.214710 0.504930 0.951620
Cu3   Cu    Cu3+1 0.790080 0.785290 0.504930 0.947131
Cu4   Cu    Cu3+1 0.209920 0.214710 0.495070 0.945705
Cu5   Cu    Cu3+1 0.709920 0.285290 0.495070 0.949389
Cu6   Cu    Cu3+1 0.290080 0.714710 0.504930 0.951630
Cu7   Cu    Cu3+1 0.290080 0.285290 0.504930 0.947130
Cu8   Cu    Cu3+1 0.709920 0.714710 0.495070 0.945710
Cu9   Cu    Cu3+1 0.495240 0.500000 0.924150 0.930469
Cu10  Cu    Cu3+1 0.504760 0.500000 0.075850 0.930501
Cu11  Cu    Cu3+1 0.995240 0.000000 0.924150 0.930470
Cu12  Cu    Cu3+1 0.004760 0.000000 0.075850 0.930518
H1    H     H_    0.577852 0.772221 0.389229 0.145631
H2    H     H_    0.429160 0.231835 0.587040 0.130936
H3    H     H_    0.492832 0.771457 0.378447 0.136372
H4    H     H_    0.515669 0.233991 0.591993 0.142384
H5    H     H_    0.077864 0.272214 0.389221 0.145648
H6    H     H_    0.929167 0.731829 0.587015 0.130947
H7    H     H_    0.992838 0.271435 0.378453 0.136365
H8    H     H_    0.015673 0.733988 0.591975 0.142399
H9    H     H_    0.268674 0.999723 0.466791 0.202382
H10   H     H_    0.730094 0.999709 0.536029 0.203925
H11   H     H_    0.768678 0.499719 0.466786 0.202379
H12   H     H_    0.230091 0.499708 0.536043 0.203930
H13   H     H_    0.643562 0.836107 0.418068 0.170945
H14   H     H_    0.359818 0.162968 0.575198 0.170677
H15   H     H_    0.412620 0.832403 0.394269 0.163006
H16   H     H_    0.588457 0.167874 0.595888 0.168008
H17   H     H_    0.143576 0.336109 0.418046 0.170951
H18   H     H_    0.859829 0.662953 0.575175 0.170675
H19   H     H_    0.912627 0.332359 0.394273 0.163005
H20   H     H_    0.088457 0.667869 0.595878 0.168007
H21   H     H_    0.123163 0.854387 0.767604 0.187605
H22   H     H_    0.887720 0.163478 0.223677 0.183598
H23   H     H_    0.877154 0.854067 0.232764 0.189391
H24   H     H_    0.111606 0.164797 0.776998 0.186257
H25   H     H_    0.623162 0.354385 0.767605 0.187603
H26   H     H_    0.387720 0.663479 0.223676 0.183598
H27   H     H_    0.377155 0.354068 0.232765 0.189392
H28   H     H_    0.611604 0.664800 0.777000 0.186257
H29   H     H_    0.061275 0.821254 0.086183 0.171105
H30   H     H_    0.850481 0.039564 0.010210 0.165701
H31   H     H_    0.937589 0.821636 0.915736 0.169579
H32   H     H_    0.150078 0.039151 0.987119 0.164827
H33   H     H_    0.561277 0.321260 0.086186 0.171124
H34   H     H_    0.350481 0.539562 0.010209 0.165701
H35   H     H_    0.437586 0.321635 0.915739 0.169576
H36   H     H_    0.650080 0.539150 0.987114 0.164802
O1    O     O_R   0.255040 0.869590 0.478480 -0.574377
O2    O     O_R   0.744960 0.130410 0.521520 -0.568871
O3    O     O_R   0.744960 0.869590 0.521520 -0.575828
O4    O     O_R   0.255040 0.130410 0.478480 -0.571914
O5    O     O_R   0.755040 0.369590 0.478480 -0.574370
O6    O     O_R   0.244960 0.630410 0.521520 -0.568873
O7    O     O_R   0.244960 0.369590 0.521520 -0.575828
O8    O     O_R   0.755040 0.630410 0.478480 -0.571905
O9    O     O_R   0.182050 0.796550 0.624440 -0.590387
O10   O     O_R   0.817950 0.203450 0.375560 -0.590410
O11   O     O_R   0.817950 0.796550 0.375560 -0.584116
O12   O     O_R   0.182050 0.203450 0.624440 -0.584167
O13   O     O_R   0.682050 0.296550 0.624440 -0.590384
O14   O     O_R   0.317950 0.703450 0.375560 -0.590405
O15   O     O_R   0.317950 0.296550 0.375560 -0.584117
O16   O     O_R   0.682050 0.703450 0.624440 -0.584164
O17   O     O_R   0.250530 0.763330 0.367210 -0.580527
O18   O     O_R   0.749470 0.236670 0.632790 -0.578924
O19   O     O_R   0.749470 0.763330 0.632790 -0.594852
O20   O     O_R   0.250530 0.236670 0.367210 -0.594512
O21   O     O_R   0.750530 0.263330 0.367210 -0.580526
O22   O     O_R   0.249470 0.736670 0.632790 -0.578927
O23   O     O_R   0.249470 0.263330 0.632790 -0.594857
O24   O     O_R   0.750530 0.736670 0.367210 -0.594510
O25   O     O_R   0.177260 0.690030 0.513710 -0.598447
O26   O     O_R   0.822740 0.309970 0.486290 -0.595816
O27   O     O_R   0.822740 0.690030 0.486290 -0.597886
O28   O     O_R   0.177260 0.309970 0.513710 -0.598709
O29   O     O_R   0.677260 0.190030 0.513710 -0.598445
O30   O     O_R   0.322740 0.809970 0.486290 -0.595808
O31   O     O_R   0.322740 0.190030 0.486290 -0.597887
O32   O     O_R   0.677260 0.809970 0.513710 -0.598711
O33   O     O_R   0.051640 0.926880 0.885090 -0.589166
O34   O     O_R   0.948360 0.073120 0.114910 -0.579262
O35   O     O_R   0.948360 0.926880 0.114910 -0.588098
O36   O     O_R   0.051640 0.073120 0.885090 -0.578724
O37   O     O_R   0.551640 0.426880 0.885090 -0.589165
O38   O     O_R   0.448360 0.573120 0.114910 -0.579263
O39   O     O_R   0.448360 0.426880 0.114910 -0.588095
O40   O     O_R   0.551640 0.573120 0.885090 -0.578721
O41   O     O_R   0.940620 0.926560 0.986760 -0.599581
O42   O     O_R   0.059380 0.073440 0.013240 -0.582552
O43   O     O_R   0.059380 0.926560 0.013240 -0.599223
O44   O     O_R   0.940620 0.073440 0.986760 -0.582690
O45   O     O_R   0.440620 0.426560 0.986760 -0.599583
O46   O     O_R   0.559380 0.573440 0.013240 -0.582565
O47   O     O_R   0.559380 0.426560 0.013240 -0.599225
O48   O     O_R   0.440620 0.573440 0.986760 -0.582689
C189  C     C_1   0.090103 0.747987 0.190780 0.220366
N1    N     N_1   0.060845 0.723739 0.259419 -0.284444
C190  C     C_1   0.766231 0.037348 0.974004 0.213758
N2    N     N_1   0.742448 0.988372 0.968600 -0.301581
C191  C     C_1   0.907941 0.739012 0.820692 0.214398
N3    N     N_1   0.936861 0.705310 0.760577 -0.301970
C192  C     C_1   0.236038 0.037882 0.019310 0.215748
N4    N     N_1   0.261427 0.989491 0.020458 -0.300180
C193  C     C_1   0.590107 0.248002 0.190786 0.220361
N5    N     N_1   0.560849 0.223760 0.259429 -0.284458
C194  C     C_1   0.266227 0.537344 0.974012 0.213764
N6    N     N_1   0.242441 0.488368 0.968617 -0.301579
C195  C     C_1   0.407935 0.238998 0.820709 0.214391
N7    N     N_1   0.436854 0.205285 0.760604 -0.301941
C196  C     C_1   0.736041 0.537875 0.019296 0.215720
N8    N     N_1   0.761429 0.489480 0.020440 -0.300176
C197  C     C_1   0.228122 0.626266 0.743737 0.266164
N9    N     N_1   0.224223 0.581505 0.699285 -0.267570
C198  C     C_1   0.767608 0.361397 0.240309 0.264673
N10   N     N_1   0.778045 0.412082 0.268995 -0.270972
C199  C     C_1   0.770060 0.626416 0.257657 0.275358
N11   N     N_1   0.773620 0.581647 0.302358 -0.258068
C200  C     C_1   0.235940 0.361805 0.756149 0.279365
N12   N     N_1   0.227153 0.412737 0.725891 -0.263614
C201  C     C_1   0.728125 0.126268 0.743737 0.266166
N13   N     N_1   0.724228 0.081507 0.699285 -0.267561
C202  C     C_1   0.267599 0.861392 0.240311 0.264685
N14   N     N_1   0.278035 0.912079 0.268996 -0.270971
C203  C     C_1   0.270065 0.126416 0.257654 0.275360
N15   N     N_1   0.273630 0.081646 0.302348 -0.258068
C204  C     C_1   0.735938 0.861807 0.756150 0.279362
N16   N     N_1   0.727149 0.912739 0.725893 -0.263610
C205  C     C_3   0.320028 0.635146 0.789594 -0.394171
C206  C     C_3   0.363638 0.689643 0.780130 -0.327675
C207  C     C_3   0.419880 0.661706 0.719410 -0.837939
H37   H     H_    0.428077 0.612804 0.748622 0.253597
H38   H     H_    0.423837 0.649495 0.651611 0.249376
H39   H     H_    0.450266 0.702848 0.712725 0.249619
H40   H     H_    0.357244 0.739965 0.751008 0.227479
H41   H     H_    0.361435 0.702083 0.846686 0.233071
H42   H     H_    0.326351 0.584194 0.816239 0.202519
H43   H     H_    0.326050 0.622387 0.720689 0.200476
C208  C     C_3   0.666539 0.352269 0.229248 -0.384336
C209  C     C_3   0.665087 0.415612 0.172835 -0.320314
C210  C     C_3   0.609069 0.448213 0.209356 -0.861570
H44   H     H_    0.596870 0.470253 0.277503 0.250621
H45   H     H_    0.609551 0.491775 0.164005 0.242997
H46   H     H_    0.579124 0.407697 0.212382 0.261928
H47   H     H_    0.693118 0.456569 0.175451 0.229787
H48   H     H_    0.678331 0.400200 0.101920 0.247804
H49   H     H_    0.628003 0.324087 0.262202 0.210956
H50   H     H_    0.669165 0.374589 0.288792 0.182501
C211  C     C_3   0.679536 0.631966 0.208842 -0.395017
C212  C     C_3   0.634770 0.682604 0.214654 -0.326395
C213  C     C_3   0.579145 0.650753 0.271587 -0.865282
H51   H     H_    0.574478 0.599598 0.242499 0.260460
H52   H     H_    0.572744 0.641671 0.341430 0.246406
H53   H     H_    0.548018 0.687924 0.272501 0.242494
H54   H     H_    0.638508 0.734121 0.244283 0.215881
H55   H     H_    0.638193 0.694005 0.147153 0.237490
H56   H     H_    0.675879 0.579872 0.181580 0.205208
H57   H     H_    0.672368 0.620808 0.278733 0.197716
C214  C     C_3   0.337112 0.347821 0.766830 -0.397342
C215  C     C_3   0.339107 0.414914 0.817401 -0.309112
C216  C     C_3   0.395376 0.447683 0.777230 -0.866688
H58   H     H_    0.407776 0.464596 0.706873 0.251128
H59   H     H_    0.395321 0.495008 0.817253 0.241509
H60   H     H_    0.424901 0.408710 0.778833 0.258350
H61   H     H_    0.311111 0.454524 0.812265 0.231547
H62   H     H_    0.326418 0.403100 0.889195 0.247356
H63   H     H_    0.374700 0.317315 0.741045 0.200490
H64   H     H_    0.336916 0.365579 0.703469 0.182036
C217  C     C_3   0.820031 0.135155 0.789595 -0.394166
C218  C     C_3   0.863639 0.189655 0.780131 -0.327681
C219  C     C_3   0.919882 0.161712 0.719437 -0.837949
H65   H     H_    0.928076 0.112826 0.748683 0.253600
H66   H     H_    0.923845 0.149470 0.651643 0.249381
H67   H     H_    0.950267 0.202860 0.712736 0.249619
H68   H     H_    0.857251 0.239969 0.750987 0.227476
H69   H     H_    0.861427 0.202112 0.846689 0.233075
H70   H     H_    0.826356 0.084204 0.816240 0.202526
H71   H     H_    0.826054 0.122395 0.720691 0.200466
C220  C     C_3   0.166532 0.852259 0.229246 -0.384364
C221  C     C_3   0.165089 0.915607 0.172831 -0.320326
C222  C     C_3   0.109069 0.948199 0.209328 -0.861446
H72   H     H_    0.096817 0.970133 0.277550 0.250598
H73   H     H_    0.109580 0.991843 0.164047 0.242967
H74   H     H_    0.079149 0.907699 0.212193 0.261925
H75   H     H_    0.193111 0.956566 0.175474 0.229783
H76   H     H_    0.178347 0.900201 0.101910 0.247808
H77   H     H_    0.127994 0.824082 0.262190 0.210972
H78   H     H_    0.169153 0.874574 0.288796 0.182481
C223  C     C_3   0.179535 0.131963 0.208857 -0.394997
C224  C     C_3   0.134759 0.182581 0.214663 -0.326441
C225  C     C_3   0.079140 0.150756 0.271692 -0.865384
H79   H     H_    0.074464 0.099545 0.242730 0.260460
H80   H     H_    0.072761 0.141782 0.341540 0.246403
H81   H     H_    0.048005 0.187887 0.272557 0.242511
H82   H     H_    0.138516 0.234130 0.244208 0.215933
H83   H     H_    0.138153 0.193914 0.147168 0.237506
H84   H     H_    0.175885 0.079862 0.181603 0.205163
H85   H     H_    0.172369 0.120817 0.278749 0.197764
C226  C     C_3   0.837113 0.847819 0.766821 -0.397333
C227  C     C_3   0.839115 0.914912 0.817385 -0.309112
C228  C     C_3   0.895387 0.947674 0.777204 -0.866763
H86   H     H_    0.907787 0.964572 0.706847 0.251149
H87   H     H_    0.895336 0.995004 0.817207 0.241517
H88   H     H_    0.924908 0.908706 0.778817 0.258359
H89   H     H_    0.811121 0.954526 0.812249 0.231552
H90   H     H_    0.826428 0.903102 0.889178 0.247359
H91   H     H_    0.874700 0.817311 0.741029 0.200500
H92   H     H_    0.836914 0.865577 0.703462 0.182035

loop_
_geom_bond_atom_site_label_1
_geom_bond_atom_site_label_2
_ccdc_geom_bond_type
C205  H43   S    
C92   O3    A    
C217  C218  S    
Cu3   O11   S    
C7    O23   A    
C192  N4    T    
C34   C42   A    
Cu1   O1    S    
C154  H3    S    
C181  C187  A    
C197  N9    T    
Cu12  O34   S    
C27   C99   A    
C85   C182  S    
C206  H40   S    
C170  C178  A    
C175  C183  A    
C42   C109  A    
C132  C226  S    
C24   C96   A    
C133  O35   A    
C227  H90   S    
C133  O41   A    
C62   C70   A    
C13   H13   S    
Cu3   Cu8   S    
C9    C169  A    
Cu1   Cu6   S    
C131  C223  S    
Cu4   O20   S    
C155  H2    S    
C147  C155  A    
C222  H74   S    
C143  C151  A    
C90   C177  S    
C114  C194  S    
C11   C167  A    
C82   C98   A    
C128  C214  S    
C76   C84   A    
C91   O31   A    
C2    O18   A    
C73   C81   A    
C221  C222  S    
C161  C163  A    
C211  C212  S    
C162  C164  A    
C50   C98   A    
C84   C100  A    
Cu4   Cu7   S    
C15   H15   S    
C121  C129  A    
C37   C114  A    
C27   C35   A    
C10   C171  A    
C55   C133  S    
C21   C29   A    
C137  O39   A    
C81   C121  A    
C23   C31   A    
Cu4   O28   S    
C5    C70   S    
C150  C152  A    
C198  N10   T    
C146  C154  A    
Cu12  O43   S    
C65   H25   S    
C63   C71   A    
C228  H86   S    
C185  H9    S    
C36   C44   A    
C226  C227  S    
C12   C174  A    
C58   C140  S    
C176  C184  A    
C8    C71   S    
C48   C96   A    
C89   O2    A    
Cu7   O23   S    
C56   C134  S    
C68   H28   S    
C111  C191  S    
C115  C195  S    
C148  C162  A    
C183  C188  A    
C221  H76   S    
C188  H12   S    
C108  C116  A    
C21   C93   A    
C78   C94   A    
C9    C165  A    
C215  C216  S    
C23   C95   A    
C57   C139  S    
C49   C97   A    
C21   C42   A    
C22   C41   A    
C129  C217  S    
C51   C107  A    
C219  H65   S    
C102  H30   S    
C24   C43   A    
C16   C145  A    
Cu1   O17   S    
C224  C225  S    
C217  H70   S    
C86   O26   A    
C161  C165  A    
C17   C175  A    
C60   C138  S    
C18   C176  A    
C6    C69   S    
C207  H38   S    
C216  H58   S    
C29   C125  A    
C69   C77   A    
Cu6   O30   S    
C31   C127  A    
C5    O10   A    
C45   C93   A    
C174  C182  A    
C88   O7    A    
C71   C79   A    
C215  H62   S    
C179  C186  A    
C64   H24   S    
C11   C176  A    
C17   C144  A    
C1    C74   S    
C105  C113  A    
C18   C143  A    
C78   C118  A    
C149  C151  A    
C92   O32   A    
Cu4   O4    S    
C134  O36   A    
C212  H54   S    
C66   C74   A    
C135  O33   A    
C49   C57   A    
C124  C132  A    
C122  C202  S    
C52   C60   A    
C59   C67   A    
C53   C61   A    
C141  C159  A    
C20   C174  A    
C8    O11   A    
C227  C228  S    
C55   C63   A    
C126  C208  S    
C228  H88   S    
C209  H48   S    
Cu6   O14   S    
C218  H69   S    
C214  H64   S    
C35   C43   A    
Cu11  O33   S    
C45   C53   A    
Cu10  O46   S    
C22   C94   A    
C171  C179  A    
C140  O48   A    
C156  H1    S    
C149  H8    S    
C169  C177  A    
C103  H31   S    
Cu2   O10   S    
Cu3   O3    S    
C63   H23   S    
C2    O13   A    
C7    C72   S    
C104  C112  A    
Cu9   O40   S    
C225  H81   S    
Cu10  O39   S    
C145  C163  A    
C113  C193  S    
C187  H11   S    
C146  C164  A    
C14   C147  A    
C52   C100  A    
C79   C119  A    
C220  H78   S    
C178  C186  A    
C8    O24   A    
C124  C204  S    
C193  N5    T    
C25   C38   A    
C46   C94   A    
C67   H27   S    
C27   C40   A    
C10   C166  A    
C91   C180  S    
Cu8   O16   S    
C5    O21   A    
C191  N3    T    
C182  C188  A    
C89   C178  S    
C28   C36   A    
C2    C73   S    
C211  H57   S    
C25   C97   A    
C199  N11   T    
C216  H60   S    
Cu12  O42   S    
Cu8   O32   S    
C67   C75   A    
C4    O20   A    
C117  C197  S    
C18   H18   S    
C87   O27   A    
C88   O28   A    
C50   C106  A    
C205  H42   S    
Cu7   O7    S    
C119  C199  S    
Cu5   O5    S    
C20   C141  A    
C209  C210  S    
C15   C146  A    
C68   C76   A    
C138  O46   A    
Cu4   O12   S    
C184  C187  A    
C206  H41   S    
C214  H63   S    
C32   C128  A    
C144  C152  A    
C87   O8    A    
C120  C200  S    
C82   C122  A    
C118  C198  S    
C219  H67   S    
C89   O29   A    
C62   H22   S    
Cu9   Cu10  S    
C130  C220  S    
Cu9   O45   S    
C137  O45   A    
Cu11  Cu12  S    
C213  H53   S    
C19   H19   S    
C121  C201  S    
C112  C192  S    
C139  O37   A    
C117  C125  A    
C25   C33   A    
C222  H73   S    
C119  C127  A    
C108  H36   S    
Cu2   O2    S    
C223  H85   S    
C157  C167  A    
C208  H49   S    
C34   C130  A    
C158  C168  A    
C225  H79   S    
C135  O43   A    
C164  C165  A    
C136  O44   A    
Cu2   O18   S    
C40   C115  A    
C101  C109  A    
C177  C185  A    
C14   H14   S    
C103  C111  A    
C195  N7    T    
C224  H82   S    
C16   H16   S    
C208  H50   S    
C4    C75   S    
C125  C205  S    
C226  H92   S    
Cu2   Cu5   S    
C162  C166  A    
C110  C190  S    
C116  C196  S    
C53   C135  S    
C91   O4    A    
C123  C203  S    
Cu5   O21   S    
C153  C155  A    
Cu7   O31   S    
C154  C156  A    
C172  C180  A    
C173  C181  A    
C204  N16   T    
C157  C159  A    
C83   C99   A    
C158  C160  A    
C74   C82   A    
C1    O17   A    
C47   C103  A    
C200  N12   T    
C50   C58   A    
C163  C166  A    
C147  C161  A    
C142  C160  A    
C214  C215  S    
C38   C113  A    
C49   C105  A    
C54   C62   A    
C28   C39   A    
C217  H71   S    
Cu3   O19   S    
C23   C44   A    
C134  O42   A    
C196  N8    T    
C19   C173  A    
C79   C95   A    
C189  N1    T    
C92   C179  S    
Cu9   O37   S    
C213  H51   S    
C46   C54   A    
Cu1   O25   S    
C45   C101  A    
C106  C114  A    
C19   C142  A    
C186  H10   S    
C102  C110  A    
C35   C131  A    
C194  N6    T    
C33   C129  A    
C85   O25   A    
C90   O1    A    
C123  C131  A    
C4    O15   A    
C57   C65   A    
C120  C128  A    
C26   C37   A    
C10   C170  A    
C6    O22   A    
C33   C41   A    
C142  C150  A    
C36   C132  A    
C227  H89   S    
C208  C209  S    
C75   C83   A    
C203  N15   T    
Cu11  O41   S    
C86   O5    A    
C212  H55   S    
C77   C93   A    
C61   H21   S    
C225  H80   S    
C207  H37   S    
C44   C111  A    
C16   C170  A    
C60   C68   A    
C72   C80   A    
C39   C116  A    
C29   C37   A    
C228  H87   S    
C9    C172  A    
C101  H29   S    
C148  C156  A    
C83   C123  A    
Cu11  O36   S    
Cu12  O35   S    
C202  N14   T    
C30   C126  A    
C70   C78   A    
C210  H44   S    
C6    O9    A    
C220  C221  S    
C24   C32   A    
C141  C149  A    
C201  N13   T    
C46   C102  A    
C209  H47   S    
Cu8   O8    S    
C90   O30   A    
C150  H7    S    
C77   C117  A    
C221  H75   S    
C104  H32   S    
C59   C137  S    
C48   C104  A    
C65   C73   A    
C159  C168  A    
C15   C169  A    
C220  H77   S    
C160  C167  A    
C140  O38   A    
Cu8   O24   S    
C58   C66   A    
Cu11  O44   S    
Cu7   O15   S    
Cu5   O13   S    
C80   C96   A    
C153  H4    S    
C211  H56   S    
C28   C100  A    
C32   C40   A    
C207  H39   S    
C216  H59   S    
C20   H20   S    
C66   H26   S    
C218  C219  S    
C26   C34   A    
C215  H61   S    
C143  C157  A    
C51   C99   A    
C11   C173  A    
Cu1   O9    S    
C152  H5    S    
C3    O16   A    
C14   C172  A    
C87   C184  S    
C106  H34   S    
C1    O14   A    
C88   C183  S    
C7    O12   A    
C138  O40   A    
Cu6   O22   S    
Cu3   O27   S    
C206  C207  S    
C86   C181  S    
C13   C171  A    
C54   C136  S    
C56   C64   A    
C210  H45   S    
C218  H68   S    
C219  H66   S    
C3    C76   S    
C107  C115  A    
C223  C224  S    
C26   C98   A    
C12   C175  A    
C213  H52   S    
C41   C110  A    
C190  N2    T    
C210  H46   S    
C127  C211  S    
C80   C120  A    
C51   C59   A    
C43   C112  A    
C144  C158  A    
C17   H17   S    
C47   C55   A    
C222  H72   S    
C61   C69   A    
C48   C56   A    
C107  H35   S    
Cu6   O6    S    
C105  H33   S    
C223  H84   S    
C12   C168  A    
Cu10  O38   S    
C84   C124  A    
C13   C148  A    
C139  O47   A    
Cu5   O29   S    
Cu2   O26   S    
C145  C153  A    
C22   C30   A    
C85   O6    A    
C81   C97   A    
C31   C39   A    
C64   C72   A    
C151  H6    S    
C224  H83   S    
C205  C206  S    
C3    O19   A    
Cu9   O48   S    
C226  H91   S    
C180  C185  A    
Cu10  O47   S    
C52   C108  A    
C212  C213  S    
C109  C189  S    
C47   C95   A    
C136  O34   A    
C118  C126  A    
C30   C38   A    
C122  C130  A    
