data_mof_unit_12355.cif
_audit_creation_date              2012-12-10T17:37:21-0500
_audit_creation_method            fapswitch 2.2
_symmetry_space_group_name_H-M    P1
_symmetry_Int_Tables_number       1
_space_group_crystal_system       triclinic
_cell_length_a                    11.961878
_cell_length_b                    12.824166
_cell_length_c                    16.577863
_cell_angle_alpha                 91.36707
_cell_angle_beta                  81.246112
_cell_angle_gamma                 95.313928
_cell_volume                      2502.51353098

loop_
_atom_site_label
_atom_site_type_symbol
_atom_type_description
_atom_site_fract_x
_atom_site_fract_y
_atom_site_fract_z
_atom_type_partial_charge
C1    C     C_R   0.523888 0.700653 0.502795 0.943149
C2    C     C_R   0.537277 0.134237 0.529681 -0.180427
C3    C     C_R   0.459025 0.970115 0.481507 -0.045158
C4    C     C_R   0.543768 0.028075 0.519118 -0.051177
C5    C     C_R   0.960856 0.403297 0.422148 -0.304917
C6    C     C_R   0.039677 0.598988 0.576161 -0.247637
C7    C     C_R   0.843779 0.412008 0.430389 0.127867
C8    C     C_R   0.156568 0.589439 0.568448 0.159091
C9    C     C_R   0.855737 0.542430 0.533498 -0.017070
C10   C     C_R   0.144598 0.459459 0.465212 -0.061763
C11   C     C_R   0.973653 0.536231 0.527601 0.066737
C12   C     C_R   0.475529 0.298650 0.499002 0.884444
C13   C     C_R   0.026694 0.465619 0.471104 0.082179
C14   C     C_R   0.483925 0.498568 0.654592 0.900389
C15   C     C_R   0.515418 0.497166 0.345472 0.957060
C16   C     C_R   0.469449 0.469101 0.740150 -0.190335
C17   C     C_R   0.521089 0.468626 0.259613 -0.164501
C18   C     C_R   0.533891 0.389627 0.759615 -0.226830
C19   C     C_R   0.434877 0.395969 0.238784 -0.263800
C20   C     C_R   0.518102 0.349822 0.837731 -0.125858
C21   C     C_R   0.441242 0.354787 0.160576 -0.120872
C22   C     C_R   0.438101 0.389547 0.898033 0.104109
C23   C     C_R   0.456681 0.185143 0.497701 -0.152274
C24   C     C_R   0.532778 0.387738 0.101148 0.111759
C25   C     C_R   0.370692 0.466185 0.878845 -0.192700
C26   C     C_R   0.620687 0.458473 0.121669 -0.221453
C27   C     C_R   0.386278 0.507827 0.800429 0.371332
C28   C     C_R   0.615494 0.500445 0.200600 0.436640
C29   C     C_2   0.433922 0.363604 0.983760 -0.179361
C30   C     C_2   0.530725 0.361796 0.015010 -0.177356
C31   C     C_3   0.279229 0.183927 0.428134 -0.348677
C32   C     C_3   0.176979 0.201819 0.493367 -0.673148
C33   C     C_3   0.681091 0.810682 0.610314 -0.367460
C34   C     C_R   0.541926 0.813056 0.506835 -0.170495
C35   C     C_3   0.661251 0.853434 0.697910 -0.764742
C36   C     C_R   0.632418 0.978385 0.546588 0.477319
C37   C     C_R   0.365526 0.017330 0.458769 0.437426
C38   C     C_R   0.620322 0.868002 0.552171 0.027978
C39   C     C_R   0.367400 0.128018 0.463136 0.008186
C40   C     C_R   0.470536 0.865169 0.466844 -0.145367
H1    H     H_    0.595576 0.356513 0.713728 0.192930
H2    H     H_    0.690711 0.484419 0.075016 0.185572
H3    H     H_    0.373553 0.298661 0.146214 0.156776
H4    H     H_    0.569585 0.289234 0.851354 0.165739
H5    H     H_    0.596433 0.179793 0.562723 0.230769
H6    H     H_    0.419373 0.820494 0.427471 0.234325
H7    H     H_    0.187376 0.407120 0.421268 0.129555
H8    H     H_    0.813292 0.596441 0.576253 0.119381
H9    H     H_    0.734830 0.726135 0.306401 0.395074
H10   H     H_    0.447302 0.712842 0.730786 0.331897
H11   H     H_    0.148705 0.130836 0.530598 0.298922
H12   H     H_    0.363102 0.369155 0.283660 0.157863
H13   H     H_    0.198044 0.266014 0.535891 0.250425
H14   H     H_    0.105162 0.222681 0.463568 0.227190
H15   H     H_    0.316207 0.259026 0.399870 0.176621
H16   H     H_    0.251479 0.139994 0.375274 0.249984
H17   H     H_    0.721004 0.922681 0.705880 0.320737
H18   H     H_    0.572681 0.874606 0.714720 0.259288
H19   H     H_    0.676371 0.792984 0.740960 0.235705
H20   H     H_    0.649266 0.727114 0.615740 0.196990
H21   H     H_    0.773073 0.811635 0.587287 0.257323
H22   H     H_    0.859742 0.190886 0.513610 0.380527
H23   H     H_    0.207928 0.638581 0.605112 0.212378
H24   H     H_    0.232304 0.832764 0.323966 0.398346
H25   H     H_    0.792733 0.364091 0.392653 0.159581
H26   H     H_    0.999337 0.348378 0.378136 0.162394
H27   H     H_    0.001480 0.654819 0.619498 0.175948
H28   H     H_    0.611724 0.366099 0.974787 0.163125
H29   H     H_    0.354313 0.371576 0.023831 0.163170
H30   H     H_    0.309377 0.496906 0.926271 0.186387
N1    N     N_R   0.206400 0.519440 0.514690 -0.122565
N2    N     N_R   0.793600 0.480560 0.485310 -0.108300
O1    O     O_R   0.421320 0.658850 0.503920 -0.587163
O2    O     O_2   0.783993 0.646365 0.144285 -0.256846
O3    O     O_3   0.669067 0.688108 0.285458 -0.556818
O4    O     O_2   0.197144 0.561042 0.752599 -0.275935
O5    O     O_2   0.269231 0.669169 0.859961 -0.259120
O6    O     O_3   0.373644 0.693243 0.711726 -0.547621
O7    O     O_2   0.735854 0.106771 0.648972 -0.341899
O8    O     O_2   0.856570 0.987947 0.565583 -0.262138
O9    O     O_3   0.796220 0.146317 0.495020 -0.561546
O10   O     O_2   0.220742 0.842575 0.483874 -0.308129
O11   O     O_2   0.141032 0.988221 0.429627 -0.258538
O12   O     O_R   0.578680 0.341150 0.496080 -0.618491
O13   O     O_3   0.288652 0.892131 0.332296 -0.554749
O14   O     O_R   0.609840 0.646370 0.494500 -0.621422
O15   O     O_R   0.390160 0.353630 0.505500 -0.632150
O16   O     O_R   0.394600 0.506990 0.621070 -0.551159
O17   O     O_R   0.605400 0.493010 0.378930 -0.567467
O18   O     O_R   0.583120 0.494520 0.611640 -0.642447
O19   O     O_R   0.416880 0.505480 0.388360 -0.628952
O20   O     O_2   0.809034 0.542745 0.261387 -0.300245
S1    S     S_3+6 0.724545 0.595597 0.221872 0.046934
S2    S     S_3+6 0.302855 0.609489 0.782238 0.036564
S3    S     S_3+6 0.758878 0.053921 0.566952 0.005036
S4    S     S_3+6 0.248073 0.935151 0.427967 0.013211
Zn1   Zn    Zn3+2 0.374120 0.508330 0.506290 0.998272
Zn2   Zn    Zn3+2 0.625880 0.491670 0.493710 0.986480

loop_
_geom_bond_atom_site_label_1
_geom_bond_atom_site_label_2
_ccdc_geom_bond_type
C4    C36   A    
C22   C29   S    
H24   O13   S    
C9    N2    A    
N2    Zn2   S    
O1    Zn1   S    
N1    Zn1   S    
C12   C23   S    
C26   H2    S    
C35   H18   S    
C34   C40   A    
C19   C21   A    
C24   C26   A    
O9    S3    S    
O13   S4    S    
C7    H25   S    
O5    S2    D    
C12   O12   A    
C35   H19   S    
C14   O18   A    
O12   Zn2   S    
O4    S2    D    
C21   H3    S    
C19   H12   S    
C22   C25   A    
H9    O3    S    
C31   H16   S    
C5    C13   A    
O16   Zn1   S    
C10   N1    A    
C16   C27   A    
O2    S1    D    
H10   O6    S    
C32   H14   S    
C20   H4    S    
C1    C34   S    
C29   H29   S    
C2    H5    S    
C10   H7    S    
O10   S4    D    
C18   H1    S    
C6    C11   A    
C5    C7    A    
C6    C8    A    
C37   S4    S    
C28   S1    S    
C2    C4    A    
C32   H11   S    
O7    S3    D    
C29   C30   D    
C33   C35   S    
C15   O17   A    
C31   C32   S    
O19   Zn1   S    
O8    S3    D    
C9    C11   A    
C16   C18   A    
C6    H27   S    
H22   O9    S    
C20   C22   A    
C3    C40   A    
C33   H20   S    
C14   C16   S    
C40   H6    S    
C3    C4    A    
C32   H13   S    
C7    N2    A    
O3    S1    S    
C1    O14   A    
C15   C17   S    
C8    N1    A    
C12   O15   A    
C34   C38   A    
C17   C28   A    
C5    H26   S    
C10   C13   A    
C25   C27   A    
C26   C28   A    
C33   C38   S    
O17   Zn2   S    
C35   H17   S    
C1    O1    A    
C36   C38   A    
C14   O16   A    
C37   C39   A    
C11   C13   A    
C36   S3    S    
O6    S2    S    
C23   C39   A    
O11   S4    D    
O20   S1    D    
C17   C19   A    
C31   C39   S    
C18   C20   A    
O14   Zn2   S    
C24   C30   S    
C8    H23   S    
C15   O19   A    
C3    C37   A    
C9    H8    S    
C33   H21   S    
C21   C24   A    
C2    C23   A    
C27   S2    S    
C25   H30   S    
C31   H15   S    
O18   Zn2   S    
C30   H28   S    
O15   Zn1   S    
