data_mof_unit_58172.cif
_audit_creation_date              2012-10-26T21:03:13-0400
_audit_creation_method            fapswitch 2.2
_symmetry_space_group_name_H-M    P1
_symmetry_Int_Tables_number       1
_space_group_crystal_system       triclinic
_cell_length_a                    14.332187
_cell_length_b                    8.75216
_cell_length_c                    7.437853
_cell_angle_alpha                 102.384197
_cell_angle_beta                  94.483028
_cell_angle_gamma                 91.114381
_cell_volume                      907.860711559

loop_
_atom_site_label
_atom_site_type_symbol
_atom_type_description
_atom_site_fract_x
_atom_site_fract_y
_atom_site_fract_z
_atom_type_partial_charge
C1    C     C_R   0.495102 0.200674 0.455635 0.570505
C2    C     C_1   0.957245 0.499953 0.498836 0.044281
C3    C     C_2   0.476479 0.037319 0.440437 0.140274
C4    C     C_2   0.523830 0.962603 0.559075 0.133723
C5    C     C_R   0.504909 0.799321 0.544288 0.588407
C6    C     C_R   0.331135 0.500025 0.501524 0.548437
C7    C     C_R   0.668870 0.500139 0.498501 0.573232
C8    C     C_1   0.228939 0.500304 0.503995 0.020425
C9    C     C_1   0.771068 0.499855 0.496026 0.046145
C10   C     C_1   0.143494 0.500276 0.503418 0.010410
C11   C     C_1   0.856514 0.499828 0.496575 0.019676
C12   C     C_1   0.042763 0.500110 0.501137 0.043237
Cu1   Cu    Cu3+1 0.509570 0.517380 0.684380 1.116523
Cu2   Cu    Cu3+1 0.490430 0.482620 0.315620 1.110537
H1    H     H_    0.430691 0.377188 0.949598 0.251387
H2    H     H_    0.569266 0.622871 0.050420 0.253363
H3    H     H_    0.283384 0.146126 0.348829 0.328631
H4    H     H_    0.547512 0.081827 0.955337 0.359102
N1    N     N_2   0.476020 0.456430 0.038520 -0.211149
N2    N     N_2   0.523980 0.543570 0.961480 -0.207201
O1    O     O_R   0.506220 0.286130 0.619770 -0.480251
O2    O     O_2   0.318114 0.851579 0.373675 -0.287423
O3    O     O_3   0.310943 0.097949 0.232886 -0.488006
O4    O     O_2   0.683015 0.917167 0.759312 -0.269245
O5    O     O_2   0.682377 0.146052 0.620891 -0.255162
O6    O     O_3   0.588071 0.153778 0.906737 -0.473219
O7    O     O_R   0.493780 0.713870 0.380230 -0.475436
O8    O     O_R   0.490060 0.256780 0.308370 -0.466849
O9    O     O_R   0.509940 0.743220 0.691630 -0.465978
O10   O     O_R   0.384130 0.514680 0.655740 -0.500293
O11   O     O_R   0.615870 0.485320 0.344260 -0.497868
O12   O     O_R   0.367980 0.485330 0.344330 -0.457208
O13   O     O_R   0.632020 0.514670 0.655670 -0.453154
O14   O     O_2   0.410358 0.860092 0.111989 -0.236908
S1    S     S_3+6 0.377256 0.955099 0.286981 0.026925
S2    S     S_3+6 0.623622 0.044778 0.711120 0.040127

loop_
_geom_bond_atom_site_label_1
_geom_bond_atom_site_label_2
_ccdc_geom_bond_type
C1    O8    A    
C6    O12   A    
C4    S2    S    
C1    O1    A    
Cu2   O7    S    
C9    C11   T    
O3    S1    S    
N1    N2    D    
H4    O6    S    
C3    S1    S    
Cu2   O11   S    
H2    N2    S    
C2    C12   T    
Cu1   O1    S    
O4    S2    D    
Cu1   Cu2   S    
H1    N1    S    
O2    S1    D    
C7    O13   A    
H3    O3    S    
C10   C12   S    
C2    C11   S    
O6    S2    S    
C6    O10   A    
O14   S1    D    
C5    O9    A    
C7    O11   A    
O5    S2    D    
C3    C4    D    
Cu1   O10   S    
C8    C10   T    
Cu1   O13   S    
Cu1   O9    S    
C7    C9    S    
C6    C8    S    
Cu1   N2    S    
Cu2   O8    S    
C5    O7    A    
Cu2   N1    S    
Cu2   O12   S    
C4    C5    S    
C1    C3    S    
