data_mof_unit_20517.cif
_audit_creation_date              2013-03-05T16:05:03-0500
_audit_creation_method            fapswitch 2.2
_symmetry_space_group_name_H-M    P1
_symmetry_Int_Tables_number       1
_space_group_crystal_system       triclinic
_cell_length_a                    6.915777
_cell_length_b                    23.292088
_cell_length_c                    25.857251
_cell_angle_alpha                 104.691434
_cell_angle_beta                  90.188889
_cell_angle_gamma                 90.320053
_cell_volume                      4028.87284295

loop_
_atom_site_label
_atom_site_type_symbol
_atom_site_description
_atom_site_fract_x
_atom_site_fract_y
_atom_site_fract_z
_atom_type_partial_charge
O1    O     O_R   0.505750 0.453350 0.547660 -0.583171
O2    O     O_R   0.170990 0.432220 0.437590 -0.595388
O3    O     O_R   0.005600 0.546650 0.452340 -0.610929
C1    C     C_R   0.340346 0.416574 0.416482 1.023001
O4    O     O_R   0.175720 0.446240 0.546340 -0.574595
O5    O     O_R   0.010370 0.560770 0.561860 -0.607419
C2    C     C_R   0.345174 0.433694 0.562510 1.084828
O6    O     O_R   0.500990 0.439230 0.438140 -0.550424
O7    O     O_3   0.340820 0.537560 0.504970 -0.294601
V1    V     V_3+5 0.064050 0.493030 0.499080 1.222797
O8    O     O_R   0.680940 0.567780 0.562410 -0.557901
C3    C     C_R   0.850178 0.583866 0.582955 1.021003
O9    O     O_R   0.676210 0.553760 0.453660 -0.603151
C4    C     C_R   0.845106 0.565820 0.437091 0.937990
V2    V     V_3+5 0.564640 0.506970 0.500920 1.231140
O10   O     O_3   0.837740 0.462440 0.495030 -0.249202
C5    C     C_R   0.781881 0.890480 0.128005 -0.114745
H1    H     H_    0.654734 0.915217 0.122414 0.133640
C6    C     C_R   0.772805 0.854889 0.164119 -0.255932
H2    H     H_    0.639685 0.853568 0.185737 0.150544
C7    C     C_R   0.934016 0.822200 0.173192 0.027048
C8    C     C_R   0.106358 0.825296 0.144755 0.553753
C9    C     C_R   0.115065 0.862177 0.109004 -0.305953
H3    H     H_    0.247769 0.864589 0.087485 0.157951
C10   C     C_R   0.953473 0.894997 0.100308 -0.143505
C11   C     C_R   0.064496 0.787618 0.251235 -0.075103
H4    H     H_    0.187209 0.817296 0.253717 0.135183
C12   C     C_R   0.050877 0.752758 0.287967 -0.200020
H5    H     H_    0.163956 0.756501 0.317715 0.115279
C13   C     C_R   0.891797 0.714480 0.286971 0.100158
C14   C     C_R   0.745984 0.712463 0.248399 -0.158339
H6    H     H_    0.622583 0.683069 0.245911 0.127453
C15   C     C_R   0.759756 0.747356 0.211653 -0.154754
H7    H     H_    0.646310 0.744241 0.182078 0.159512
C16   C     C_R   0.919914 0.785011 0.212346 0.143419
C17   C     C_R   0.700279 0.665725 0.347490 -0.151990
H8    H     H_    0.568998 0.685454 0.337161 0.100112
C18   C     C_R   0.688942 0.629978 0.383609 -0.141864
H9    H     H_    0.548936 0.622669 0.399540 0.123721
C19   C     C_R   0.856172 0.604307 0.399082 -0.126602
C20   C     C_R   0.034820 0.615311 0.377366 -0.152483
H10   H     H_    0.166628 0.596043 0.387962 0.129149
C21   C     C_R   0.046012 0.650850 0.341178 -0.143508
H11   H     H_    0.185658 0.657318 0.324637 0.105904
C22   C     C_R   0.879036 0.676637 0.325721 0.125708
C23   C     C_R   0.719133 0.636109 0.673396 0.491264
C24   C     C_R   0.861224 0.631621 0.633472 -0.253687
C25   C     C_R   0.020752 0.670452 0.643026 -0.316740
C26   C     C_R   0.037756 0.714930 0.690872 0.174815
C27   C     C_R   0.893576 0.721014 0.730497 0.025475
C28   C     C_R   0.733859 0.681580 0.721896 -0.071402
C29   C     C_R   0.197216 0.753626 0.699514 -0.187636
C30   C     C_R   0.212612 0.798927 0.746425 -0.204192
C31   C     C_R   0.069560 0.806242 0.785849 0.207308
C32   C     C_R   0.909736 0.766766 0.778606 0.035326
C33   C     C_R   0.768194 0.772665 0.819341 -0.178880
C34   C     C_R   0.613835 0.730441 0.811131 0.374226
C35   C     C_R   0.593777 0.688164 0.762094 -0.290486
C36   C     C_R   0.084900 0.852754 0.832139 -0.184989
C37   C     C_R   0.943369 0.861327 0.871889 -0.297339
C38   C     C_R   0.785596 0.820841 0.866084 0.323592
H12   H     H_    0.131722 0.666274 0.612776 0.166216
H13   H     H_    0.309859 0.749105 0.669734 0.134837
H14   H     H_    0.336933 0.828430 0.751862 0.127820
H15   H     H_    0.205077 0.883745 0.836519 0.152744
H16   H     H_    0.468626 0.659201 0.756876 0.184697
C39   C     C_R   0.602790 0.175249 0.148028 -0.270598
C40   C     C_R   0.454859 0.132742 0.132623 -0.143233
C41   C     C_R   0.287917 0.137465 0.164576 -0.196038
C42   C     C_R   0.268823 0.183482 0.211344 0.042376
C43   C     C_R   0.416673 0.226257 0.226372 0.075983
C44   C     C_R   0.583201 0.222350 0.194094 0.189684
C45   C     C_R   0.104205 0.187040 0.243326 -0.276644
C46   C     C_R   0.084721 0.231915 0.290638 0.525206
C47   C     C_R   0.229474 0.276909 0.305415 -0.034109
C48   C     C_R   0.397269 0.273250 0.273247 -0.037349
C49   C     C_R   0.545133 0.316779 0.287272 0.050075
C50   C     C_R   0.706517 0.313181 0.253252 -0.140384
C51   C     C_R   0.726077 0.266262 0.207806 -0.197956
C52   C     C_R   0.209509 0.325754 0.350468 -0.293621
C53   C     C_R   0.357160 0.368377 0.365854 -0.235733
C54   C     C_R   0.526745 0.363564 0.334280 0.455802
H17   H     H_    0.731004 0.172507 0.123521 0.140352
H18   H     H_    0.172825 0.104817 0.153327 0.133056
H19   H     H_    0.990529 0.153907 0.232125 0.167607
H20   H     H_    0.080310 0.331157 0.374550 0.176134
H21   H     H_    0.819539 0.346556 0.260960 0.135604
H22   H     H_    0.853255 0.264597 0.183093 0.128432
C55   C     C_R   0.281326 0.106985 0.870815 -0.152065
H23   H     H_    0.155970 0.080868 0.875831 0.125696
C56   C     C_R   0.269225 0.142638 0.834796 -0.152798
H24   H     H_    0.135617 0.142101 0.812769 0.104430
C57   C     C_R   0.427981 0.177378 0.826623 0.121660
C58   C     C_R   0.600041 0.174777 0.855356 -0.144026
H25   H     H_    0.724636 0.201495 0.851109 0.104297
C59   C     C_R   0.612987 0.138353 0.890843 -0.159757
H26   H     H_    0.747431 0.137540 0.912242 0.130330
C60   C     C_R   0.453387 0.104234 0.899219 -0.128683
C61   C     C_R   0.576875 0.226106 0.759137 -0.173412
H27   H     H_    0.714494 0.205838 0.763364 0.110461
C62   C     C_R   0.563662 0.261848 0.723171 -0.152962
H28   H     H_    0.691351 0.268578 0.701213 0.124671
C63   C     C_R   0.386804 0.287480 0.714607 0.173018
C64   C     C_R   0.223589 0.276959 0.743110 -0.157468
H29   H     H_    0.085913 0.296680 0.737714 0.119558
C65   C     C_R   0.237302 0.242010 0.779769 -0.166442
H30   H     H_    0.109358 0.236364 0.802001 0.109028
C66   C     C_R   0.414034 0.215723 0.788186 0.108951
C67   C     C_R   0.223944 0.316420 0.637991 -0.240090
H31   H     H_    0.117475 0.281798 0.636792 0.164711
C68   C     C_R   0.215944 0.349579 0.599451 0.340321
C69   C     C_R   0.357168 0.394443 0.600104 -0.460303
C70   C     C_R   0.507620 0.402912 0.638975 0.548221
C71   C     C_R   0.513660 0.368604 0.676171 -0.175881
H32   H     H_    0.628958 0.376387 0.705662 0.145084
C72   C     C_R   0.373433 0.325032 0.675995 -0.027086
O11   O     O_R   0.308350 0.060850 0.061810 -0.606594
O12   O     O_R   0.633860 0.053770 0.953650 -0.605568
O13   O     O_R   0.798960 0.939210 0.938150 -0.570812
C73   C     C_R   0.464793 0.065803 0.937110 0.919817
O14   O     O_R   0.638360 0.067800 0.062400 -0.605784
O15   O     O_R   0.803500 0.953330 0.047670 -0.588208
C74   C     C_R   0.469282 0.084090 0.082844 0.933251
O16   O     O_R   0.303810 0.046730 0.952290 -0.603009
O17   O     O_3   0.468430 0.962490 0.995010 -0.217195
V3    V     V_3+5 0.745300 0.006960 0.000930 1.188021
O18   O     O_R   0.132880 0.946160 0.046390 -0.601020
C75   C     C_R   0.963943 0.933941 0.062742 0.981106
O19   O     O_R   0.128380 0.932130 0.937650 -0.560544
C76   C     C_R   0.958171 0.914052 0.918610 1.011484
V4    V     V_3+5 0.244670 0.992930 0.999140 1.211509
O20   O     O_3   0.971670 0.037510 0.005000 -0.294884
O21   O     O_3   0.571573 0.594533 0.664462 -0.731122
H33   H     H_    0.552578 0.581364 0.697608 0.331728
N1    N     N_R   0.642607 0.829998 0.907328 0.256235
O22   O     O_R   0.472726 0.849677 0.899042 -0.382974
O23   O     O_R   0.690610 0.826980 0.955277 -0.352592
N2    N     N_R   0.483477 0.726018 0.852960 0.262085
O24   O     O_R   0.550473 0.710476 0.894459 -0.311248
O25   O     O_R   0.298233 0.722261 0.843666 -0.369367
O26   O     O_3   0.921599 0.229855 0.320700 -0.748684
H34   H     H_    0.955164 0.244916 0.358959 0.330713
O27   O     O_3   0.669322 0.406387 0.349032 -0.754254
H35   H     H_    0.795799 0.386090 0.345596 0.311029
O28   O     O_3   0.262122 0.790906 0.151313 -0.783647
H36   H     H_    0.368467 0.796982 0.127588 0.320598
N3    N     N_R   0.069776 0.334760 0.558484 0.242307
O29   O     O_R   0.898254 0.318356 0.569855 -0.421978
O30   O     O_R   0.116707 0.327385 0.508531 -0.405664
O31   O     O_3   0.646296 0.446321 0.643120 -0.737045
H37   H     H_    0.731437 0.432661 0.611692 0.347517

loop_
_geom_bond_atom_site_label_1
_geom_bond_atom_site_label_2
_geom_bond_distance
_ccdc_geom_bond_type
C50   H21   1.081003 S    
C32   C33   1.421755 A    
C39   H17   1.084281 S    
C57   C58   1.410458 A    
C20   H10   1.082907 S    
C13   C22   1.495456 S    
N3    O29   1.301439 A    
C1    O6    1.290669 A    
C64   C65   1.400655 A    
C71   H32   1.083709 S    
N1    O22   1.300176 A    
C49   C50   1.413019 A    
C33   C34   1.425748 A    
C61   C66   1.409119 A    
C11   H4    1.082937 S    
C62   H28   1.083363 S    
C7    C8    1.413573 A    
C17   H8    1.082639 S    
C6    C7    1.405744 A    
C10   C75   1.489361 S    
C70   C71   1.398304 A    
C44   C51   1.396645 A    
C67   C68   1.408261 A    
C57   C66   1.498435 S    
O5    C3    1.294632 A    
C43   C48   1.419498 A    
C30   H14   1.083876 S    
C65   H30   1.082158 S    
O27   H35   0.990097 S    
O13   C76   1.292944 A    
C2    C69   1.496252 S    
C39   C44   1.407370 A    
C45   C46   1.400487 A    
C51   H22   1.083938 S    
C52   H20   1.080338 S    
C67   C72   1.402033 A    
C15   C16   1.406217 A    
C23   C24   1.412570 A    
O8    V2    2.004399 S    
C35   H16   1.081174 S    
C1    C53   1.498174 S    
C61   H27   1.082183 S    
C40   C41   1.410430 A    
C59   C60   1.405650 A    
C9    H3    1.083362 S    
C14   C15   1.401358 A    
C42   C43   1.406691 A    
O1    V2    1.987333 S    
C55   C56   1.398779 A    
C47   C52   1.414606 A    
O17   V3    2.158274 S    
C36   C37   1.399667 A    
C62   C63   1.405314 A    
O9    C4    1.299020 A    
O15   C75   1.295782 A    
C20   C21   1.399782 A    
C41   C42   1.404936 A    
C3    C24   1.486845 S    
C40   C74   1.487658 S    
C64   H29   1.083310 S    
O28   H36   0.991509 S    
O18   V4    1.987215 S    
C31   C36   1.399178 A    
C8    C9    1.413729 A    
C46   C47   1.424462 A    
C39   C40   1.404102 A    
C48   C49   1.415845 A    
C37   C76   1.491093 S    
C56   H24   1.082184 S    
O4    C2    1.302362 A    
C50   C51   1.394569 A    
C52   C53   1.404351 A    
C27   C28   1.413020 A    
C30   C31   1.402632 A    
C23   C28   1.424444 A    
C53   C54   1.419849 A    
O16   V4    1.993148 S    
C37   C38   1.420548 A    
O15   V3    1.987761 S    
O2    C1    1.307887 A    
C47   C48   1.420297 A    
C68   N3    1.437597 S    
C56   C57   1.408262 A    
O17   V4    1.698152 S    
C25   H12   1.084636 S    
C24   C25   1.403554 A    
C8    O28   1.381359 S    
V3    O20   1.707853 S    
C13   C14   1.408159 A    
C26   C29   1.401264 A    
C59   H26   1.083107 S    
C42   C45   1.399754 A    
C5    H1    1.083132 S    
C17   C22   1.408325 A    
C28   C35   1.403518 A    
C58   C59   1.401780 A    
C21   C22   1.407299 A    
C45   H19   1.084375 S    
O3    C4    1.295667 A    
N2    O25   1.301034 A    
C25   C26   1.401871 A    
C61   C62   1.399739 A    
C46   O26   1.379600 S    
O6    V2    2.001693 S    
O9    V2    1.987147 S    
C21   H11   1.082643 S    
O21   H33   0.989730 S    
V4    O20   2.147023 S    
O2    V1    1.989542 S    
C29   C30   1.394537 A    
C38   N1    1.433412 S    
O19   C76   1.300307 A    
O7    V1    2.158344 S    
N1    O23   1.301562 A    
C31   C32   1.414980 A    
C12   H5    1.082635 S    
C68   C69   1.423261 A    
N3    O30   1.301550 A    
O1    C2    1.294824 A    
C70   O31   1.373714 S    
C14   H6    1.082582 S    
C54   O27   1.380650 S    
C29   H13   1.083805 S    
O5    V1    1.993446 S    
C71   C72   1.398976 A    
O8    C3    1.297122 A    
C60   C73   1.487450 S    
C7    C16   1.493089 S    
C11   C12   1.400435 A    
C27   C32   1.421589 A    
O31   H37   0.991176 S    
C55   C60   1.406578 A    
C5    C10   1.405212 A    
C6    H2    1.082938 S    
C12   C13   1.408232 A    
C63   C72   1.487824 S    
O11   C74   1.291305 A    
O4    V1    1.989017 S    
O3    V1    1.987932 S    
V1    O10   1.707867 S    
O26   H34   0.988503 S    
C36   H15   1.084378 S    
C23   O21   1.380749 S    
C18   C19   1.407535 A    
C34   C35   1.400243 A    
C18   H9    1.082835 S    
C65   C66   1.410782 A    
C49   C54   1.418376 A    
V2    O10   2.147048 S    
C17   C18   1.402083 A    
C5    C6    1.398439 A    
C15   H7    1.082999 S    
C34   N2    1.433558 S    
C69   C70   1.421971 A    
C9    C10   1.406741 A    
O7    V2    1.700038 S    
C58   H25   1.082178 S    
O11   V4    2.002446 S    
O12   C73   1.299892 A    
O14   C74   1.303063 A    
N2    O24   1.301089 A    
C4    C19   1.490642 S    
O13   V3    1.993553 S    
C73   O16   1.294879 A    
C11   C16   1.405821 A    
O14   V3    1.989583 S    
C43   C44   1.414280 A    
C26   C27   1.413782 A    
C63   C64   1.404039 A    
C41   H18   1.084392 S    
C33   C38   1.429705 A    
C19   C20   1.407639 A    
O12   V3    1.989116 S    
C55   H23   1.083206 S    
C67   H31   1.083509 S    
O18   C75   1.298213 A    
O19   V4    2.004255 S    
