data_mof_unit_34979.cif
_audit_creation_date              2013-03-05T16:44:38-0500
_audit_creation_method            fapswitch 2.2
_symmetry_space_group_name_H-M    P1
_symmetry_Int_Tables_number       1
_space_group_crystal_system       triclinic
_cell_length_a                    27.715214
_cell_length_b                    10.66655
_cell_length_c                    9.841792
_cell_angle_alpha                 90.112885
_cell_angle_beta                  89.828817
_cell_angle_gamma                 90.135816
_cell_volume                      2909.46003948

loop_
_atom_site_label
_atom_site_type_symbol
_atom_site_description
_atom_site_fract_x
_atom_site_fract_y
_atom_site_fract_z
_atom_type_partial_charge
O1    O     O_R   0.500010 0.316790 0.614690 -0.617570
O2    O     O_R   0.500000 0.316760 0.385350 -0.620805
C1    C     C_R   0.498397 0.259879 0.499969 0.890544
O3    O     O_R   0.428760 0.500040 0.614660 -0.622589
O4    O     O_R   0.428750 0.500000 0.385310 -0.623653
C2    C     C_R   0.405961 0.500061 0.500192 0.871678
Zn1   Zn    Zn3+2 0.500000 0.500020 0.653130 0.951356
Zn2   Zn    Zn3+2 0.500000 0.499980 0.346870 0.952069
O5    O     O_R   0.500000 0.683240 0.614650 -0.620339
O6    O     O_R   0.499990 0.683210 0.385310 -0.628211
O7    O     O_R   0.571250 0.500000 0.614690 -0.621095
O8    O     O_R   0.571240 0.499960 0.385340 -0.617051
C3    C     C_R   0.498390 0.740130 0.500110 0.889001
C4    C     C_R   0.594022 0.500650 0.499807 0.878608
C5    C     C_R   0.176864 0.392328 0.506996 0.508274
O9    O     O_2   0.201269 0.282967 0.508193 -0.545896
N1    N     N_R   0.201442 0.503349 0.503608 -0.360578
C6    C     C_R   0.178314 0.616187 0.501601 0.509183
C7    C     C_R   0.277545 0.504818 0.378832 -0.100114
C8    C     C_R   0.327680 0.504231 0.377806 -0.209977
C9    C     C_R   0.327882 0.497275 0.624628 -0.208338
C10   C     C_R   0.277778 0.497666 0.625261 -0.102033
C11   C     C_R   0.252735 0.501514 0.502492 0.324487
C12   C     C_R   0.101686 0.507214 0.508887 -0.059185
C13   C     C_R   0.126413 0.392026 0.508716 -0.022556
C14   C     C_R   0.100356 0.279729 0.510462 -0.129525
C15   C     C_R   0.127915 0.620381 0.504481 -0.022730
C16   C     C_R   0.353212 0.500383 0.500825 -0.040709
H1    H     H_    0.346645 0.494868 0.720812 0.153449
H2    H     H_    0.258339 0.495460 0.720854 0.136306
H3    H     H_    0.118561 0.189992 0.513162 0.192222
C17   C     C_R   0.646727 0.504525 0.499229 -0.048478
C18   C     C_R   0.973964 0.400150 0.487445 0.048673
C19   C     C_R   0.975382 0.626250 0.538421 -0.069477
C20   C     C_R   0.949327 0.515451 0.508920 0.073005
C21   C     C_R   0.947199 0.293469 0.448858 -0.181510
C22   C     C_R   0.897505 0.298147 0.438732 -0.064734
C23   C     C_R   0.872764 0.408842 0.468110 -0.021267
C24   C     C_R   0.898359 0.518798 0.503522 -0.093187
C25   C     C_R   0.872992 0.631363 0.531921 -0.182884
C26   C     C_R   0.821977 0.625080 0.535462 0.558349
N2    N     N_R   0.798561 0.517954 0.497355 -0.368617
C27   C     C_R   0.822604 0.411530 0.462791 0.521815
C28   C     C_R   0.722321 0.506340 0.621541 -0.081105
C29   C     C_R   0.672235 0.501050 0.622291 -0.209116
C30   C     C_R   0.671987 0.513557 0.375626 -0.201211
C31   C     C_R   0.722066 0.519015 0.375283 -0.091215
C32   C     C_R   0.747164 0.515435 0.498130 0.301684
O10   O     O_2   0.797744 0.307778 0.426308 -0.517896
C33   C     C_R   0.024633 0.395538 0.502562 0.047427
C34   C     C_R   0.050723 0.509271 0.512003 0.083952
C35   C     C_R   0.026281 0.625294 0.521894 0.064260
C36   C     C_R   0.050279 0.281194 0.506660 -0.211168
H4    H     H_    0.653586 0.494081 0.718883 0.164897
H5    H     H_    0.741920 0.502832 0.716508 0.146323
H6    H     H_    0.878466 0.213796 0.408506 0.229570
H7    H     H_    0.963912 0.205728 0.421531 0.168291
H8    H     H_    0.032468 0.191222 0.510458 0.157234
O11   O     O_2   0.204114 0.723617 0.497296 -0.545082
C37   C     C_R   0.103327 0.734475 0.499744 -0.133962
H9    H     H_    0.346317 0.507343 0.281080 0.153869
H10   H     H_    0.257918 0.508111 0.283926 0.136346
H11   H     H_    0.122599 0.822508 0.490062 0.193817
C38   C     C_R   0.949637 0.733708 0.582588 -0.147163
C39   C     C_R   0.899502 0.742248 0.562967 0.366328
O12   O     O_2   0.795548 0.722046 0.581582 -0.446831
C40   C     C_R   0.053301 0.736791 0.506290 -0.208620
H12   H     H_    0.653143 0.516770 0.279423 0.164701
H13   H     H_    0.741458 0.525758 0.279846 0.143022
H14   H     H_    0.036174 0.826850 0.493612 0.158483
C41   C     C_R   0.489708 0.064219 0.623438 0.126342
C42   C     C_R   0.490307 0.128581 0.500534 -0.102939
C43   C     C_R   0.481377 0.064436 0.378642 -0.213701
H15   H     H_    0.478061 0.113151 0.282700 0.165034
C44   C     C_R   0.481314 0.934855 0.378775 -0.213910
H16   H     H_    0.477888 0.885618 0.282883 0.170544
C45   C     C_R   0.490239 0.871359 0.500801 -0.102855
C46   C     C_R   0.489632 0.936350 0.623611 0.145330
C47   C     C_3   0.523245 0.929772 0.741947 -0.489122
C48   C     C_3   0.523418 0.071853 0.741536 -0.465973
H17   H     H_    0.505516 0.889438 0.833464 0.201530
H18   H     H_    0.558795 0.888154 0.715172 0.209619
H19   H     H_    0.505965 0.113246 0.832963 0.199854
H20   H     H_    0.559045 0.113025 0.714147 0.213980
C49   C     C_R   0.482451 0.399164 0.071217 0.217819
N3    N     N_R   0.499670 0.499140 0.142800 -0.107863
C50   C     C_R   0.521646 0.593743 0.072067 -0.132882
H21   H     H_    0.538348 0.670502 0.126516 0.151057
C51   C     C_R   0.521727 0.593613 0.927933 -0.131560
H22   H     H_    0.538657 0.669941 0.873512 0.148038
N4    N     N_R   0.499670 0.499180 0.857150 -0.106701
C52   C     C_R   0.482437 0.399228 0.928529 0.213371
C53   C     C_3   0.432326 0.348658 0.922923 -0.504064
C54   C     C_3   0.432320 0.348535 0.077206 -0.506272
H23   H     H_    0.406380 0.416483 0.878979 0.214828
H24   H     H_    0.430991 0.253037 0.878010 0.202507
H25   H     H_    0.406319 0.416155 0.122102 0.215973
H26   H     H_    0.430977 0.252775 0.121293 0.197908
C55   C     C_1   0.972502 0.824915 0.671289 0.290206
N5    N     N_1   0.990653 0.897420 0.742486 -0.168434
S1    S     S_3+6 0.872848 0.895094 0.563236 0.078015
O13   O     O_2   0.847738 0.916666 0.696767 -0.192224
O14   O     O_2   0.910432 0.995426 0.544174 -0.347015
O15   O     O_3   0.832662 0.907994 0.436246 -0.459777
H27   H     H_    0.851116 0.887832 0.352701 0.340591

loop_
_geom_bond_atom_site_label_1
_geom_bond_atom_site_label_2
_geom_bond_distance
_ccdc_geom_bond_type
C50   H21   1.081553 S    
C53   C54   1.518429 S    
C26   N2    1.365194 A    
C20   C24   1.414265 A    
C7    C8    1.389524 A    
C12   C15   1.408280 A    
C39   S1    1.791474 S    
C48   H20   1.112338 S    
C45   C46   1.392252 A    
Zn1   O7    2.009512 S    
N1    C11   1.421776 S    
C37   H11   1.083419 S    
C21   C22   1.382198 A    
C15   C37   1.397131 A    
O3    Zn1   2.011517 S    
C23   C24   1.412874 A    
O7    C4    1.293248 A    
C5    C13   1.398311 A    
C54   H26   1.111046 S    
C7    H10   1.082987 S    
C5    O9    1.349892 S    
C18   C21   1.409023 A    
C5    N1    1.365175 A    
C19   C20   1.413645 A    
C43   H15   1.082923 S    
C8    H9    1.082234 S    
O5    C3    1.282223 A    
O15   H27   0.990561 S    
C22   H6    1.083550 S    
C38   C55   1.451610 S    
C2    C16   1.461940 S    
C31   C32   1.397288 A    
C37   C40   1.388061 A    
C51   N4    1.367651 A    
C12   C34   1.412919 A    
C14   H3    1.083492 S    
C53   H23   1.110446 S    
C9    C10   1.388660 A    
C43   C44   1.382182 A    
C48   H19   1.111490 S    
C41   C48   1.495386 S    
C49   C52   1.404312 A    
C33   C34   1.413858 A    
C3    C45   1.418399 S    
C33   C36   1.413822 A    
C34   C35   1.415288 A    
S1    O13   1.502815 D    
C12   C13   1.408278 A    
O3    C2    1.293327 A    
C21   H7    1.078485 S    
C24   C25   1.419695 A    
C47   H17   1.111596 S    
N3    C50   1.367901 A    
C27   O10   1.350806 S    
C8    C16   1.404894 A    
C54   H25   1.110877 S    
C18   C33   1.413577 A    
C49   N3    1.363049 A    
C9    H1    1.081783 S    
O1    C1    1.281697 A    
C7    C11   1.396530 A    
C44   H16   1.083452 S    
C30   H12   1.083308 S    
C22   C23   1.396145 A    
C47   H18   1.112361 S    
C49   C54   1.490525 S    
C55   N5    1.157713 T    
Zn2   O8    2.011517 S    
Zn1   N4    2.007953 S    
C19   C38   1.418423 A    
N1    C6    1.365180 A    
C17   C29   1.404791 A    
N2    C32   1.424667 S    
C44   C45   1.402839 A    
C35   C40   1.412292 A    
Zn2   O6    1.989979 S    
C25   C26   1.415660 A    
C9    C16   1.404811 A    
O8    C4    1.293081 A    
C29   H4    1.083306 S    
S1    O15   1.682607 S    
C25   C39   1.424040 A    
C50   C51   1.418537 A    
N2    C27   1.359821 A    
C14   C36   1.388631 A    
N4    C52   1.362644 A    
C28   C29   1.389152 A    
Zn1   O5    1.991412 S    
C30   C31   1.389027 A    
C10   H2    1.083022 S    
O1    Zn1   1.989981 S    
C17   C30   1.405074 A    
O2    Zn2   1.991413 S    
C6    C15   1.397848 A    
C4    C17   1.461231 S    
C42   C43   1.402232 A    
O6    C3    1.282283 A    
O4    Zn2   2.009515 S    
C36   H8    1.078817 S    
C26   O12   1.346132 S    
C53   H24   1.111393 S    
C19   C35   1.419602 A    
C31   H13   1.083199 S    
C40   H14   1.080111 S    
C38   C39   1.406621 A    
O2    C1    1.282522 A    
C13   C14   1.397320 A    
C41   C42   1.392046 A    
C46   C47   1.495427 S    
C28   H5    1.083201 S    
O4    C2    1.293454 A    
C52   C53   1.489851 S    
C18   C20   1.423236 A    
C1    C42   1.417831 S    
Zn2   N3    2.008465 S    
C47   C48   1.515520 S    
C6    O11   1.349944 S    
C23   C27   1.391691 A    
S1    O14   1.503277 D    
C10   C11   1.395952 A    
C51   H22   1.080870 S    
C41   C46   1.363927 A    
C28   C32   1.397800 A    
