data_mof_unit_17514.cif
_audit_creation_date              2012-12-10T18:26:30-0500
_audit_creation_method            fapswitch 2.2
_symmetry_space_group_name_H-M    P1
_symmetry_Int_Tables_number       1
_space_group_crystal_system       triclinic
_cell_length_a                    15.013518
_cell_length_b                    13.974794
_cell_length_c                    23.432622
_cell_angle_alpha                 89.995668
_cell_angle_beta                  89.98479
_cell_angle_gamma                 90.177975
_cell_volume                      4916.39375991

loop_
_atom_site_label
_atom_site_type_symbol
_atom_type_description
_atom_site_fract_x
_atom_site_fract_y
_atom_site_fract_z
_atom_type_partial_charge
C1    C     C_R   0.326449 0.499829 0.500143 0.901405
C2    C     C_R   0.498861 0.586782 0.702939 -0.221043
C3    C     C_R   0.503921 0.586554 0.237929 -0.129740
C4    C     C_R   0.497706 0.586691 0.762047 -0.130282
C5    C     C_R   0.501807 0.500027 0.208174 0.309119
C6    C     C_R   0.496518 0.500164 0.791824 0.309493
C7    C     C_R   0.814753 0.413810 0.499361 -0.242640
C8    C     C_R   0.185262 0.586203 0.500227 -0.240676
C9    C     C_R   0.769358 0.500582 0.499811 -0.075352
C10   C     C_R   0.230650 0.499427 0.499917 -0.075488
C11   C     C_R   0.815180 0.587682 0.500282 -0.262409
C12   C     C_R   0.673553 0.500172 0.499808 0.901475
C13   C     C_R   0.184826 0.412337 0.499295 -0.263949
C14   C     C_R   0.907780 0.589351 0.501790 0.068036
C15   C     C_R   0.092234 0.410681 0.497597 0.068080
C16   C     C_R   0.500105 0.499991 0.389182 0.888771
C17   C     C_R   0.499817 0.499989 0.610820 0.888769
C18   C     C_R   0.953656 0.500704 0.500066 0.048583
C19   C     C_R   0.046357 0.499323 0.499296 0.048460
C20   C     C_R   0.906657 0.413190 0.498975 0.112377
C21   C     C_R   0.093360 0.586830 0.500430 0.112119
C22   C     C_R   0.955774 0.676776 0.503731 -0.000143
C23   C     C_R   0.499065 0.411996 0.237496 0.145537
C24   C     C_R   0.044252 0.323261 0.495541 -0.000273
C25   C     C_R   0.048491 0.674106 0.502398 -0.268784
C26   C     C_R   0.951532 0.325917 0.496907 -0.270105
C27   C     C_R   0.567325 0.798252 0.473270 -0.061375
C28   C     C_R   0.432677 0.201754 0.526734 -0.063406
C29   C     C_R   0.432738 0.797817 0.526793 -0.067857
C30   C     C_R   0.567230 0.202187 0.473175 -0.069965
C31   C     C_R   0.430986 0.898534 0.527337 0.016477
C32   C     C_R   0.568971 0.101473 0.472622 0.016335
C33   C     C_R   0.569018 0.898970 0.472680 0.014917
C34   C     C_R   0.496375 0.412075 0.762528 0.145523
C35   C     C_R   0.430958 0.101039 0.527300 0.014963
C36   C     C_R   0.499997 0.949365 0.500000 0.083133
C37   C     C_R   0.499969 0.050643 0.499969 0.083299
C38   C     C_R   0.362281 0.949343 0.554425 -0.224418
C39   C     C_R   0.637659 0.050666 0.445517 -0.225525
C40   C     C_R   0.637630 0.950197 0.445507 -0.195122
C41   C     C_R   0.362325 0.049813 0.554452 -0.196355
C42   C     C_R   0.577322 0.502839 0.880146 0.498142
C43   C     C_R   0.421066 0.505398 0.119861 0.498341
C44   C     C_R   0.417950 0.505424 0.881002 0.486330
C45   C     C_R   0.498705 0.412936 0.297061 -0.245926
C46   C     C_R   0.580435 0.502600 0.118989 0.486472
C47   C     C_R   0.416989 0.506347 0.940576 -0.014765
C48   C     C_R   0.581419 0.503524 0.059419 -0.014764
C49   C     C_R   0.498811 0.505034 0.970030 -0.024144
C50   C     C_R   0.499597 0.504998 0.029969 -0.024213
C51   C     C_R   0.579849 0.503570 0.939688 -0.013527
C52   C     C_R   0.418558 0.506247 0.060315 -0.013638
C53   C     C_R   0.336652 0.508000 0.971191 -0.162904
C54   C     C_R   0.661767 0.502487 0.028806 -0.162846
C55   C     C_R   0.337430 0.507949 0.030593 -0.165389
C56   C     C_R   0.497405 0.412962 0.702963 -0.244594
C57   C     C_R   0.660988 0.502510 0.969407 -0.165506
C58   C     C_3   0.496868 0.316970 0.206586 -0.425214
C59   C     C_3   0.404340 0.270747 0.210726 -0.337360
C60   C     C_3   0.401108 0.175871 0.178575 -0.862713
C61   C     C_3   0.494763 0.317060 0.793472 -0.426476
C62   C     C_3   0.585613 0.267632 0.789844 -0.335833
C63   C     C_3   0.585011 0.172766 0.822071 -0.862908
C64   C     C_R   0.912428 0.771897 0.508671 0.114741
C65   C     C_R   0.929725 0.843437 0.467915 -0.159991
C66   C     C_R   0.892126 0.934353 0.473777 -0.146637
C67   C     C_R   0.500633 0.499914 0.326945 -0.068237
C68   C     C_R   0.837261 0.954679 0.520366 -0.111842
C69   C     C_R   0.820006 0.884194 0.561233 -0.126605
C70   C     C_R   0.857966 0.793383 0.555759 -0.169200
C71   C     C_R   0.087650 0.228183 0.490470 0.116203
C72   C     C_R   0.142299 0.207005 0.443418 -0.170663
C73   C     C_R   0.180467 0.116311 0.437868 -0.127615
C74   C     C_R   0.163241 0.045631 0.478621 -0.109844
C75   C     C_R   0.108168 0.065638 0.525159 -0.147013
C76   C     C_R   0.070357 0.156439 0.531098 -0.161001
C77   C     C_R   0.498832 0.499938 0.673058 -0.068085
C78   C     C_R   0.503299 0.586702 0.297041 -0.219243
H1    H     H_    0.273047 0.509057 0.949399 0.191964
H2    H     H_    0.691413 0.088571 0.424406 0.140303
H3    H     H_    0.691320 0.912596 0.424363 0.153273
H4    H     H_    0.308628 0.087415 0.575590 0.152610
H5    H     H_    0.274403 0.508964 0.053085 0.191518
H6    H     H_    0.724015 0.501414 0.946916 0.191502
H7    H     H_    0.497002 0.345545 0.319938 0.162736
H8    H     H_    0.496869 0.345542 0.680104 0.162559
H9    H     H_    0.504936 0.654669 0.319234 0.167542
H10   H     H_    0.499865 0.654756 0.680734 0.167484
H11   H     H_    0.505785 0.653801 0.214972 0.142318
H12   H     H_    0.725372 0.501381 0.050596 0.191972
H13   H     H_    0.498083 0.653974 0.784985 0.142127
H14   H     H_    0.778626 0.346450 0.498741 0.154447
H15   H     H_    0.221392 0.653560 0.500912 0.154782
H16   H     H_    0.778098 0.653859 0.499007 0.172054
H17   H     H_    0.221897 0.346155 0.500639 0.172151
H18   H     H_    0.415873 0.187368 0.132619 0.265784
H19   H     H_    0.450294 0.125047 0.196726 0.262313
H20   H     H_    0.333550 0.143981 0.182489 0.253943
H21   H     H_    0.387013 0.257496 0.256178 0.219695
H22   H     H_    0.353743 0.319696 0.192268 0.262414
H23   H     H_    0.085954 0.740613 0.504049 0.145508
H24   H     H_    0.514848 0.325412 0.160905 0.209874
H25   H     H_    0.547497 0.268712 0.225715 0.204503
H26   H     H_    0.570098 0.184865 0.867943 0.265594
H27   H     H_    0.534245 0.123662 0.803701 0.262277
H28   H     H_    0.651419 0.138519 0.818527 0.254193
H29   H     H_    0.603015 0.253702 0.744491 0.221238
H30   H     H_    0.637707 0.314814 0.808536 0.262395
H31   H     H_    0.476496 0.326174 0.839051 0.210148
H32   H     H_    0.442679 0.270575 0.774090 0.204530
H33   H     H_    0.972379 0.828780 0.431690 0.135552
H34   H     H_    0.914074 0.259410 0.495233 0.145283
H35   H     H_    0.905681 0.989134 0.442265 0.138766
H36   H     H_    0.808175 0.025063 0.524813 0.130833
H37   H     H_    0.777686 0.900129 0.597380 0.136832
H38   H     H_    0.845272 0.739946 0.588266 0.141319
H39   H     H_    0.155013 0.260607 0.411011 0.139280
H40   H     H_    0.222943 0.100625 0.401756 0.135465
H41   H     H_    0.192507 0.975343 0.474122 0.131266
H42   H     H_    0.094632 0.010704 0.556580 0.138759
H43   H     H_    0.027578 0.170860 0.567296 0.134708
H44   H     H_    0.619562 0.758074 0.452400 0.136141
H45   H     H_    0.380458 0.241936 0.547620 0.136078
H46   H     H_    0.380573 0.757293 0.547735 0.133385
H47   H     H_    0.619380 0.242713 0.452218 0.133339
H48   H     H_    0.308511 0.911440 0.575520 0.140798
N1    N     N_R   0.497260 0.502925 0.852465 -0.359815
N2    N     N_R   0.501092 0.502785 0.147534 -0.359914
N3    N     N_R   0.500000 0.750030 0.500000 -0.104098
N4    N     N_R   0.500000 0.249970 0.500000 -0.104047
O1    O     O_R   0.367850 0.580280 0.500010 -0.630950
O2    O     O_2   0.344495 0.506972 0.150038 -0.572385
O3    O     O_2   0.340618 0.506363 0.851646 -0.559964
O4    O     O_2   0.657763 0.500904 0.148336 -0.559885
O5    O     O_R   0.632150 0.419720 0.499990 -0.631358
O6    O     O_R   0.632150 0.580280 0.499990 -0.631193
O7    O     O_R   0.367850 0.419720 0.500010 -0.631618
O8    O     O_R   0.499970 0.580290 0.416160 -0.619902
O9    O     O_R   0.500030 0.419710 0.583840 -0.621958
O10   O     O_R   0.500030 0.580290 0.583840 -0.620180
O11   O     O_R   0.499970 0.419710 0.416160 -0.622159
O12   O     O_2   0.653914 0.501865 0.849977 -0.572671
Zn1   Zn    Zn3+2 0.500000 0.607200 0.500000 0.949046
Zn2   Zn    Zn3+2 0.500000 0.392800 0.500000 0.945995

loop_
_geom_bond_atom_site_label_1
_geom_bond_atom_site_label_2
_ccdc_geom_bond_type
C78   H9    S    
C23   C58   S    
C66   C68   A    
C44   N1    A    
C34   C56   A    
C23   C45   A    
C66   H35   S    
C59   H21   S    
C73   C74   A    
C14   C18   A    
C2    C4    A    
O10   Zn1   S    
C61   H31   S    
C28   H45   S    
O1    Zn1   S    
C47   C49   A    
C27   C33   A    
C15   C19   A    
C74   H41   S    
C8    H15   S    
C13   H17   S    
C76   H43   S    
C46   N2    A    
C36   C37   A    
C53   H1    S    
C24   C26   A    
C6    N1    S    
C54   H12   S    
O6    Zn1   S    
C60   H20   S    
O8    Zn1   S    
C71   C76   A    
C11   C14   A    
C43   C52   A    
C62   H30   S    
C41   H4    S    
C29   H46   S    
C33   C36   A    
C18   C19   A    
C32   C39   A    
C49   C50   A    
C65   H33   S    
C29   N3    A    
C28   C35   A    
C68   C69   A    
C49   C51   A    
C12   O5    A    
C72   H39   S    
C45   C67   A    
C50   C52   A    
C2    H10   S    
C58   H24   S    
C64   C70   A    
C63   H27   S    
N4    Zn2   S    
C28   N4    A    
C52   C55   A    
C42   C51   A    
C47   C53   A    
C4    H13   S    
C48   C50   A    
C30   H47   S    
C59   C60   S    
C59   H22   S    
C61   C62   S    
C67   C78   A    
C61   H32   S    
C38   H48   S    
C27   H44   S    
C53   C55   A    
C46   C48   A    
C33   C40   A    
C74   C75   A    
C1    C10   S    
C38   C41   A    
C4    C6    A    
C60   H19   S    
O11   Zn2   S    
C39   C40   A    
C72   C73   A    
C62   H29   S    
C3    C5    A    
C58   C59   S    
C30   N4    A    
C22   C25   A    
C34   C61   S    
C56   C77   A    
C6    C34   A    
C48   C54   A    
C45   H7    S    
C75   C76   A    
C42   O12   S    
C62   C63   S    
C46   O4    S    
O9    Zn2   S    
C56   H8    S    
C5    C23   A    
C17   C77   S    
C8    C21   A    
C57   H6    S    
C17   O9    A    
C16   C67   S    
C32   C37   A    
C63   H28   S    
C9    C11   A    
C42   N1    A    
C51   C57   A    
C60   H18   S    
C11   H16   S    
C15   C24   A    
O7    Zn2   S    
C65   C66   A    
C13   C15   A    
C27   N3    A    
C55   H5    S    
C26   H34   S    
C1    O7    A    
C44   O3    S    
C7    C9    A    
C21   C25   A    
O5    Zn2   S    
C73   H40   S    
C35   C37   A    
C40   H3    S    
C16   O8    A    
C75   H42   S    
C63   H26   S    
C1    O1    A    
C10   C13   A    
C43   N2    A    
C44   C47   A    
N3    Zn1   S    
C69   H37   S    
C31   C38   A    
C3    H11   S    
C70   H38   S    
C39   H2    S    
C14   C22   A    
C16   O11   A    
C71   C72   A    
C29   C31   A    
C2    C77   A    
C64   C65   A    
C30   C32   A    
C25   H23   S    
C20   C26   A    
C7    H14   S    
C5    N2    S    
C43   O2    S    
C17   O10   A    
C18   C20   A    
C69   C70   A    
C35   C41   A    
C9    C12   S    
C22   C64   S    
C8    C10   A    
C7    C20   A    
C12   O6    A    
C31   C36   A    
C58   H25   S    
C3    C78   A    
C24   C71   S    
C68   H36   S    
C19   C21   A    
C54   C57   A    
