data_mof_unit_50354.cif
_audit_creation_date              2012-12-11T15:09:10-0500
_audit_creation_method            fapswitch 2.2
_symmetry_space_group_name_H-M    P1
_symmetry_Int_Tables_number       1
_space_group_crystal_system       triclinic
_cell_length_a                    26.002115
_cell_length_b                    27.553663
_cell_length_c                    8.359955
_cell_angle_alpha                 90.0
_cell_angle_beta                  96.032745
_cell_angle_gamma                 89.999943
_cell_volume                      5956.34914426

loop_
_atom_site_label
_atom_site_type_symbol
_atom_type_description
_atom_site_fract_x
_atom_site_fract_y
_atom_site_fract_z
_atom_type_partial_charge
Ba1   Ba    Ba6+2 0.999910 0.465960 0.844870 1.632512
Ba2   Ba    Ba6+2 0.999910 0.534040 0.344870 1.632520
Ba3   Ba    Ba6+2 0.499910 0.965960 0.844870 1.632505
Ba4   Ba    Ba6+2 0.499910 0.034040 0.344870 1.632528
C1    C     C_3   0.044228 0.242263 0.621321 -0.352195
C2    C     C_R   0.845367 0.642066 0.599794 -0.120402
C3    C     C_3   0.518621 0.208122 0.109667 0.329996
C4    C     C_R   0.913832 0.383723 0.300321 -0.288691
C5    C     C_R   0.913832 0.616277 0.800322 -0.288699
C6    C     C_R   0.413832 0.883723 0.300324 -0.288659
C7    C     C_R   0.413831 0.116277 0.800321 -0.288750
C8    C     C_R   0.271602 0.648290 0.149299 0.036922
C9    C     C_R   0.283664 0.631401 0.307517 -0.086643
C10   C     C_R   0.294100 0.582225 0.336600 -0.057908
C11   C     C_R   0.293204 0.549736 0.208082 -0.015035
C12   C     C_R   0.281755 0.566311 0.050505 -0.046392
C13   C     C_R   0.345367 0.857934 0.099794 -0.120488
C14   C     C_R   0.270994 0.615428 0.020696 -0.044660
C15   C     C_R   0.271597 0.351707 0.649312 0.036821
C16   C     C_R   0.270997 0.384567 0.520706 -0.044874
C17   C     C_R   0.281760 0.433684 0.550511 -0.046471
C18   C     C_R   0.293202 0.450260 0.708089 -0.015022
C19   C     C_R   0.294089 0.417774 0.836611 -0.057929
C20   C     C_R   0.283652 0.368597 0.807531 -0.086698
C21   C     C_R   0.771601 0.148291 0.149300 0.036910
C22   C     C_R   0.783662 0.131402 0.307518 -0.086667
C23   C     C_R   0.794099 0.082226 0.336600 -0.057911
C24   C     C_R   0.345364 0.142065 0.599796 -0.120304
C25   C     C_R   0.793204 0.049738 0.208080 -0.015030
C26   C     C_R   0.781755 0.066312 0.050504 -0.046417
C27   C     C_R   0.770993 0.115429 0.020697 -0.044696
C28   C     C_R   0.771602 0.851710 0.649304 0.036870
C29   C     C_R   0.770997 0.884571 0.520699 -0.044767
C30   C     C_R   0.781758 0.933688 0.550507 -0.046429
C31   C     C_R   0.793205 0.950263 0.708084 -0.015030
C32   C     C_R   0.794096 0.917776 0.836604 -0.057918
C33   C     C_R   0.783660 0.868599 0.807522 -0.086669
C34   C     C_2   0.725177 0.352754 0.071797 0.493817
C35   C     C_R   0.832466 0.319348 0.200170 -0.022820
C36   C     C_2   0.725178 0.647248 0.571790 0.493818
C37   C     C_2   0.225179 0.852753 0.071794 0.493815
C38   C     C_2   0.225175 0.147245 0.571787 0.493821
C39   C     C_2   0.941842 0.219814 0.956989 0.549114
C40   C     C_2   0.941852 0.780174 0.456877 0.549282
C41   C     C_2   0.441916 0.719754 0.957106 0.549230
C42   C     C_2   0.441773 0.280089 0.456661 0.549276
C43   C     C_R   0.832467 0.680652 0.700171 -0.022827
C44   C     C_R   0.332467 0.819348 0.200170 -0.022852
C45   C     C_R   0.332463 0.180650 0.700175 -0.022797
C46   C     C_R   0.861214 0.313996 0.352391 -0.137006
C47   C     C_R   0.861214 0.686004 0.852392 -0.137010
C48   C     C_R   0.361215 0.813995 0.352392 -0.136992
C49   C     C_3   0.044231 0.757736 0.121304 -0.352182
C50   C     C_R   0.361211 0.186002 0.852396 -0.137030
C51   C     C_R   0.901363 0.346427 0.402647 0.007562
C52   C     C_R   0.901363 0.653573 0.902648 0.007553
C53   C     C_R   0.401363 0.846427 0.402649 0.007556
C54   C     C_R   0.401361 0.153571 0.902649 0.007561
C55   C     C_R   0.797379 0.234704 0.169254 -0.028890
C56   C     C_R   0.797380 0.765297 0.669258 -0.028925
C57   C     C_R   0.297381 0.734703 0.169252 -0.029000
C58   C     C_R   0.297375 0.265294 0.669269 -0.028825
C59   C     C_R   0.258970 0.700166 0.120217 0.017182
C60   C     C_3   0.544223 0.742259 0.621255 -0.352146
C61   C     C_R   0.258965 0.299830 0.620231 0.017175
C62   C     C_R   0.758968 0.200168 0.120219 0.017184
C63   C     C_R   0.758970 0.799833 0.620221 0.017178
C64   C     C_R   0.210193 0.715624 0.044861 0.012904
C65   C     C_R   0.210189 0.284373 0.544868 0.012942
C66   C     C_R   0.710191 0.215625 0.044864 0.012905
C67   C     C_R   0.710193 0.784376 0.544862 0.012926
C68   C     C_R   0.201652 0.765788 0.024619 -0.069945
C69   C     C_R   0.201648 0.234210 0.524621 -0.069931
C70   C     C_R   0.701650 0.265789 0.024623 -0.069945
C71   C     C_3   0.544247 0.257724 0.121377 -0.352213
C72   C     C_R   0.701652 0.734212 0.524617 -0.069934
C73   C     C_R   0.739518 0.300537 0.078775 -0.041176
C74   C     C_R   0.739519 0.699465 0.578770 -0.041176
C75   C     C_R   0.239520 0.800536 0.078772 -0.041162
C76   C     C_R   0.239516 0.199462 0.578773 -0.041192
C77   C     C_3   0.982285 0.291462 0.104003 0.293171
C78   C     C_3   0.982282 0.708534 0.603970 0.293273
C79   C     C_3   0.482281 0.791466 0.103938 0.293097
C80   C     C_3   0.482282 0.208534 0.604026 0.293419
C81   C     C_R   0.788954 0.284852 0.148197 -0.007071
C82   C     C_R   0.884999 0.390886 0.151745 0.064934
C83   C     C_R   0.788954 0.715149 0.648198 -0.007033
C84   C     C_R   0.288955 0.784851 0.148196 -0.007121
C85   C     C_R   0.288950 0.215146 0.648204 -0.006940
C86   C     C_R   0.138664 0.686127 0.837788 -0.140469
C87   C     C_R   0.138661 0.313872 0.337791 -0.140470
C88   C     C_R   0.638660 0.186129 0.837793 -0.140451
C89   C     C_R   0.638666 0.813875 0.337786 -0.140478
C90   C     C_R   0.098757 0.653452 0.786371 0.013315
C91   C     C_R   0.098756 0.346548 0.286372 0.013310
C92   C     C_R   0.598754 0.153454 0.786376 0.013323
C93   C     C_R   0.884999 0.609114 0.651746 0.064920
C94   C     C_R   0.598760 0.846550 0.286368 0.013312
C95   C     C_R   0.114628 0.609299 0.037457 0.064914
C96   C     C_R   0.114627 0.390701 0.537458 0.064913
C97   C     C_R   0.614627 0.109299 0.037458 0.064911
C98   C     C_R   0.614629 0.890702 0.537457 0.064917
C99   C     C_R   0.153732 0.642461 0.090838 -0.121499
C100  C     C_R   0.153729 0.357538 0.590841 -0.121478
C101  C     C_R   0.653730 0.142462 0.090840 -0.121506
C102  C     C_R   0.653732 0.857539 0.590838 -0.121481
C103  C     C_R   0.166950 0.680971 0.991013 -0.019062
C104  C     C_R   0.385000 0.890886 0.151746 0.064953
C105  C     C_R   0.166947 0.319027 0.491017 -0.019051
C106  C     C_R   0.666948 0.180973 0.991016 -0.019063
C107  C     C_R   0.666951 0.819029 0.491012 -0.019057
C108  C     C_R   0.086395 0.615997 0.887968 -0.287867
C109  C     C_R   0.086395 0.384003 0.387968 -0.287866
C110  C     C_R   0.586394 0.115998 0.887969 -0.287852
C111  C     C_R   0.586397 0.884004 0.387967 -0.287884
C112  C     C_3   0.959071 0.240971 0.118959 -0.263932
C113  C     C_3   0.959052 0.759021 0.618872 -0.263923
C114  C     C_3   0.459083 0.740975 0.119021 -0.263914
C115  C     C_R   0.384998 0.109113 0.651746 0.064887
C116  C     C_3   0.459017 0.259013 0.618736 -0.263926
C117  C     C_3   0.148957 0.467861 0.206518 0.311270
C118  C     C_3   0.148959 0.532139 0.706514 0.311267
C119  C     C_3   0.648959 0.967861 0.206512 0.311268
C120  C     C_3   0.648957 0.032140 0.706517 0.311264
C121  C     C_3   0.190799 0.434593 0.154024 -0.375281
C122  C     C_3   0.190799 0.565406 0.654006 -0.375276
C123  C     C_3   0.690800 0.934595 0.154008 -0.375280
C124  C     C_3   0.690797 0.065407 0.654011 -0.375276
C125  C     C_3   0.851560 0.530994 0.968271 0.309205
C126  C     C_R   0.845366 0.357934 0.099794 -0.120428
C127  C     C_3   0.851561 0.469006 0.468272 0.309206
C128  C     C_3   0.351559 0.030993 0.968270 0.309203
C129  C     C_3   0.351561 0.969006 0.468271 0.309207
C130  C     C_3   0.802565 0.561559 0.951780 -0.370850
C131  C     C_3   0.802564 0.438441 0.451773 -0.370853
C132  C     C_3   0.302563 0.061558 0.951780 -0.370847
C133  C     C_3   0.302564 0.938441 0.451772 -0.370856
C134  C     C_3   0.018611 0.291868 0.609603 0.330036
C135  C     C_3   0.018610 0.708132 0.109582 0.330041
C136  C     C_3   0.518604 0.791863 0.609522 0.330078
H1    H     H_    0.041247 0.316626 0.694965 0.097870
H2    H     H_    0.184504 0.603145 0.693195 0.064205
H3    H     H_    0.487919 0.283525 0.684237 0.072741
H4    H     H_    0.148782 0.465338 0.338573 0.000529
H5    H     H_    0.148786 0.534663 0.838570 0.000521
H6    H     H_    0.648784 0.965336 0.338567 0.000524
H7    H     H_    0.648784 0.034663 0.838572 0.000522
H8    H     H_    0.111413 0.455048 0.145716 0.061874
H9    H     H_    0.111413 0.544952 0.645721 0.061871
H10   H     H_    0.611414 0.955048 0.145712 0.061870
H11   H     H_    0.611411 0.044952 0.645722 0.061880
H12   H     H_    0.284110 0.656183 0.408243 0.074488
H13   H     H_    0.684506 0.896855 0.193198 0.064206
H14   H     H_    0.302839 0.569301 0.458720 0.063345
H15   H     H_    0.301623 0.511746 0.230269 0.050304
H16   H     H_    0.281386 0.540975 0.951838 0.051614
H17   H     H_    0.262188 0.627879 0.898042 0.071280
H18   H     H_    0.262197 0.372114 0.398051 0.071312
H19   H     H_    0.281399 0.459017 0.451841 0.051623
H20   H     H_    0.301622 0.488250 0.730274 0.050330
H21   H     H_    0.302822 0.430699 0.958732 0.063312
H22   H     H_    0.284091 0.343817 0.908260 0.074511
H23   H     H_    0.784107 0.156183 0.408245 0.074486
H24   H     H_    0.684502 0.103146 0.693203 0.064211
H25   H     H_    0.802838 0.069302 0.458720 0.063337
H26   H     H_    0.801623 0.011748 0.230267 0.050320
H27   H     H_    0.781387 0.040977 0.951837 0.051617
H28   H     H_    0.762187 0.127881 0.898043 0.071289
H29   H     H_    0.762194 0.872120 0.398045 0.071296
H30   H     H_    0.781393 0.959023 0.451838 0.051619
H31   H     H_    0.801624 0.988254 0.730270 0.050325
H32   H     H_    0.802833 0.930701 0.958724 0.063332
H33   H     H_    0.784102 0.843819 0.908249 0.074502
H34   H     H_    0.748503 0.379392 0.141758 -0.010622
H35   H     H_    0.190105 0.435215 0.021009 0.139863
H36   H     H_    0.748503 0.620609 0.641754 -0.010625
H37   H     H_    0.248504 0.879391 0.141756 -0.010609
H38   H     H_    0.248500 0.120606 0.641749 -0.010641
H39   H     H_    0.970119 0.210817 0.875330 0.039457
H40   H     H_    0.970152 0.789225 0.375351 0.039315
H41   H     H_    0.470223 0.710762 0.875544 0.039380
H42   H     H_    0.470060 0.289189 0.375135 0.039277
H43   H     H_    0.190103 0.564781 0.520991 0.139866
H44   H     H_    0.690106 0.935220 0.020994 0.139863
H45   H     H_    0.690102 0.064783 0.520996 0.139869
H46   H     H_    0.866114 0.527782 0.849194 0.010791
H47   H     H_    0.866117 0.472217 0.349199 0.010789
H48   H     H_    0.366113 0.027782 0.849193 0.010796
H49   H     H_    0.041249 0.683372 0.194931 0.097846
H50   H     H_    0.366117 0.972217 0.349198 0.010790
H51   H     H_    0.880821 0.549065 0.054758 0.058848
H52   H     H_    0.880819 0.450935 0.554765 0.058855
H53   H     H_    0.380820 0.049065 0.054757 0.058838
H54   H     H_    0.380820 0.950935 0.554764 0.058857
H55   H     H_    0.772992 0.544555 0.863728 0.137264
H56   H     H_    0.772995 0.455444 0.363707 0.137261
H57   H     H_    0.272991 0.044554 0.863730 0.137265
H58   H     H_    0.272994 0.955444 0.363707 0.137263
H59   H     H_    0.810763 0.598479 0.909436 0.053054
H60   H     H_    0.541254 0.816628 0.694826 0.097789
H61   H     H_    0.810764 0.401521 0.409441 0.053055
H62   H     H_    0.310761 0.098477 0.909434 0.053048
H63   H     H_    0.310764 0.901521 0.409439 0.053060
H64   H     H_    0.786972 0.564529 0.070108 0.137572
H65   H     H_    0.786968 0.435475 0.570095 0.137573
H66   H     H_    0.286971 0.064528 0.070108 0.137573
H67   H     H_    0.286968 0.935475 0.570094 0.137572
H68   H     H_    0.019758 0.305381 0.485040 -0.051795
H69   H     H_    0.019753 0.694621 0.985014 -0.051807
H70   H     H_    0.519731 0.805363 0.484936 -0.051846
H71   H     H_    0.541239 0.183370 0.195089 0.097936
H72   H     H_    0.519789 0.194595 0.985129 -0.051744
H73   H     H_    0.083929 0.245065 0.584916 0.076888
H74   H     H_    0.083928 0.754935 0.084875 0.076886
H75   H     H_    0.583913 0.745056 0.584781 0.076863
H76   H     H_    0.583961 0.254909 0.085095 0.076908
H77   H     H_    0.046775 0.228767 0.746970 0.133979
H78   H     H_    0.046785 0.771227 0.246957 0.133973
H79   H     H_    0.546792 0.728776 0.746916 0.133965
H80   H     H_    0.546759 0.271238 0.246996 0.133987
H81   H     H_    0.925505 0.243708 0.190465 0.074657
H82   H     H_    0.229431 0.446857 0.207204 0.100667
H83   H     H_    0.925469 0.756278 0.690298 0.074630
H84   H     H_    0.425490 0.743724 0.190403 0.074672
H85   H     H_    0.425447 0.256277 0.690226 0.074603
H86   H     H_    0.174239 0.637560 0.209085 0.091388
H87   H     H_    0.174235 0.362438 0.709090 0.091408
H88   H     H_    0.674238 0.137561 0.209086 0.091393
H89   H     H_    0.674238 0.862439 0.709087 0.091397
H90   H     H_    0.834746 0.222068 0.222815 0.083278
H91   H     H_    0.834746 0.777933 0.722825 0.083198
H92   H     H_    0.334748 0.722067 0.222815 0.083295
H93   H     H_    0.229431 0.553144 0.707183 0.100668
H94   H     H_    0.334741 0.277930 0.722840 0.083111
H95   H     H_    0.823754 0.363209 0.983206 0.086752
H96   H     H_    0.823755 0.636791 0.483206 0.086758
H97   H     H_    0.323755 0.863208 0.983205 0.086748
H98   H     H_    0.323752 0.136790 0.483208 0.086766
H99   H     H_    0.164071 0.778025 0.971756 0.115824
H100  H     H_    0.164068 0.221973 0.471753 0.115819
H101  H     H_    0.664068 0.278027 0.971762 0.115827
H102  H     H_    0.664071 0.721976 0.471752 0.115821
H103  H     H_    0.148377 0.714687 0.757232 0.085553
H104  H     H_    0.729433 0.946857 0.207190 0.100668
H105  H     H_    0.148374 0.285312 0.257236 0.085564
H106  H     H_    0.648373 0.214690 0.757239 0.085556
H107  H     H_    0.648380 0.785315 0.257229 0.085561
H108  H     H_    0.851522 0.285567 0.433484 0.087712
H109  H     H_    0.851522 0.714433 0.933486 0.087751
H110  H     H_    0.351522 0.785567 0.433484 0.087703
H111  H     H_    0.351518 0.214429 0.933491 0.087797
H112  H     H_    0.056437 0.590298 0.846705 0.067085
H113  H     H_    0.056438 0.409703 0.346703 0.067085
H114  H     H_    0.556437 0.090298 0.846705 0.067083
H115  H     H_    0.729430 0.053145 0.707188 0.100665
H116  H     H_    0.556439 0.909703 0.346704 0.067087
H117  H     H_    0.021689 0.216179 0.540470 0.123234
H118  H     H_    0.021689 0.783822 0.040472 0.123238
H119  H     H_    0.521673 0.716168 0.540471 0.123242
H120  H     H_    0.521734 0.283798 0.040426 0.123214
H121  H     H_    0.944084 0.409191 0.341020 0.067771
H122  H     H_    0.944084 0.590808 0.841021 0.067771
H123  H     H_    0.444083 0.909192 0.341024 0.067764
H124  H     H_    0.444084 0.090809 0.841017 0.067781
H125  H     H_    0.955681 0.313964 0.021564 0.083368
H126  H     H_    0.184505 0.396854 0.193222 0.064213
H127  H     H_    0.955687 0.686024 0.521532 0.083409
H128  H     H_    0.455680 0.813938 0.021396 0.083443
H129  H     H_    0.455695 0.185981 0.521706 0.083358
H130  H     H_    0.985377 0.308061 0.225636 -0.053118
H131  H     H_    0.985369 0.691943 0.725612 -0.053147
H132  H     H_    0.485347 0.808099 0.225517 -0.053070
H133  H     H_    0.485396 0.191988 0.725738 -0.053216
H134  H     H_    0.988006 0.216510 0.184555 0.072860
H135  H     H_    0.987968 0.783488 0.684524 0.072779
H136  H     H_    0.488011 0.716548 0.184796 0.072826
O1    O     O_2   0.898940 0.431940 0.867860 -0.461008
O2    O     O_3   0.031008 0.711870 0.545281 -0.607633
O3    O     O_3   0.531015 0.788130 0.045294 -0.607623
O4    O     O_3   0.531000 0.211870 0.545279 -0.607642
O5    O     O_3   0.058810 0.523750 0.066650 -0.493413
O6    O     O_3   0.058810 0.476250 0.566650 -0.493414
O7    O     O_3   0.558810 0.023750 0.066650 -0.493414
O8    O     O_3   0.558810 0.976250 0.566650 -0.493412
O9    O     O_3   0.941140 0.476130 0.123050 -0.494414
O10   O     O_3   0.941140 0.523870 0.623050 -0.494413
O11   O     O_3   0.441140 0.976130 0.123050 -0.494414
O12   O     O_2   0.898940 0.568060 0.367860 -0.461013
O13   O     O_3   0.441140 0.023870 0.623050 -0.494410
O14   O     O_3   0.982430 0.389880 0.635700 -0.494018
O15   O     O_3   0.982430 0.610120 0.135700 -0.494031
O16   O     O_3   0.482430 0.889880 0.635700 -0.494003
O17   O     O_3   0.482430 0.110120 0.135700 -0.494067
O18   O     O_2   0.898814 0.348890 0.736867 -0.471151
O19   O     O_2   0.898815 0.651111 0.236869 -0.471114
O20   O     O_2   0.398815 0.848890 0.736869 -0.471206
O21   O     O_2   0.398818 0.151115 0.236876 -0.471017
O22   O     O_3   0.839138 0.485085 0.023472 -0.630333
O23   O     O_2   0.398940 0.931940 0.867860 -0.461007
O24   O     O_3   0.839138 0.514915 0.523470 -0.630332
O25   O     O_3   0.339138 0.985085 0.023473 -0.630332
O26   O     O_3   0.339138 0.014915 0.523470 -0.630332
O27   O     O_3   0.967489 0.288009 0.648854 -0.594795
O28   O     O_3   0.967491 0.711991 0.148852 -0.594736
O29   O     O_3   0.467493 0.788010 0.648860 -0.594753
O30   O     O_3   0.467491 0.211993 0.148821 -0.594744
O31   O     O_2   0.100770 0.431440 0.821660 -0.466196
O32   O     O_2   0.100770 0.568560 0.321660 -0.466195
O33   O     O_2   0.600770 0.931440 0.821660 -0.466196
O34   O     O_2   0.398940 0.068060 0.367860 -0.461024
O35   O     O_2   0.600770 0.068560 0.321660 -0.466197
O36   O     O_3   0.017130 0.389790 0.053700 -0.484995
O37   O     O_3   0.017130 0.610210 0.553700 -0.485011
O38   O     O_3   0.517130 0.889790 0.053700 -0.484993
O39   O     O_3   0.517130 0.110210 0.553700 -0.485030
O40   O     O_2   0.100169 0.347776 0.950731 -0.491666
O41   O     O_2   0.100168 0.652224 0.450730 -0.491659
O42   O     O_2   0.600169 0.847777 0.950723 -0.491642
O43   O     O_2   0.600167 0.152227 0.450739 -0.491688
O44   O     O_2   0.686463 0.366704 0.989221 -0.566081
O45   O     O_3   0.160973 0.484360 0.666653 -0.635557
O46   O     O_2   0.686465 0.633298 0.489209 -0.566075
O47   O     O_2   0.186464 0.866702 0.989217 -0.566082
O48   O     O_2   0.186462 0.133296 0.489203 -0.566069
O49   O     O_2   0.896065 0.212245 0.916533 -0.577731
O50   O     O_2   0.896073 0.787678 0.416250 -0.577679
O51   O     O_2   0.396157 0.712127 0.916590 -0.577740
O52   O     O_2   0.395970 0.287468 0.415959 -0.577619
O53   O     O_3   0.160973 0.515639 0.166652 -0.635569
O54   O     O_3   0.660972 0.984361 0.666654 -0.635564
O55   O     O_3   0.660973 0.015640 0.166653 -0.635565
O56   O     O_3   0.031008 0.288131 0.045279 -0.607618
P1    P     P_3+3 0.893960 0.447890 0.040050 0.989134
P2    P     P_3+3 0.063234 0.656570 0.583577 0.948934
P3    P     P_3+3 0.563237 0.843432 0.083576 0.948980
P4    P     P_3+3 0.563231 0.156573 0.583582 0.948876
P5    P     P_3+3 0.936351 0.656432 0.106079 0.962584
P6    P     P_3+3 0.936350 0.343568 0.606078 0.962523
P7    P     P_3+3 0.436351 0.156432 0.106076 0.962657
P8    P     P_3+3 0.436351 0.843568 0.606080 0.962500
P9    P     P_3+3 0.893960 0.552110 0.540050 0.989130
P10   P     P_3+3 0.393960 0.947890 0.040050 0.989134
P11   P     P_3+3 0.393960 0.052110 0.540050 0.989127
P12   P     P_3+3 0.105800 0.447360 0.649510 0.981530
P13   P     P_3+3 0.105800 0.552640 0.149510 0.981521
P14   P     P_3+3 0.605800 0.947360 0.649510 0.981531
P15   P     P_3+3 0.605800 0.052640 0.149510 0.981518
P16   P     P_3+3 0.063234 0.343430 0.083577 0.948947

loop_
_geom_bond_atom_site_label_1
_geom_bond_atom_site_label_2
_ccdc_geom_bond_type
C41   C114  S    
Ba2   P13   S    
C95   C99   A    
C101  C106  A    
C129  C133  S    
C49   H74   S    
C58   H94   S    
C129  O26   S    
C15   C16   A    
C13   C44   A    
C128  H48   S    
C3    H72   S    
C117  O53   S    
C121  H82   S    
C135  H69   S    
C86   C103  A    
C68   C75   A    
C79   O3    S    
C55   C62   A    
C125  O22   S    
O21   P7    D    
C22   H23   S    
C96   C100  A    
Ba4   O7    S    
C30   C31   A    
C101  H88   S    
C112  H81   S    
C57   C59   A    
C122  H93   S    
C1    H77   S    
C3    O30   S    
C120  O54   S    
C129  H54   S    
C66   C70   A    
C50   H111  S    
C78   H127  S    
O11   P10   S    
C16   H18   S    
C17   C18   A    
C17   H19   S    
C92   C110  A    
C46   H108  S    
Ba1   O10   S    
Ba2   O5    S    
C110  H114  S    
C120  H7    S    
C94   P3    S    
C114  H84   S    
C124  H45   S    
C2    C93   A    
O42   P3    D    
O19   P5    D    
C88   H106  S    
C25   H26   S    
Ba1   O1    S    
C64   C68   A    
C1    H73   S    
Ba3   O23   S    
C23   H25   S    
C134  O27   S    
C77   O56   S    
C128  O25   S    
C127  O24   S    
C35   C81   S    
C67   C72   A    
C82   P1    S    
C99   C103  A    
C60   C136  S    
C2    H96   S    
C49   H118  S    
C49   C135  S    
O23   P10   D    
C134  H1    S    
O5    P13   S    
C118  H9    S    
C136  H60   S    
C14   H17   S    
C36   O46   D    
C38   O48   D    
C62   C66   A    
C38   H38   S    
C77   H130  S    
C4    C82   A    
C79   H132  S    
C44   C48   A    
C16   C17   A    
O6    P12   S    
O1    P1    D    
O33   P14   D    
C18   C19   A    
O8    P14   S    
O3    P3    S    
C48   H110  S    
O34   P11   D    
C95   P13   S    
C127  H47   S    
C74   C83   A    
C21   C27   A    
Ba1   O5    S    
C23   C25   A    
C56   H91   S    
C126  H95   S    
C6    C104  A    
C113  H135  S    
C124  H115  S    
C114  H136  S    
O15   P5    S    
C53   P8    S    
C131  H61   S    
O28   P5    S    
C80   H129  S    
C37   H37   S    
C32   C33   A    
C72   C74   A    
C26   H27   S    
Ba4   O35   S    
C34   H34   S    
C88   C92   A    
C57   H92   S    
C66   C106  S    
C131  H56   S    
O4    P4    S    
C56   C63   A    
C70   C73   A    
C19   C20   A    
C7    C54   A    
C34   O44   D    
C24   H98   S    
C119  H10   S    
C73   C81   A    
C9    C10   A    
C10   H14   S    
C77   H125  S    
C123  H44   S    
C117  H4    S    
C122  H43   S    
C78   O2    S    
Ba3   O16   S    
C102  C107  A    
C130  H59   S    
C32   H32   S    
Ba4   O11   S    
C2    C43   A    
Ba4   O17   S    
O2    P2    S    
C36   H36   S    
C134  H68   S    
C82   C126  A    
C21   C22   A    
C28   C33   A    
C78   H131  S    
C43   C83   S    
C55   C81   A    
C117  C121  S    
C25   C26   A    
C39   C112  S    
Ba1   P1    S    
C24   C45   A    
C119  C123  S    
O36   P16   S    
O41   P2    D    
C128  C132  S    
C5    H122  S    
C1    H117  S    
C68   H99   S    
C42   C116  S    
C5    C52   A    
C93   P9    S    
C7    H124  S    
C133  H58   S    
O56   P16   S    
C28   C63   S    
Ba3   O8    S    
Ba1   O36   S    
Ba2   O9    S    
C128  H53   S    
Ba3   Ba4   S    
C59   C64   A    
C60   H79   S    
O37   P2    S    
C120  H11   S    
C21   C62   S    
C3    H71   S    
C40   O50   D    
C90   P2    S    
C120  C124  S    
C42   H42   S    
C132  H66   S    
C88   C106  A    
C94   C111  A    
C18   H20   S    
O16   P8    S    
C80   O4    S    
C77   C112  S    
C90   C108  A    
Ba4   O8    S    
C118  O45   S    
C87   C91   A    
C8    C9    A    
C10   C11   A    
O17   P7    S    
C4    H121  S    
C125  H46   S    
C31   H31   S    
C60   H75   S    
C31   C32   A    
C29   H29   S    
C40   H40   S    
C136  H70   S    
Ba2   O6    S    
C127  H52   S    
C51   P6    S    
Ba1   O31   S    
C39   H39   S    
C22   C23   A    
Ba2   O32   S    
Ba2   P9    S    
O29   P8    S    
C79   H128  S    
C50   C54   A    
C26   C27   A    
C58   C85   A    
C6    H123  S    
Ba4   O39   S    
C76   C85   A    
C98   C111  A    
Ba4   O34   S    
C111  H116  S    
C12   H16   S    
C44   C84   S    
C65   C69   A    
C64   C103  S    
C60   H119  S    
C131  H65   S    
C80   H133  S    
C97   C110  A    
O32   P13   D    
C116  H3    S    
C4    C51   A    
C75   C84   A    
C129  H50   S    
C86   C90   A    
O43   P4    D    
C104  P10   S    
C109  H113  S    
C96   C109  A    
C69   H100  S    
C13   C104  A    
C43   C47   A    
C133  H63   S    
C122  H2    S    
C91   P16   S    
C72   H102  S    
Ba3   O38   S    
C37   C75   S    
C41   O51   D    
C119  H6    S    
C119  O55   S    
C80   C116  S    
C117  H8    S    
C52   P5    S    
C37   O47   D    
Ba4   P11   S    
O10   P9    S    
C132  H57   S    
O38   P3    S    
C89   C107  A    
Ba3   P14   S    
C130  H55   S    
C36   C74   S    
C98   P14   S    
C100  H87   S    
Ba2   O12   S    
O26   P11   S    
C5    C93   A    
C9    H12   S    
C135  H49   S    
O39   P4    S    
C130  H64   S    
C34   C73   S    
C97   P15   S    
C42   O52   D    
C102  H89   S    
C28   C29   A    
C15   C20   A    
C39   O49   D    
O54   P14   S    
Ba1   O6    S    
Ba2   O37   S    
C71   H80   S    
C61   C65   A    
Ba1   O14   S    
C15   C61   S    
C63   C67   A    
C48   C53   A    
C125  C130  S    
O9    P1    S    
C27   H28   S    
C96   P12   S    
C78   C113  S    
C11   C12   A    
C87   H105  S    
C38   C76   S    
C121  H126  S    
O20   P8    D    
C124  H24   S    
C7    C115  A    
C123  H13   S    
C132  H62   S    
C1    C134  S    
C99   H86   S    
C79   C114  S    
Ba1   Ba2   S    
C127  C131  S    
C100  C105  A    
O12   P9    D    
C45   C50   A    
C125  H51   S    
C71   H76   S    
C47   C52   A    
C118  H5    S    
O35   P15   D    
C70   H101  S    
C65   C105  S    
C67   C107  S    
O7    P15   S    
C89   H107  S    
C30   H30   S    
O55   P15   S    
Ba3   O7    S    
C136  O29   S    
C86   H103  S    
O18   P6    D    
Ba3   O33   S    
C56   C83   A    
C108  H112  S    
O40   P16   D    
C97   C101  A    
C92   P4    S    
C6    C53   A    
C8    C59   S    
C3    C71   S    
Ba2   O15   S    
C118  C122  S    
C57   C84   A    
C29   C30   A    
C112  H134  S    
C135  O28   S    
O27   P6    S    
C113  H83   S    
Ba3   O13   S    
O24   P9    S    
C121  H35   S    
O45   P12   S    
C133  H67   S    
C49   H78   S    
C58   C61   A    
C11   H15   S    
C20   H22   S    
C123  H104  S    
C45   C85   S    
C24   C115  A    
O31   P12   D    
C41   H41   S    
C115  P11   S    
C35   C126  A    
C46   C51   A    
Ba4   P15   S    
C87   C105  A    
Ba1   P12   S    
O25   P10   S    
O13   P11   S    
O53   P13   S    
Ba3   P10   S    
C40   C113  S    
C91   C109  A    
C95   C108  A    
C89   C94   A    
C69   C76   A    
C98   C102  A    
C47   H109  S    
C33   H33   S    
C35   C46   A    
C71   H120  S    
O22   P1    S    
C12   C14   A    
C8    C14   A    
O30   P7    S    
O14   P6    S    
C54   P7    S    
C55   H90   S    
C116  H85   S    
C19   H21   S    
C13   H97   S    
