data_mof_unit_36262.cif
_audit_creation_date              2012-12-11T15:21:44-0500
_audit_creation_method            fapswitch 2.2
_symmetry_space_group_name_H-M    P1
_symmetry_Int_Tables_number       1
_space_group_crystal_system       monoclinic
_cell_length_a                    19.192597
_cell_length_b                    7.148998
_cell_length_c                    17.696673
_cell_angle_alpha                 90.0
_cell_angle_beta                  108.888982
_cell_angle_gamma                 90.0
_cell_volume                      2297.36209938

loop_
_atom_site_label
_atom_site_type_symbol
_atom_type_description
_atom_site_fract_x
_atom_site_fract_y
_atom_site_fract_z
_atom_type_partial_charge
O1    O     O_R   0.562310 0.505770 0.439670 -0.529468
O2    O     O_R   0.437690 0.005770 0.560330 -0.529468
O3    O     O_R   0.411650 0.169150 0.405330 -0.521357
O4    O     O_R   0.588350 0.669150 0.594670 -0.521357
C1    C     C_R   0.385144 0.345716 0.382638 0.753278
C2    C     C_R   0.614856 0.845716 0.617362 0.753279
O5    O     O_R   0.560140 0.175610 0.430010 -0.530648
O6    O     O_R   0.439860 0.675610 0.569990 -0.530648
O7    O     O_R   0.587240 0.012100 0.585200 -0.527404
O8    O     O_R   0.412760 0.512100 0.414800 -0.527404
C3    C     C_R   0.579290 0.344603 0.412951 0.767543
C4    C     C_R   0.420710 0.844603 0.587049 0.767541
O9    O     O_3   0.508720 0.341420 0.550890 -0.355075
O10   O     O_3   0.491280 0.841420 0.449110 -0.355074
V1    V     V_3+5 0.498380 0.063930 0.490560 1.651562
V2    V     V_3+5 0.501620 0.563930 0.509440 1.651562
C5    C     C_R   0.179312 0.760531 0.876271 -0.131049
C6    C     C_R   0.820687 0.260531 0.123729 -0.131049
C7    C     C_R   0.132088 0.915293 0.867445 -0.079252
C8    C     C_R   0.867912 0.415293 0.132555 -0.079252
C9    C     C_R   0.133983 0.057167 0.813080 -0.210289
C10   C     C_R   0.866017 0.557167 0.186920 -0.210289
C11   C     C_R   0.181440 0.043093 0.767126 0.122089
C12   C     C_R   0.818560 0.543093 0.232874 0.122089
C13   C     C_R   0.229290 0.887752 0.777063 0.090162
C14   C     C_R   0.770710 0.387752 0.222937 0.090162
C15   C     C_R   0.228133 0.747227 0.832172 0.019143
C16   C     C_R   0.771867 0.247227 0.167827 0.019143
C17   C     C_R   0.181437 0.181123 0.710964 -0.174982
C18   C     C_R   0.818563 0.681123 0.289036 -0.174982
C19   C     C_R   0.227694 0.164946 0.664524 -0.101168
C20   C     C_R   0.772306 0.664946 0.335476 -0.101168
C21   C     C_R   0.276195 0.012810 0.674691 0.145870
C22   C     C_R   0.723805 0.512810 0.325309 0.145870
C23   C     C_R   0.278063 0.873198 0.731828 -0.034181
C24   C     C_R   0.721937 0.373198 0.268172 -0.034181
C25   C     C_R   0.328558 0.720980 0.744132 -0.080943
C26   C     C_R   0.671442 0.220980 0.255868 -0.080943
C27   C     C_R   0.324568 0.577946 0.799079 0.444466
C28   C     C_R   0.675432 0.077946 0.200921 0.444466
C29   C     C_R   0.275029 0.593612 0.841903 -0.209914
C30   C     C_R   0.724971 0.093612 0.158097 -0.209913
C31   C     C_R   0.322291 0.998905 0.627934 -0.172757
C32   C     C_R   0.677709 0.498905 0.372066 -0.172756
C33   C     C_R   0.373725 0.853560 0.639602 -0.161235
C34   C     C_R   0.626275 0.353560 0.360398 -0.161235
C35   C     C_R   0.380099 0.720414 0.701063 0.385427
C36   C     C_R   0.619901 0.220414 0.298937 0.385427
H1    H     H_    0.178873 0.650960 0.918504 0.144102
H2    H     H_    0.821127 0.150960 0.081496 0.144102
H3    H     H_    0.226204 0.273199 0.621149 0.129026
H4    H     H_    0.773796 0.773198 0.378851 0.129027
H5    H     H_    0.272638 0.482781 0.882858 0.174514
H6    H     H_    0.727362 0.982781 0.117142 0.174514
C37   C     C_3   0.797877 0.703142 0.785188 -0.446354
C38   C     C_3   0.202123 0.203142 0.214812 -0.446353
H7    H     H_    0.789850 0.621374 0.835256 0.209860
H8    H     H_    0.210150 0.121374 0.164744 0.209860
C39   C     C_3   0.728641 0.678103 0.710027 0.231626
C40   C     C_3   0.271359 0.178103 0.289973 0.231627
H9    H     H_    0.744474 0.982369 0.609097 0.158483
H10   H     H_    0.255526 0.482369 0.390903 0.158483
C41   C     C_3   0.815470 0.015807 0.733098 0.298835
C42   C     C_3   0.184530 0.515807 0.266902 0.298835
C43   C     C_3   0.744700 0.980526 0.833986 0.273110
C44   C     C_3   0.255300 0.480526 0.166014 0.273109
C45   C     C_3   0.812629 0.913883 0.810304 -0.195893
C46   C     C_3   0.187371 0.413883 0.189696 -0.195893
H11   H     H_    0.744248 0.898975 0.887420 0.070735
H12   H     H_    0.255752 0.398975 0.112580 0.070735
C47   C     C_3   0.686138 0.866706 0.688267 -0.210953
C48   C     C_3   0.313861 0.366706 0.311733 -0.210954
C49   C     C_3   0.738269 0.013033 0.668211 -0.270600
C50   C     C_3   0.261730 0.513033 0.331789 -0.270600
C51   C     C_3   0.670470 0.936647 0.765364 0.183969
C52   C     C_3   0.329530 0.436647 0.234636 0.183969
H13   H     H_    0.642826 0.820145 0.786303 0.113888
H14   H     H_    0.357174 0.320145 0.213697 0.113887
H15   H     H_    0.712940 0.154383 0.663283 0.245894
H16   H     H_    0.287060 0.654383 0.336717 0.245894
O11   O     O_R   0.087220 0.271820 0.085230 -0.556417
O12   O     O_R   0.912780 0.771820 0.914770 -0.556417
O13   O     O_R   0.939860 0.595540 0.069990 -0.543964
O14   O     O_R   0.060140 0.095540 0.930010 -0.543964
C53   C     C_R   0.918662 0.426577 0.084709 0.716476
C54   C     C_R   0.081338 0.926577 0.915291 0.716477
O15   O     O_R   0.088340 0.601930 0.094680 -0.478216
O16   O     O_R   0.911660 0.101930 0.905320 -0.478217
O17   O     O_R   0.062310 0.765410 0.939660 -0.541400
O18   O     O_R   0.937690 0.265410 0.060340 -0.541400
C55   C     C_R   0.115384 0.431757 0.118771 0.748590
C56   C     C_R   0.884616 0.931757 0.881229 0.748589
O19   O     O_3   0.991270 0.429630 0.949130 -0.365902
O20   O     O_3   0.008730 0.929630 0.050870 -0.365902
V3    V     V_3+5 0.001620 0.707150 0.009440 1.552798
V4    V     V_3+5 0.998380 0.207150 0.990560 1.552798
H17   H     H_    0.692368 0.571161 0.723844 0.184765
H18   H     H_    0.307632 0.071161 0.276156 0.184765
Cl1   Cl    Cl    0.753786 0.588159 0.627466 -0.641484
Cl2   Cl    Cl    0.246214 0.088158 0.372534 -0.641484
H19   H     H_    0.854195 0.937775 0.709470 0.121514
H20   H     H_    0.145805 0.437775 0.290529 0.121514
Cl3   Cl    Cl    0.753572 0.220175 0.867225 -0.546046
Cl4   Cl    Cl    0.246428 0.720175 0.132775 -0.546046
Cl5   Cl    Cl    0.604830 0.125657 0.747175 -0.463938
Cl6   Cl    Cl    0.395170 0.625657 0.252825 -0.463938
Cl7   Cl    Cl    0.851467 0.248603 0.747259 -0.577576
Cl8   Cl    Cl    0.148533 0.748603 0.252741 -0.577576
H21   H     H_    0.097552 0.176661 0.805383 0.140569
H22   H     H_    0.902448 0.676661 0.194616 0.140569
H23   H     H_    0.145253 0.301202 0.702527 0.130351
H24   H     H_    0.854747 0.801202 0.297473 0.130351
H25   H     H_    0.318345 0.103151 0.582191 0.162896
H26   H     H_    0.681655 0.603150 0.417809 0.162896
Cl9   Cl    Cl    0.460681 0.580327 0.731277 -0.475340
Cl10  Cl    Cl    0.539319 0.080327 0.268723 -0.475339
Cl11  Cl    Cl    0.373272 0.364458 0.813659 -0.496100
Cl12  Cl    Cl    0.626729 0.864458 0.186341 -0.496101
H27   H     H_    0.847078 0.643354 0.773922 0.258363
H28   H     H_    0.152922 0.143354 0.226078 0.258363

loop_
_geom_bond_atom_site_label_1
_geom_bond_atom_site_label_2
_ccdc_geom_bond_type
C44   C46   S    
O16   V4    S    
O4    V2    S    
O15   C55   A    
C39   Cl1   S    
C28   Cl12  S    
O1    C3    A    
C48   C52   S    
C7    C54   S    
O2    C4    A    
C2    O7    A    
C27   C29   A    
C37   H27   S    
C35   Cl9   S    
C11   C17   A    
C23   C25   A    
C12   C14   A    
C1    C48   S    
C37   C39   S    
C40   C48   S    
C46   C55   S    
O12   C56   A    
C6    C8    A    
O14   V4    S    
C20   H4    S    
C40   H18   S    
C5    C7    A    
O16   C56   A    
C43   C45   S    
O15   V3    S    
C19   C21   A    
C25   C35   A    
C26   C36   A    
C41   H19   S    
C36   Cl10  S    
O5    V1    S    
C32   H26   S    
O6    V2    S    
C50   H16   S    
C28   C30   A    
C38   H28   S    
C32   C34   A    
C42   Cl8   S    
C34   C36   A    
C33   C35   A    
C2    C47   S    
C41   C45   S    
C47   C51   S    
C5    C15   A    
C44   Cl4   S    
C6    C16   A    
C48   C50   S    
C5    H1    S    
C47   C49   S    
O11   V4    S    
C41   C49   S    
C10   H22   S    
C20   C22   A    
C38   C46   S    
C38   C40   S    
C18   H24   S    
C21   C31   A    
O17   V3    S    
C42   H20   S    
C18   C20   A    
C19   H3    S    
C51   H13   S    
C15   C29   A    
O5    C3    A    
O6    C4    A    
O13   V3    S    
C8    C53   S    
O3    C1    A    
C49   H15   S    
C22   C32   A    
O1    V2    S    
O2    V1    S    
C31   C33   A    
C29   H5    S    
C13   C23   A    
C14   C24   A    
O13   C53   A    
C8    C10   A    
C51   Cl5   S    
O19   V4    S    
C9    C11   A    
C39   H17   S    
C10   C12   A    
O4    C2    A    
C43   Cl3   S    
C41   Cl7   S    
C24   C26   A    
C42   C46   S    
O3    V1    S    
C6    H2    S    
C52   Cl6   S    
O12   V3    S    
C7    C9    A    
C17   H23   S    
H10   C50   S    
C52   H14   S    
C4    C33   S    
C40   Cl2   S    
C54   O17   A    
C37   C45   S    
C53   O18   A    
O18   V4    S    
C13   C15   A    
C14   C16   A    
C43   C51   S    
H9    C49   S    
C37   H7    S    
O7    V1    S    
C1    O8    A    
C25   C27   A    
C27   Cl11  S    
C31   H25   S    
C26   C28   A    
C44   H12   S    
C43   H11   S    
C16   C30   A    
C45   C56   S    
C21   C23   A    
C38   H8    S    
C22   C24   A    
C11   C13   A    
O20   V3    S    
C12   C18   A    
O11   C55   A    
C17   C19   A    
O9    V2    S    
C42   C50   S    
O10   V1    S    
O14   C54   A    
C3    C34   S    
O8    V2    S    
C30   H6    S    
C44   C52   S    
C39   C47   S    
C9    H21   S    
