data_mof_unit_45902.cif
_audit_creation_date              2012-12-10T17:00:02-0500
_audit_creation_method            fapswitch 2.2
_symmetry_space_group_name_H-M    P1
_symmetry_Int_Tables_number       1
_space_group_crystal_system       triclinic
_cell_length_a                    23.531319
_cell_length_b                    10.93551
_cell_length_c                    9.669806
_cell_angle_alpha                 89.193827
_cell_angle_beta                  89.950983
_cell_angle_gamma                 90.174825
_cell_volume                      2488.04302564

loop_
_atom_site_label
_atom_site_type_symbol
_atom_type_description
_atom_site_fract_x
_atom_site_fract_y
_atom_site_fract_z
_atom_type_partial_charge
C1    C     C_R   0.498832 0.265325 0.500992 0.882895
C2    C     C_R   0.970654 0.307298 0.368582 0.490845
C3    C     C_R   0.029888 0.311576 0.365544 -0.230637
C4    C     C_R   0.059771 0.403429 0.434165 -0.087201
C5    C     C_R   0.029712 0.494100 0.505605 -0.018127
C6    C     C_R   0.059888 0.585687 0.575312 -0.050869
C7    C     C_R   0.030166 0.675822 0.646414 -0.135645
C8    C     C_R   0.970932 0.676959 0.649434 0.146411
C9    C     C_R   0.119419 0.405802 0.434561 0.561501
C10   C     C_R   0.119531 0.585429 0.571768 0.541017
C11   C     C_R   0.238751 0.513207 0.377068 -0.098514
C12   C     C_R   0.390918 0.499748 0.500113 0.799193
C13   C     C_R   0.298012 0.513856 0.376312 -0.216888
C14   C     C_R   0.328355 0.498872 0.500506 -0.041524
C15   C     C_R   0.298364 0.482741 0.625230 -0.212337
C16   C     C_R   0.239134 0.481362 0.625606 -0.099005
C17   C     C_R   0.209049 0.496834 0.501654 0.344880
C18   C     C_R   0.760755 0.418029 0.592414 0.372516
C19   C     C_R   0.700876 0.425109 0.597494 0.263252
C20   C     C_R   0.671650 0.499478 0.500179 -0.225197
C21   C     C_R   0.702899 0.574074 0.406134 0.058504
C22   C     C_R   0.762052 0.570984 0.407847 -0.159357
C23   C     C_R   0.499474 0.734928 0.498551 0.841940
C24   C     C_R   0.790891 0.493885 0.499791 0.191235
C25   C     C_2   0.485948 0.937106 0.385162 0.189498
C26   C     C_2   0.501849 0.867446 0.495427 -0.359820
C27   C     C_2   0.491789 0.070225 0.387504 -0.129441
C28   C     C_2   0.494115 0.133584 0.504720 -0.376133
C29   C     C_2   0.467601 0.428449 0.923232 -0.072487
C30   C     C_2   0.470040 0.423676 0.079068 -0.060733
C31   C     C_R   0.609020 0.500510 0.499920 0.876523
C32   C     C_R   0.879472 0.581325 0.576063 0.577579
C33   C     C_R   0.880268 0.409343 0.426393 0.564664
C34   C     C_R   0.939838 0.402243 0.433202 -0.133770
C35   C     C_R   0.969593 0.493824 0.506120 -0.098625
C36   C     C_R   0.939531 0.585526 0.578367 -0.048669
Cu1   Cu    Cu3+1 0.500010 0.500020 0.638630 0.947868
Cu2   Cu    Cu3+1 0.499990 0.499980 0.361370 0.922997
H1    H     H_    0.786001 0.629540 0.337588 0.177416
H2    H     H_    0.519066 0.908061 0.587939 0.133705
H3    H     H_    0.492381 0.117514 0.287868 0.178010
H4    H     H_    0.489944 0.090331 0.605721 0.153344
H5    H     H_    0.437864 0.367686 0.872743 0.152679
H6    H     H_    0.529850 0.551350 0.893257 0.191566
H7    H     H_    0.444868 0.353953 0.131620 0.155283
H8    H     H_    0.052362 0.240375 0.311365 0.205541
H9    H     H_    0.520623 0.569262 0.104724 0.186492
H10   H     H_    0.052934 0.746825 0.700698 0.196704
H11   H     H_    0.215842 0.525804 0.280867 0.148206
H12   H     H_    0.319999 0.526765 0.278734 0.161674
H13   H     H_    0.320607 0.470460 0.722421 0.158715
H14   H     H_    0.216531 0.468011 0.722266 0.147511
N1    N     N_R   0.851793 0.494694 0.500881 -0.425247
N2    N     N_R   0.148023 0.496106 0.502459 -0.464020
N3    N     N_2   0.499380 0.498660 0.846910 -0.285786
N4    N     N_2   0.499370 0.498630 0.153040 -0.287126
O1    O     O_R   0.500010 0.321960 0.617040 -0.575170
O2    O     O_2   0.850738 0.333432 0.344229 -0.536262
O3    O     O_2   0.148633 0.317824 0.368904 -0.539718
O4    O     O_2   0.148851 0.674398 0.635992 -0.541808
O5    O     O_R   0.499990 0.321920 0.382900 -0.580073
O6    O     O_R   0.417890 0.499980 0.617100 -0.576863
O7    O     O_R   0.417870 0.499940 0.382950 -0.578828
O8    O     O_R   0.500010 0.678080 0.617100 -0.573170
O9    O     O_R   0.499990 0.678040 0.382960 -0.588487
O10   O     O_R   0.582130 0.500060 0.617050 -0.559447
O11   O     O_R   0.582110 0.500020 0.382900 -0.588639
O12   O     O_2   0.848412 0.662555 0.647190 -0.566792
O13   O     O_3   0.943955 0.211732 0.302107 -0.565644
C37   C     C_3   0.925884 0.122184 0.400320 0.119783
H15   H     H_    0.887289 0.078130 0.357229 0.156987
H16   H     H_    0.911942 0.161254 0.500714 0.128015
C38   C     C_3   0.970972 0.022059 0.421757 -0.410585
H17   H     H_    0.949603 0.931246 0.426353 0.193061
H18   H     H_    0.000961 0.021236 0.332901 0.248906
C39   C     C_3   0.004139 0.037890 0.556132 -0.812511
H19   H     H_    0.027217 0.126366 0.556166 0.260787
H20   H     H_    0.035597 0.962961 0.567405 0.264243
H21   H     H_    0.974833 0.034026 0.646220 0.252569
O14   O     O_3   0.670490 0.351448 0.688986 -0.609501
C40   C     C_3   0.672842 0.402160 0.822484 0.112255
H22   H     H_    0.657156 0.498296 0.820885 0.142871
H23   H     H_    0.716981 0.400713 0.863582 0.184726
C41   C     C_3   0.635195 0.325833 0.919600 -0.350728
H24   H     H_    0.591150 0.323554 0.878296 0.245068
H25   H     H_    0.651424 0.230518 0.924888 0.222100
C42   C     C_3   0.634196 0.378340 0.064910 -0.885288
H26   H     H_    0.677637 0.378918 0.109807 0.264641
H27   H     H_    0.606152 0.321544 0.132463 0.272462
H28   H     H_    0.617456 0.473078 0.061566 0.239426
N5    N     N_3   0.675915 0.658400 0.312498 -0.574812
H29   H     H_    0.652896 0.609251 0.239601 0.241959
H30   H     H_    0.648012 0.713311 0.368273 0.218811
N6    N     N_3   0.463487 0.886529 0.260043 -0.583228
H31   H     H_    0.495281 0.837564 0.209754 0.237867
H32   H     H_    0.428979 0.829515 0.283869 0.239958
N7    N     N_3   0.944754 0.773686 0.724646 -0.591772
H33   H     H_    0.920478 0.736318 0.805404 0.268632
H34   H     H_    0.919317 0.825116 0.657299 0.252337
O15   O     O_3   0.790678 0.346583 0.686389 -0.605061
C43   C     C_3   0.787114 0.222578 0.648289 0.054711
H35   H     H_    0.802146 0.209939 0.540294 0.165321
H36   H     H_    0.742739 0.188102 0.657368 0.186280
C44   C     C_3   0.824615 0.146787 0.745531 -0.347358
H37   H     H_    0.869200 0.180223 0.738501 0.225877
H38   H     H_    0.809707 0.158045 0.853727 0.243099
C45   C     C_3   0.822874 0.011345 0.709804 -0.889290
H39   H     H_    0.778692 0.975760 0.717064 0.267673
H40   H     H_    0.849798 0.959130 0.783889 0.271495
H41   H     H_    0.839287 0.997214 0.603518 0.246110

loop_
_geom_bond_atom_site_label_1
_geom_bond_atom_site_label_2
_ccdc_geom_bond_type
C31   O10   A    
C42   H26   S    
C33   O2    S    
C45   H40   S    
C38   H17   S    
C30   H7    S    
C19   C20   A    
C39   H21   S    
C40   C41   S    
C44   H38   S    
C40   H22   S    
C7    C8    A    
C31   O11   A    
C43   H35   S    
C18   C24   A    
C32   C36   A    
C39   H20   S    
C18   C19   A    
C5    C6    A    
C15   C16   A    
C34   C35   A    
C8    C36   A    
C23   C26   S    
C40   H23   S    
C35   C36   A    
C16   C17   A    
C1    C28   S    
C45   H39   S    
C41   C42   S    
C37   H15   S    
C15   H13   S    
C2    O13   S    
C32   O12   S    
Cu2   O5    S    
C2    C34   A    
C25   N6    S    
C43   H36   S    
C21   C22   A    
C29   H5    S    
C38   H18   S    
O13   C37   S    
C18   O15   S    
C44   H37   S    
N7    H34   S    
N7    H33   S    
C33   N1    A    
C39   H19   S    
C19   O14   S    
N5    H29   S    
C12   O7    A    
O14   C40   S    
C29   N3    D    
C24   N1    S    
C30   N4    D    
C9    O3    S    
C10   O4    S    
C8    N7    S    
Cu1   Cu2   S    
C11   H11   S    
C1    O1    A    
N5    H30   S    
C12   O6    A    
C27   H3    S    
Cu2   O9    S    
Cu1   O10   S    
C37   C38   S    
C33   C34   A    
C41   H24   S    
N6    H32   S    
C23   O8    A    
C12   C14   S    
C43   C44   S    
C42   H27   S    
C38   C39   S    
C22   C24   A    
C3    C4    A    
Cu2   O11   S    
C32   N1    A    
Cu1   O8    S    
Cu2   O7    S    
C21   N5    S    
C11   C17   A    
C16   H14   S    
C41   H25   S    
C4    C5    A    
C1    O5    A    
C6    C10   A    
C6    C7    A    
C25   C27   S    
C3    H8    S    
C7    H10   S    
C23   O9    A    
C2    C3    A    
C25   C26   D    
C11   C13   A    
H6    N3    S    
C26   H2    S    
C22   H1    S    
C5    C35   A    
C28   H4    S    
O15   C43   S    
C45   H41   S    
N6    H31   S    
C10   N2    A    
C29   C30   S    
C13   H12   S    
Cu1   N3    S    
Cu2   N4    S    
C20   C21   A    
C42   H28   S    
C27   C28   D    
Cu1   O6    S    
C14   C15   A    
C37   H16   S    
C9    N2    A    
C4    C9    A    
C13   C14   A    
C17   N2    S    
C44   C45   S    
Cu1   O1    S    
H9    N4    S    
C20   C31   S    
