data_mof_unit_29699.cif
_audit_creation_date              2012-12-10T17:56:42-0500
_audit_creation_method            fapswitch 2.2
_symmetry_space_group_name_H-M    P1
_symmetry_Int_Tables_number       1
_space_group_crystal_system       triclinic
_cell_length_a                    10.865893
_cell_length_b                    9.540934
_cell_length_c                    10.875778
_cell_angle_alpha                 89.674301
_cell_angle_beta                  89.276922
_cell_angle_gamma                 90.652804
_cell_volume                      1127.31814337

loop_
_atom_site_label
_atom_site_type_symbol
_atom_type_description
_atom_site_fract_x
_atom_site_fract_y
_atom_site_fract_z
_atom_type_partial_charge
C1    C     C_R   0.262354 0.499253 0.504281 0.809445
C2    C     C_R   0.737846 0.501375 0.504955 0.785507
C3    C     C_R   0.937215 0.610810 0.579185 0.136070
C4    C     C_R   0.066883 0.601093 0.587192 0.110665
C5    C     C_R   0.424540 0.073824 0.423866 -0.011518
C6    C     C_R   0.570579 0.074780 0.580689 0.027859
C7    C     C_R   0.426347 0.925194 0.422063 -0.006883
C8    C     C_R   0.568536 0.926214 0.582289 -0.037889
C9    C     C_R   0.513120 0.501893 0.262502 0.817004
C10   C     C_R   0.495173 0.500499 0.738168 0.775342
C11   C     C_R   0.532380 0.769467 0.113603 -0.224669
C12   C     C_R   0.416675 0.748471 0.889451 -0.252553
C13   C     C_R   0.483858 0.889885 0.060452 -0.031118
C14   C     C_R   0.417453 0.877163 0.950593 -0.030047
C15   C     C_R   0.474283 0.629325 0.939553 0.087907
C16   C     C_R   0.512135 0.636328 0.062182 0.076230
C17   C     C_R   0.530333 0.509841 0.127824 -0.134794
C18   C     C_R   0.497132 0.504104 0.872894 -0.115536
C19   C     C_R   0.553802 0.388289 0.061783 -0.144866
C20   C     C_R   0.542164 0.386734 0.935087 -0.131371
C21   C     C_R   0.062664 0.395921 0.453607 -0.210751
C22   C     C_R   0.935782 0.397165 0.454590 -0.219822
C23   C     C_R   0.872078 0.504825 0.513381 -0.080948
C24   C     C_R   0.128603 0.498548 0.516353 -0.088927
Cu1   Cu    Cu3+1 0.500000 0.640660 0.500000 0.931265
Cu2   Cu    Cu3+1 0.500000 0.359340 0.500000 0.961643
H1    H     H_    0.585059 0.295994 0.107865 0.183847
H2    H     H_    0.568983 0.293499 0.885871 0.195751
H3    H     H_    0.587693 0.781296 0.194802 0.206573
H4    H     H_    0.369824 0.743691 0.803539 0.167919
H5    H     H_    0.109697 0.315572 0.401627 0.164699
H6    H     H_    0.887118 0.316337 0.404399 0.167310
H7    H     H_    0.363922 0.129396 0.362991 0.161405
H8    H     H_    0.627556 0.130862 0.645234 0.125280
H9    H     H_    0.367894 0.869033 0.358893 0.130410
H10   H     H_    0.621725 0.870998 0.649798 0.135454
N1    N     N_R   0.500000 0.852070 0.500000 -0.168535
N2    N     N_R   0.500000 0.147940 0.500000 -0.173603
O1    O     O_R   0.319640 0.618740 0.499990 -0.575519
O2    O     O_R   0.680360 0.618740 0.500010 -0.582294
O3    O     O_R   0.319620 0.381170 0.499990 -0.579697
O4    O     O_R   0.680380 0.381170 0.500010 -0.594360
O5    O     O_R   0.500000 0.618810 0.319650 -0.593485
O6    O     O_R   0.500000 0.618810 0.680350 -0.606186
O7    O     O_R   0.499970 0.381240 0.319640 -0.575758
O8    O     O_R   0.500030 0.381240 0.680360 -0.559318
C25   C     C_2   0.499299 0.022928 0.127519 0.790597
O9    O     O_2   0.419051 0.111603 0.125448 -0.598295
O10   O     O_R   0.604325 0.042828 0.199049 -0.787705
H11   H     H_    0.602475 0.131326 0.249796 0.334327
C26   C     C_2   0.352796 0.995889 0.894220 0.876921
O11   O     O_2   0.410244 0.100535 0.861402 -0.609960
O12   O     O_R   0.225716 0.987056 0.877559 -0.767937
H12   H     H_    0.191557 0.074545 0.837854 0.330846
C27   C     C_3   0.871402 0.735611 0.636295 -0.380846
C28   C     C_3   0.863960 0.857335 0.543993 -0.777231
H13   H     H_    0.954493 0.879002 0.499543 0.247202
H14   H     H_    0.798031 0.834224 0.469812 0.276494
H15   H     H_    0.834418 0.953764 0.592164 0.216119
H16   H     H_    0.779404 0.705495 0.673145 0.198183
H17   H     H_    0.917271 0.775170 0.719287 0.197524
C29   C     C_3   0.139432 0.691279 0.676889 -0.365107
C30   C     C_3   0.170397 0.837198 0.624533 -0.706311
H18   H     H_    0.261376 0.873462 0.657493 0.244448
H19   H     H_    0.174594 0.836559 0.522465 0.237154
H20   H     H_    0.100809 0.914040 0.655187 0.242215
H21   H     H_    0.092214 0.698887 0.767487 0.193255
H22   H     H_    0.224970 0.637141 0.701869 0.180970

loop_
_geom_bond_atom_site_label_1
_geom_bond_atom_site_label_2
_ccdc_geom_bond_type
C10   O8    A    
C15   C18   A    
C26   O12   S    
C27   C28   S    
C6    N2    A    
C9    O7    A    
C29   C30   S    
C4    C29   S    
C19   H1    S    
C11   C16   A    
C3    C23   A    
C19   C20   A    
C1    C24   S    
C12   C15   A    
C29   H22   S    
Cu1   N1    S    
C21   C22   A    
Cu1   O5    S    
C30   H19   S    
C7    N1    A    
C30   H20   S    
C26   O11   D    
C25   O10   S    
Cu2   O3    S    
C13   C14   A    
Cu1   O1    S    
C11   C13   A    
Cu2   O4    S    
C21   H5    S    
C22   H6    S    
C29   H21   S    
C2    O4    A    
C27   H17   S    
Cu1   O6    S    
C1    O3    A    
C17   C19   A    
C10   C18   S    
C18   C20   A    
C28   H14   S    
Cu1   O2    S    
C4    C24   A    
C9    O5    A    
C8    N1    A    
Cu2   O8    S    
C30   H18   S    
C10   O6    A    
C15   C16   A    
C25   O9    D    
C2    O2    A    
C5    N2    A    
C28   H13   S    
C11   H3    S    
C14   C26   S    
C13   C25   S    
O10   H11   S    
C8    H10   S    
C21   C24   A    
C9    C17   S    
C2    C23   S    
C5    C7    A    
C28   H15   S    
C1    O1    A    
C22   C23   A    
Cu2   N2    S    
C6    C8    A    
C20   H2    S    
Cu2   O7    S    
C12   H4    S    
Cu1   Cu2   S    
C27   H16   S    
C7    H9    S    
C3    C4    A    
C6    H8    S    
O12   H12   S    
C12   C14   A    
C16   C17   A    
C3    C27   S    
C5    H7    S    
