data_mof_unit_16808.cif
_audit_creation_date              2012-12-11T14:54:23-0500
_audit_creation_method            fapswitch 2.2
_symmetry_space_group_name_H-M    P1
_symmetry_Int_Tables_number       1
_space_group_crystal_system       triclinic
_cell_length_a                    18.914961
_cell_length_b                    11.011972
_cell_length_c                    18.674712
_cell_angle_alpha                 89.756747
_cell_angle_beta                  89.833521
_cell_angle_gamma                 89.737665
_cell_volume                      3889.68279885

loop_
_atom_site_label
_atom_site_type_symbol
_atom_type_description
_atom_site_fract_x
_atom_site_fract_y
_atom_site_fract_z
_atom_type_partial_charge
C1    C     C_R   0.731945 0.381236 0.647944 0.609665
C2    C     C_R   0.242680 0.873998 0.451007 -0.056133
C3    C     C_R   0.958920 0.557034 0.474936 -0.165705
C4    C     C_3   0.603416 0.785005 0.088859 -0.005359
C5    C     C_3   0.573411 0.703376 0.147469 -0.324666
C6    C     C_3   0.396238 0.847887 0.900265 -0.000123
C7    C     C_3   0.432271 0.853904 0.827280 -0.300481
C8    C     C_3   0.089904 0.382690 0.121172 0.002133
C9    C     C_3   0.051996 0.298368 0.173441 -0.331015
C10   C     C_3   0.911054 0.263645 0.949722 -0.029873
C11   C     C_3   0.959577 0.229481 0.887643 -0.359026
C12   C     C_3   0.447549 0.468722 0.062444 0.042221
C13   C     C_R   0.182605 0.416512 0.530390 -0.129969
C14   C     C_3   0.469286 0.580310 0.018491 -0.373489
C15   C     C_3   0.430025 0.382793 0.876804 0.008675
C16   C     C_3   0.442284 0.472926 0.815839 -0.312980
C17   C     C_3   0.977665 0.983932 0.061262 0.014377
C18   C     C_3   0.039142 0.066857 0.041859 -0.343541
C19   C     C_3   0.934869 0.917832 0.876100 -0.010858
C20   C     C_3   0.956508 0.954878 0.800222 -0.315259
C21   C     C_R   0.742741 0.373982 0.451011 -0.056376
C22   C     C_R   0.691139 0.888104 0.458486 -0.181077
C23   C     C_R   0.236384 0.839469 0.521673 -0.162818
C24   C     C_R   0.191143 0.388070 0.458486 -0.181432
C25   C     C_R   0.736454 0.339482 0.521683 -0.162738
C26   C     C_R   0.746258 0.940600 0.418817 0.009354
C27   C     C_R   0.251796 0.920555 0.576579 0.018513
C28   C     C_R   0.246246 0.440600 0.418811 0.009107
C29   C     C_R   0.268720 0.381701 0.352320 0.546472
C30   C     C_R   0.751795 0.420629 0.576580 0.020163
C31   C     C_R   0.788497 0.033151 0.450623 0.202978
C32   C     C_R   0.275390 0.038697 0.560513 0.189031
C33   C     C_R   0.288474 0.533166 0.450615 0.203080
C34   C     C_R   0.775274 0.538846 0.560484 0.191184
C35   C     C_R   0.782963 0.051733 0.523553 -0.127362
C36   C     C_R   0.283384 0.072374 0.488392 -0.154283
C37   C     C_R   0.282940 0.551757 0.523545 -0.127381
C38   C     C_R   0.783285 0.572466 0.488359 -0.154035
C39   C     C_R   0.731131 0.993521 0.563850 0.007344
C40   C     C_R   0.231941 0.881207 0.647941 0.613949
C41   C     C_R   0.267229 0.989253 0.434192 0.002892
C42   C     C_R   0.231135 0.493495 0.563850 0.005967
C43   C     C_R   0.767225 0.489268 0.434181 0.003042
C44   C     C_R   0.518423 0.056975 0.967984 -0.185880
C45   C     C_R   0.510301 0.059290 0.040096 -0.215472
C46   C     C_R   0.959584 0.566905 0.948366 -0.176029
C47   C     C_R   0.941905 0.566217 0.019944 -0.210405
C48   C     C_R   0.497227 0.168160 0.075075 0.008299
C49   C     C_R   0.509043 0.162522 0.927231 0.004477
C50   C     C_R   0.954115 0.667073 0.062209 -0.010349
C51   C     C_R   0.768726 0.881691 0.352327 0.548958
C52   C     C_R   0.986641 0.670826 0.916806 -0.013043
C53   C     C_R   0.494257 0.278571 0.036110 0.272304
C54   C     C_R   0.493569 0.274222 0.960652 0.236164
C55   C     C_R   0.975382 0.777953 0.030041 0.267245
C56   C     C_R   0.984054 0.781458 0.954492 0.241751
C57   C     C_R   0.530552 0.155985 0.647604 0.554723
C58   C     C_R   0.463606 0.153710 0.356022 0.532823
C59   C     C_R   0.030555 0.655991 0.647597 0.552926
C60   C     C_R   0.963620 0.653712 0.356015 0.539218
C61   C     C_R   0.775323 0.031030 0.973865 -0.190423
C62   C     C_3   0.554778 0.346791 0.453176 -0.285092
C63   C     C_R   0.185282 0.866727 0.056359 -0.143488
C64   C     C_R   0.273002 0.565819 0.982339 -0.182438
C65   C     C_R   0.677534 0.414212 0.050049 -0.110327
C66   C     C_R   0.778758 0.015290 0.046531 -0.200356
C67   C     C_R   0.174182 0.837068 0.985201 -0.182644
C68   C     C_R   0.279005 0.539527 0.054649 -0.193600
C69   C     C_R   0.669132 0.391410 0.978281 -0.176344
C70   C     C_R   0.747883 0.913276 0.076705 0.027331
C71   C     C_R   0.226768 0.859892 0.934220 0.033526
C72   C     C_R   0.240981 0.442890 0.084276 0.014659
C73   C     C_3   0.557516 0.361216 0.533534 -0.269896
C74   C     C_R   0.727247 0.359767 0.935996 0.034583
C75   C     C_R   0.706658 0.833549 0.034050 0.254912
C76   C     C_R   0.293069 0.905003 0.954726 0.263213
C77   C     C_R   0.183805 0.394140 0.045317 0.254953
C78   C     C_R   0.794977 0.342531 0.967037 0.253384
C79   C     C_R   0.707431 0.847383 0.960038 -0.107314
C80   C     C_R   0.304138 0.933348 0.026179 -0.120575
C81   C     C_R   0.178224 0.420717 0.972171 -0.093777
C82   C     C_R   0.800974 0.356129 0.041439 -0.144239
C83   C     C_R   0.744716 0.943885 0.930043 -0.026953
C84   C     C_3   0.054762 0.846822 0.453205 -0.284454
C85   C     C_R   0.249683 0.917022 0.076440 -0.014295
C86   C     C_R   0.226538 0.500706 0.939323 -0.035922
C87   C     C_R   0.744071 0.403156 0.081048 -0.007274
C88   C     C_R   0.727365 0.019652 0.640042 0.583361
C89   C     C_R   0.273213 0.022971 0.359707 0.549485
C90   C     C_R   0.227367 0.519643 0.640041 0.587834
C91   C     C_R   0.773212 0.522971 0.359701 0.552497
C92   C     C_R   0.713333 0.336326 0.860630 0.579742
C93   C     C_R   0.268220 0.382931 0.149292 0.548615
C94   C     C_R   0.211794 0.833252 0.860189 0.571380
C95   C     C_3   0.057454 0.861288 0.533564 -0.270296
C96   C     C_R   0.769520 0.877697 0.147742 0.550911
C97   C     C_R   0.533276 0.156479 0.853900 0.556288
C98   C     C_R   0.468728 0.157814 0.147096 0.554384
C99   C     C_R   0.028833 0.657900 0.851251 0.550881
C100  C     C_R   0.938426 0.654579 0.138914 0.572734
C101  C     C_R   0.740648 0.972865 0.855059 0.563217
C102  C     C_R   0.258464 0.969106 0.146545 0.563568
C103  C     C_R   0.226395 0.522567 0.861545 0.547097
C104  C     C_R   0.757498 0.466247 0.147772 0.574149
C105  C     C_R   0.477883 0.157365 0.431981 0.005912
C106  C     C_R   0.682585 0.916578 0.530383 -0.129016
C107  C     C_R   0.492158 0.167728 0.580695 0.074473
C108  C     C_R   0.977889 0.657375 0.431979 0.004590
C109  C     C_R   0.992136 0.667748 0.580699 0.073171
C110  C     C_R   0.492251 0.267231 0.465040 0.028148
C111  C     C_R   0.497616 0.273821 0.538885 0.043100
C112  C     C_R   0.992237 0.767247 0.465044 0.028059
C113  C     C_R   0.997576 0.773848 0.538894 0.042148
C114  C     C_R   0.465514 0.062444 0.548873 -0.110802
C115  C     C_R   0.458920 0.057021 0.474942 -0.164610
C116  C     C_R   0.965499 0.562464 0.548869 -0.109654
Cr1   Cr    Cr6+3 0.771950 0.169480 0.750100 1.033755
Cr2   Cr    Cr6+3 0.383410 0.010620 0.249390 1.063231
Cr3   Cr    Cr6+3 0.116590 0.510620 0.750610 1.031239
Cr4   Cr    Cr6+3 0.883410 0.510620 0.249390 1.041679
Cr5   Cr    Cr6+3 0.228050 0.169480 0.249900 1.020663
Cr6   Cr    Cr6+3 0.271950 0.669480 0.750100 0.993245
Cr7   Cr    Cr6+3 0.728050 0.669480 0.249900 1.010943
Cr8   Cr    Cr6+3 0.614930 0.323340 0.749170 1.023495
Cr9   Cr    Cr6+3 0.385070 0.323340 0.250830 1.085148
Cr10  Cr    Cr6+3 0.114930 0.823340 0.749170 1.019947
Cr11  Cr    Cr6+3 0.885070 0.823340 0.250830 1.094558
Cr12  Cr    Cr6+3 0.616590 0.010620 0.750610 1.014796
H1    H     H_    0.456639 0.980576 0.579946 0.160577
H2    H     H_    0.124429 0.797931 0.969489 0.152508
H3    H     H_    0.317891 0.587891 0.085761 0.135256
H4    H     H_    0.617616 0.404285 0.954849 0.197220
H5    H     H_    0.678390 0.784837 0.926633 0.144615
H6    H     H_    0.353436 0.975849 0.041346 0.136834
H7    H     H_    0.137378 0.376620 0.941304 0.149743
H8    H     H_    0.850864 0.340738 0.067769 0.101947
H9    H     H_    0.043148 0.932206 0.424041 0.180538
H10   H     H_    0.105869 0.824330 0.557809 0.157051
H11   H     H_    0.543145 0.432196 0.424036 0.180328
H12   H     H_    0.440664 0.972982 0.451591 0.190536
H13   H     H_    0.605930 0.324195 0.557751 0.156265
H14   H     H_    0.600443 0.295142 0.431146 0.131503
H15   H     H_    0.542290 0.453598 0.551966 0.150216
H16   H     H_    0.100439 0.795164 0.431211 0.131742
H17   H     H_    0.042189 0.953663 0.551977 0.150242
H18   H     H_    0.640391 0.873638 0.560340 0.139249
H19   H     H_    0.228344 0.810776 0.409247 0.169868
H20   H     H_    0.140431 0.373529 0.560354 0.139040
H21   H     H_    0.728445 0.310715 0.409260 0.169968
H22   H     H_    0.657324 0.819714 0.435244 0.147715
H23   H     H_    0.956632 0.480588 0.579935 0.163939
H24   H     H_    0.214574 0.751412 0.533753 0.084275
H25   H     H_    0.157334 0.319672 0.435242 0.147043
H26   H     H_    0.714689 0.251401 0.533774 0.083675
H27   H     H_    0.818539 0.114927 0.549142 0.167769
H28   H     H_    0.301401 0.162629 0.474273 0.137511
H29   H     H_    0.318499 0.614986 0.549130 0.167473
H30   H     H_    0.801233 0.662752 0.474217 0.137691
H31   H     H_    0.534522 0.971273 0.944761 0.147618
H32   H     H_    0.511610 0.973742 0.068231 0.130649
H33   H     H_    0.955972 0.485057 0.917913 0.196239
H34   H     H_    0.940676 0.472988 0.451582 0.190350
H35   H     H_    0.923621 0.484360 0.044489 0.138344
H36   H     H_    0.565619 0.788848 0.043487 0.104745
H37   H     H_    0.608321 0.877265 0.112876 0.122818
H38   H     H_    0.606642 0.707827 0.196198 0.184570
H39   H     H_    0.519248 0.734372 0.161762 0.091524
H40   H     H_    0.570891 0.608058 0.129284 0.175027
H41   H     H_    0.375909 0.754362 0.905875 0.109696
H42   H     H_    0.434917 0.862218 0.943702 0.108676
H43   H     H_    0.402074 0.800281 0.787598 0.148161
H44   H     H_    0.434150 0.948917 0.807624 0.224510
H45   H     H_    0.795361 0.112607 0.950805 0.161378
H46   H     H_    0.486629 0.815839 0.830812 0.087313
H47   H     H_    0.050028 0.430222 0.087589 0.146591
H48   H     H_    0.118137 0.451624 0.153945 0.133774
H49   H     H_    0.090208 0.234372 0.198541 0.179192
H50   H     H_    0.026371 0.352460 0.216409 0.143469
H51   H     H_    0.010233 0.246530 0.145734 0.111265
H52   H     H_    0.894601 0.180435 0.978121 0.094803
H53   H     H_    0.942368 0.316925 0.987957 0.111253
H54   H     H_    0.927713 0.191962 0.843311 0.170845
H55   H     H_    0.988127 0.309900 0.866805 0.155239
H56   H     H_    0.143557 0.853211 0.095337 0.179593
H57   H     H_    0.999365 0.161448 0.904942 0.122130
H58   H     H_    0.938052 0.017767 0.444472 0.327356
H59   H     H_    0.183032 0.192848 0.634641 0.321105
H60   H     H_    0.437973 0.517643 0.444433 0.327271
H61   H     H_    0.682700 0.692813 0.634443 0.322294
H62   H     H_    0.432984 0.501805 0.116446 0.180484
H63   H     H_    0.399826 0.425576 0.039051 0.137684
H64   H     H_    0.439388 0.584491 0.967731 0.135290
H65   H     H_    0.456388 0.664792 0.048124 0.070434
H66   H     H_    0.526697 0.578662 0.005915 0.203063
H67   H     H_    0.306543 0.634020 0.959654 0.114568
H68   H     H_    0.383051 0.411680 0.908300 0.149580
H69   H     H_    0.417691 0.293221 0.852527 0.152953
H70   H     H_    0.441725 0.567224 0.836582 0.110745
H71   H     H_    0.494075 0.455586 0.789677 0.175365
H72   H     H_    0.400502 0.463347 0.774703 0.170554
H73   H     H_    0.953910 0.017705 0.111880 0.157646
H74   H     H_    0.935047 0.989095 0.020740 0.131623
H75   H     H_    0.066321 0.035073 0.992705 0.210896
H76   H     H_    0.019939 0.160614 0.032859 0.100184
H77   H     H_    0.078075 0.067705 0.086226 0.194698
H78   H     H_    0.632985 0.447585 0.080416 0.193591
H79   H     H_    0.907134 0.995339 0.901152 0.141939
H80   H     H_    0.894952 0.843653 0.871845 0.137391
H81   H     H_    0.006018 0.008661 0.800928 0.155646
H82   H     H_    0.963956 0.873647 0.766179 0.183325
H83   H     H_    0.914071 0.010119 0.775079 0.127768
H84   H     H_    0.807423 0.080281 0.078647 0.129826
O1    O     O_R   0.787510 0.042610 0.670410 -0.493956
O2    O     O_R   0.454250 0.051070 0.169440 -0.539400
O3    O     O_R   0.045750 0.551070 0.830560 -0.538248
O4    O     O_R   0.954250 0.551070 0.169440 -0.552586
O5    O     O_R   0.681210 0.959150 0.825320 -0.484705
O6    O     O_R   0.318790 0.959150 0.174680 -0.498331
O7    O     O_R   0.181210 0.459150 0.825320 -0.469716
O8    O     O_R   0.818790 0.459150 0.174680 -0.515838
O9    O     O_3   0.667820 0.167810 0.749960 -0.314372
O10   O     O_3   0.332180 0.167810 0.250040 -0.297960
O11   O     O_3   0.167820 0.667810 0.749960 -0.331954
O12   O     O_R   0.212490 0.042610 0.329590 -0.517776
O13   O     O_3   0.832180 0.667810 0.250040 -0.314612
O14   O     O_R   0.765670 0.292090 0.675090 -0.512667
O15   O     O_R   0.234330 0.292090 0.324910 -0.546202
O16   O     O_R   0.265670 0.792090 0.675090 -0.516983
O17   O     O_R   0.734330 0.792090 0.324910 -0.545088
O18   O     O_R   0.670220 0.409020 0.668560 -0.509031
O19   O     O_R   0.329780 0.409020 0.331440 -0.416100
O20   O     O_R   0.170220 0.909020 0.668560 -0.505649
O21   O     O_R   0.829780 0.909020 0.331440 -0.416360
O22   O     O_R   0.556580 0.251590 0.674980 -0.516496
O23   O     O_R   0.287510 0.542610 0.670410 -0.492441
O24   O     O_R   0.443420 0.251590 0.325020 -0.480996
O25   O     O_R   0.056580 0.751590 0.674980 -0.524532
O26   O     O_R   0.943420 0.751590 0.325020 -0.476418
O27   O     O_R   0.545890 0.049670 0.670030 -0.535528
O28   O     O_R   0.454110 0.049670 0.329970 -0.520182
O29   O     O_R   0.045890 0.549670 0.670030 -0.526048
O30   O     O_R   0.954110 0.549670 0.329970 -0.523226
O31   O     O_R   0.681340 0.957860 0.676500 -0.465894
O32   O     O_R   0.318660 0.957860 0.323500 -0.440404
O33   O     O_R   0.181340 0.457860 0.676500 -0.459127
O34   O     O_R   0.712490 0.542610 0.329590 -0.519854
O35   O     O_R   0.818660 0.457860 0.323500 -0.440866
O36   O     O_R   0.787380 0.044010 0.830940 -0.546716
O37   O     O_R   0.212620 0.044010 0.169060 -0.498881
O38   O     O_R   0.287380 0.544010 0.830940 -0.540747
O39   O     O_R   0.712620 0.544010 0.169060 -0.491603
O40   O     O_R   0.765540 0.293390 0.823910 -0.433817
O41   O     O_R   0.234460 0.293390 0.176090 -0.461565
O42   O     O_R   0.265540 0.793390 0.823910 -0.486102
O43   O     O_R   0.734460 0.793390 0.176090 -0.471820
O44   O     O_R   0.670090 0.410410 0.829090 -0.489661
O45   O     O_R   0.556450 0.252890 0.823790 -0.487082
O46   O     O_R   0.329910 0.410410 0.170910 -0.541698
O47   O     O_R   0.170090 0.910410 0.829090 -0.456285
O48   O     O_R   0.829910 0.910410 0.170910 -0.526939
O49   O     O_3   0.668747 0.738541 0.063775 -0.530914
O50   O     O_3   0.342647 0.937567 0.903622 -0.521398
O51   O     O_3   0.136118 0.314933 0.076638 -0.561142
O52   O     O_3   0.853537 0.331356 0.921735 -0.533813
O53   O     O_2   0.824742 0.160061 0.331939 -0.252300
O54   O     O_2   0.870061 0.236132 0.445939 -0.326278
O55   O     O_3   0.926928 0.043462 0.394909 -0.488155
O56   O     O_R   0.443550 0.252890 0.176210 -0.468768
O57   O     O_2   0.344438 0.087563 0.681413 -0.265153
O58   O     O_2   0.325711 0.257936 0.598709 -0.292464
O59   O     O_3   0.218527 0.179171 0.672739 -0.456156
O60   O     O_2   0.324688 0.660058 0.331927 -0.252126
O61   O     O_2   0.370014 0.736165 0.445919 -0.326205
O62   O     O_3   0.426900 0.543503 0.394888 -0.487471
O63   O     O_2   0.844184 0.588176 0.681391 -0.258548
O64   O     O_2   0.825376 0.758294 0.598552 -0.293999
O65   O     O_3   0.718201 0.679436 0.672570 -0.467509
O66   O     O_3   0.504614 0.387258 0.071930 -0.580858
O67   O     O_R   0.056450 0.752890 0.823790 -0.486413
O68   O     O_3   0.490528 0.381134 0.921378 -0.574847
O69   O     O_3   0.004268 0.866152 0.074045 -0.554910
O70   O     O_3   0.995377 0.889645 0.918353 -0.572481
O71   O     O_R   0.943550 0.752890 0.176210 -0.445301
O72   O     O_R   0.545750 0.051070 0.830560 -0.546006
S1    S     S_3+6 0.852163 0.123859 0.404463 0.004032
S2    S     S_3+6 0.293697 0.144116 0.629092 0.016518
S3    S     S_3+6 0.352127 0.623880 0.404448 0.004802
S4    S     S_3+6 0.793428 0.644467 0.628997 0.011857

loop_
_geom_bond_atom_site_label_1
_geom_bond_atom_site_label_2
_ccdc_geom_bond_type
H58   O55   S    
C1    O14   A    
C39   C106  A    
C41   C89   S    
C23   H24   S    
C22   H22   S    
Cr3   O3    S    
Cr3   O7    S    
C89   O12   A    
C7    H43   S    
O63   S4    D    
C51   O17   A    
C102  O37   A    
C16   H72   S    
Cr1   O9    S    
C19   C20   S    
C95   H17   S    
C55   C56   A    
C88   O31   A    
C75   O49   S    
C114  C115  A    
C8    H47   S    
C97   O45   A    
C71   C94   S    
C73   H13   S    
C53   C54   A    
C24   H25   S    
Cr12  O27   S    
C11   H54   S    
C84   C112  S    
H60   O62   S    
Cr10  O47   S    
C8    H48   S    
C18   H77   S    
C64   C68   A    
C1    C30   S    
C15   O68   S    
C59   O25   A    
C105  C110  A    
O58   S2    D    
C58   O24   A    
C3    C116  A    
C94   O42   A    
O64   S4    D    
C71   C76   A    
C15   H69   S    
C93   O41   A    
C20   H83   S    
C67   C71   A    
Cr2   O10   S    
C28   C33   A    
C84   H16   S    
C2    C41   A    
Cr11  O71   S    
C15   C16   S    
C90   O33   A    
C60   O30   A    
C84   H9    S    
C80   H6    S    
C4    H37   S    
C56   O70   S    
C5    H40   S    
C37   H29   S    
C37   C42   A    
C19   O70   S    
C110  C111  A    
C104  O8    A    
C76   O50   S    
C93   O46   A    
C109  C116  A    
C21   C43   A    
C99   O67   A    
C61   C66   A    
C100  O4    A    
Cr10  O20   S    
C33   S3    S    
C98   O56   A    
C4    O49   S    
C46   H33   S    
C34   S4    S    
Cr2   O6    S    
Cr5   O10   S    
C4    H36   S    
C62   C73   S    
C73   C111  S    
C18   H75   S    
Cr4   O35   S    
C23   C27   A    
C62   H11   S    
C40   O20   A    
C83   C101  S    
Cr7   O43   S    
C81   C86   A    
C60   C108  S    
C109  C113  A    
C14   H64   S    
Cr6   O23   S    
C14   H66   S    
C91   O34   A    
C74   C92   S    
C26   C31   A    
C104  O39   A    
C11   H57   S    
C7    H44   S    
C63   C85   A    
C19   H79   S    
C98   O2    A    
C36   C41   A    
C31   S1    S    
C45   H32   S    
C78   O52   S    
C39   C88   S    
C62   H14   S    
C58   O28   A    
C86   C103  S    
C1    O18   A    
C64   C86   A    
C112  C113  A    
Cr1   O40   S    
Cr2   O32   S    
C13   C42   A    
C65   C87   A    
C47   C50   A    
C63   C67   A    
C92   O40   A    
C48   C53   A    
C79   H5    S    
O65   S4    S    
C91   O35   A    
Cr1   O14   S    
Cr11  O21   S    
C88   O1    A    
C30   C34   A    
C52   C56   A    
C76   C80   A    
O57   S2    D    
C11   H55   S    
C38   H30   S    
Cr2   O2    S    
C61   C83   A    
C97   O72   A    
C17   H74   S    
Cr10  O11   S    
C8    C9    S    
C65   H78   S    
C45   C48   A    
C2    H19   S    
C22   C106  A    
H61   O65   S    
Cr9   O46   S    
C85   C102  S    
C44   C49   A    
C33   C37   A    
C108  C112  A    
C13   C24   A    
C68   C72   A    
O60   S3    D    
C84   C95   S    
C6    H42   S    
C40   O16   A    
C68   H3    S    
C70   C96   S    
C107  C114  A    
Cr7   O39   S    
C80   C85   A    
Cr6   O38   S    
C78   C82   A    
Cr5   O37   S    
C94   O47   A    
C62   C110  S    
C77   C81   A    
C27   C40   S    
Cr4   O8    S    
Cr6   O16   S    
C96   O48   A    
Cr3   O11   S    
C17   C18   S    
C89   O32   A    
C61   H45   S    
C69   C74   A    
C6    O50   S    
Cr4   O30   S    
C5    H38   S    
Cr8   O9    S    
C8    O51   S    
C17   H73   S    
Cr3   O29   S    
Cr7   O34   S    
C29   O19   A    
Cr8   O22   S    
C57   O27   A    
C16   H71   S    
C27   C32   A    
C72   C93   S    
C92   O44   A    
C57   C107  S    
C14   H65   S    
C12   C14   S    
Cr8   O45   S    
C47   H35   S    
C21   H21   S    
Cr6   O11   S    
Cr9   O56   S    
C74   C78   A    
C19   H80   S    
O61   S3    D    
C114  H1    S    
C82   C87   A    
C67   H2    S    
C60   O26   A    
C29   O15   A    
C66   H84   S    
C20   H82   S    
C12   O66   S    
C2    C23   A    
C16   H70   S    
C44   C45   A    
C36   H28   S    
O59   S2    S    
C55   O69   S    
C73   H15   S    
Cr1   O36   S    
Cr2   O28   S    
C25   C30   A    
C10   H53   S    
C12   H63   S    
C21   C25   A    
C46   C47   A    
C28   C29   S    
C95   H10   S    
C54   O68   S    
C63   H56   S    
C77   O51   S    
C25   H26   S    
C34   C38   A    
C103  O38   A    
C107  C111  A    
C105  C115  A    
C24   C28   A    
C96   O43   A    
C35   H27   S    
C4    C5    S    
Cr9   O19   S    
C9    H51   S    
Cr12  O9    S    
Cr6   O42   S    
C72   C77   A    
C32   C36   A    
Cr9   O10   S    
Cr5   O41   S    
C6    C7    S    
Cr7   O13   S    
O53   S1    D    
C3    C108  A    
Cr4   O4    S    
C48   C98   S    
Cr10  O67   S    
C52   C99   S    
C32   S2    S    
C50   C55   A    
C106  H18   S    
C51   O21   A    
C59   O29   A    
C58   C105  S    
C10   H52   S    
Cr12  O72   S    
Cr3   O33   S    
C17   O69   S    
C38   C43   A    
Cr9   O24   S    
C26   C51   S    
C46   C52   A    
C79   C83   A    
Cr10  O25   S    
O54   S1    D    
C66   C70   A    
C81   H7    S    
C99   O3    A    
C95   C113  S    
C69   H4    S    
C65   C69   A    
C35   C39   A    
Cr12  O5    S    
C100  O71   A    
C7    H46   S    
C59   C109  S    
Cr5   O12   S    
C10   O52   S    
C90   O23   A    
C31   C35   A    
C12   H62   S    
C5    H39   S    
C64   H67   S    
C82   H8    S    
Cr5   O15   S    
C43   C91   S    
C50   C100  S    
C49   C97   S    
C10   C11   S    
C102  O6    A    
H59   O59   S    
C87   C104  S    
C101  O5    A    
C15   H68   S    
Cr1   O1    S    
C115  H12   S    
O55   S1    S    
Cr11  O26   S    
C20   H81   S    
C22   C26   A    
C103  O7    A    
Cr8   O44   S    
Cr11  O13   S    
C44   H31   S    
C57   O22   A    
Cr11  O48   S    
Cr12  O31   S    
C70   C75   A    
C18   H76   S    
O62   S3    S    
C13   H20   S    
C42   C90   S    
C3    H34   S    
C101  O36   A    
C75   C79   A    
Cr4   O13   S    
C116  H23   S    
Cr8   O18   S    
C9    H50   S    
C49   C54   A    
C9    H49   S    
Cr7   O17   S    
C53   O66   S    
C6    H41   S    
