data_mof_unit_38677.cif
_audit_creation_date              2012-12-10T17:17:49-0500
_audit_creation_method            fapswitch 2.2
_symmetry_space_group_name_H-M    P1
_symmetry_Int_Tables_number       1
_space_group_crystal_system       triclinic
_cell_length_a                    14.824953
_cell_length_b                    15.769178
_cell_length_c                    9.630788
_cell_angle_alpha                 89.212568
_cell_angle_beta                  89.347687
_cell_angle_gamma                 89.792869
_cell_volume                      2251.08784363

loop_
_atom_site_label
_atom_site_type_symbol
_atom_type_description
_atom_site_fract_x
_atom_site_fract_y
_atom_site_fract_z
_atom_type_partial_charge
C1    C     C_R   0.381721 0.880037 0.502397 0.813091
C2    C     C_R   0.379018 0.116297 0.500029 0.774528
C3    C     C_R   0.881717 0.380041 0.502397 0.813268
C4    C     C_R   0.878997 0.616278 0.500029 0.774507
C5    C     C_R   0.316868 0.249377 0.415206 -0.157506
C6    C     C_R   0.284569 0.780059 0.382189 -0.156844
C7    C     C_R   0.816771 0.749287 0.415027 -0.157560
C8    C     C_R   0.784585 0.280046 0.382193 -0.156777
C9    C     C_R   0.752245 0.812328 0.415729 -0.138689
C10   C     C_R   0.715056 0.222214 0.378357 -0.202420
C11   C     C_R   0.252339 0.312418 0.415915 -0.138533
C12   C     C_R   0.215037 0.722232 0.378355 -0.202507
C13   C     C_R   0.675748 0.805353 0.501203 -0.085083
C14   C     C_R   0.667482 0.200610 0.499518 -0.067867
C15   C     C_R   0.175774 0.305376 0.501202 -0.085125
C16   C     C_R   0.167478 0.700613 0.499523 -0.067797
C17   C     C_R   0.666089 0.029187 0.137784 0.441280
C18   C     C_R   0.166099 0.529158 0.137788 0.441342
C19   C     C_R   0.739624 0.063157 0.063818 0.152094
C20   C     C_R   0.239662 0.563067 0.063820 0.152083
C21   C     C_R   0.738221 0.062087 0.921862 0.506058
C22   C     C_R   0.238277 0.561967 0.921868 0.506165
C23   C     C_R   0.665977 0.026851 0.854735 0.467497
C24   C     C_R   0.165998 0.526800 0.854733 0.467385
C25   C     C_R   0.581038 0.013061 0.923437 -0.049225
C26   C     C_R   0.081046 0.513045 0.923435 -0.049205
C27   C     C_R   0.581016 0.013829 0.072969 -0.090190
C28   C     C_R   0.081022 0.513816 0.072970 -0.090228
C29   C     C_R   0.423350 0.989275 0.075028 0.696413
C30   C     C_R   0.923348 0.489287 0.075029 0.696410
C31   C     C_R   0.611142 0.124594 0.499303 0.918817
C32   C     C_R   0.614509 0.877717 0.500494 0.960022
C33   C     C_R   0.111140 0.624596 0.499304 0.918831
C34   C     C_R   0.114518 0.377724 0.500493 0.960162
C35   C     C_R   0.423517 0.989401 0.927623 -0.095448
C36   C     C_R   0.923516 0.489414 0.927623 -0.095510
C37   C     C_R   0.213563 0.090987 0.661251 -0.214595
C38   C     C_R   0.296121 0.807923 0.770122 -0.114274
C39   C     C_R   0.713609 0.591045 0.661526 -0.214676
C40   C     C_R   0.796087 0.307959 0.770127 -0.114154
C41   C     C_R   0.137017 0.080704 0.744005 -0.327388
C42   C     C_R   0.239764 0.797382 0.885794 -0.337726
C43   C     C_R   0.637127 0.580817 0.744475 -0.327256
C44   C     C_R   0.739713 0.297432 0.885785 -0.337692
C45   C     C_R   0.570713 0.643916 0.747244 0.433208
C46   C     C_R   0.651129 0.269384 0.869639 0.355726
C47   C     C_R   0.070577 0.143789 0.746717 0.433047
C48   C     C_R   0.151177 0.769342 0.869666 0.355666
C49   C     C_R   0.581297 0.716967 0.664790 0.568319
C50   C     C_R   0.623329 0.243819 0.738765 0.591235
C51   C     C_R   0.081214 0.216890 0.664436 0.568333
C52   C     C_R   0.123357 0.743797 0.738794 0.591272
C53   C     C_R   0.661036 0.730977 0.584384 -0.111136
C54   C     C_R   0.684341 0.244389 0.624019 -0.092613
C55   C     C_R   0.161012 0.230951 0.584218 -0.111218
C56   C     C_R   0.184355 0.744377 0.624030 -0.092631
C57   C     C_R   0.227990 0.166477 0.583217 0.045969
C58   C     C_R   0.265870 0.789586 0.634514 0.053573
C59   C     C_R   0.728004 0.666496 0.583363 0.045942
C60   C     C_R   0.765853 0.289603 0.634514 0.053701
C61   C     C_R   0.306480 0.177897 0.500190 -0.009457
C62   C     C_R   0.312455 0.813441 0.508837 -0.027078
C63   C     C_R   0.806445 0.677867 0.500185 -0.009485
C64   C     C_R   0.812452 0.313445 0.508840 -0.026999
Cu1   Cu    Cu3+1 0.499990 0.000000 0.640660 1.085423
Cu2   Cu    Cu3+1 0.999990 0.500000 0.640660 1.085381
Cu3   Cu    Cu3+1 0.500010 0.000000 0.359340 1.076472
Cu4   Cu    Cu3+1 0.000010 0.500000 0.359340 1.076475
H1    H     H_    0.376697 0.257539 0.350645 0.164190
H2    H     H_    0.318229 0.796751 0.285228 0.190740
H3    H     H_    0.876553 0.757408 0.350332 0.164259
H4    H     H_    0.818256 0.296727 0.285236 0.190762
H5    H     H_    0.360526 0.981277 0.873911 0.132365
H6    H     H_    0.860524 0.481296 0.873913 0.132319
H7    H     H_    0.260185 0.038234 0.658081 0.166251
H8    H     H_    0.364181 0.826097 0.792265 0.243432
H9    H     H_    0.760204 0.538277 0.658312 0.166261
H10   H     H_    0.864146 0.326136 0.792289 0.243296
H11   H     H_    0.128821 0.022585 0.804049 0.180746
H12   H     H_    0.264787 0.812909 0.987565 0.188544
H13   H     H_    0.628964 0.522731 0.804633 0.180752
H14   H     H_    0.764723 0.312973 0.987559 0.188544
H15   H     H_    0.763717 0.868216 0.351612 0.217217
H16   H     H_    0.699397 0.193508 0.280204 0.166605
H17   H     H_    0.263854 0.368353 0.351945 0.217220
H18   H     H_    0.199361 0.693540 0.280199 0.166449
N1    N     N_R   0.501200 0.000000 0.147910 -0.198073
N2    N     N_R   0.001200 0.500000 0.147910 -0.198071
N3    N     N_R   0.501270 0.000000 0.852040 -0.166487
N4    N     N_R   0.001270 0.500000 0.852040 -0.166496
O1    O     O_R   0.409820 0.909830 0.618810 -0.596237
O2    O     O_R   0.409820 0.090170 0.618810 -0.554589
O3    O     O_R   0.909820 0.409830 0.618810 -0.596267
O4    O     O_R   0.909820 0.590170 0.618810 -0.554598
O5    O     O_R   0.409840 0.909830 0.381240 -0.550018
O6    O     O_R   0.409840 0.090170 0.381240 -0.561304
O7    O     O_R   0.909840 0.409830 0.381240 -0.550044
O8    O     O_R   0.909840 0.590170 0.381240 -0.561325
O9    O     O_R   0.590170 0.090170 0.618760 -0.498642
O10   O     O_R   0.590170 0.909830 0.618760 -0.465851
O11   O     O_R   0.090170 0.590170 0.618760 -0.498616
O12   O     O_R   0.090170 0.409830 0.618760 -0.465918
O13   O     O_R   0.590190 0.090180 0.381190 -0.554697
O14   O     O_R   0.590190 0.909820 0.381190 -0.529395
O15   O     O_R   0.090190 0.590180 0.381190 -0.554680
O16   O     O_R   0.090190 0.409820 0.381190 -0.529365
F1    F     F_    0.813668 0.082996 0.848282 -0.550180
F2    F     F_    0.313757 0.582799 0.848301 -0.550177
F3    F     F_    0.689511 0.996378 0.730402 -0.595674
F4    F     F_    0.189509 0.496373 0.730363 -0.595684
O17   O     O_3   0.493567 0.635444 0.827555 -0.596191
H19   H     H_    0.496654 0.581148 0.880623 0.366150
O18   O     O_3   0.591103 0.264034 0.979926 -0.686147
H20   H     H_    0.621558 0.283329 0.064999 0.320514
O19   O     O_3   0.993359 0.135254 0.826817 -0.595927
H21   H     H_    0.996492 0.080985 0.879926 0.366119
O20   O     O_3   0.091163 0.763987 0.979968 -0.686184
H22   H     H_    0.121630 0.783270 0.065035 0.320505
F5    F     F_    0.510588 0.771032 0.660593 -0.671275
F6    F     F_    0.534949 0.224170 0.722636 -0.630690
F7    F     F_    0.010525 0.270972 0.660260 -0.671309
F8    F     F_    0.034973 0.724160 0.722684 -0.630667
F9    F     F_    0.343911 0.979443 0.144206 -0.669168
F10   F     F_    0.843908 0.479465 0.144207 -0.669200
F11   F     F_    0.687878 0.999097 0.263335 -0.652920
F12   F     F_    0.187877 0.499099 0.263362 -0.652834
O21   O     O_3   0.818984 0.086542 0.126578 -0.641391
H23   H     H_    0.810748 0.085479 0.228793 0.369809
O22   O     O_3   0.319034 0.586392 0.126597 -0.641336
H24   H     H_    0.310708 0.585592 0.228757 0.369768

loop_
_geom_bond_atom_site_label_1
_geom_bond_atom_site_label_2
_ccdc_geom_bond_type
C58   C62   A    
Cu1   O2    S    
Cu2   Cu4   S    
C18   C28   A    
C42   H12   S    
C40   C60   A    
C4    O8    A    
Cu2   O12   S    
C13   C32   S    
O17   H19   S    
C14   C31   S    
C1    C62   S    
C53   C59   A    
Cu3   O13   S    
Cu2   N4    S    
C54   C60   A    
C3    C64   S    
Cu1   N3    S    
C4    C63   S    
C50   C54   A    
C50   F6    S    
C39   H9    S    
C22   C24   A    
C19   C21   A    
C24   C26   A    
C5    C11   A    
C44   H14   S    
C6    C12   A    
C22   F2    S    
Cu4   N2    S    
O19   H21   S    
Cu1   O1    S    
C10   H16   S    
C9    C13   A    
Cu4   O7    S    
C5    H1    S    
C52   F8    S    
C38   C58   A    
C11   C15   A    
C47   C51   A    
C12   C16   A    
Cu1   Cu3   S    
C28   N2    A    
C40   C44   A    
C32   O14   A    
C31   O9    A    
C20   O22   S    
C15   C34   S    
C18   C20   A    
C46   O18   S    
C2    C61   S    
Cu2   O4    S    
C37   H7    S    
C1    O1    A    
C38   H8    S    
Cu3   O5    S    
Cu2   O11   S    
Cu4   O16   S    
C44   C46   A    
Cu3   O14   S    
C13   C53   A    
C37   C57   A    
C23   F3    S    
C8    H4    S    
C5    C61   A    
C17   C27   A    
C33   O15   A    
Cu1   O9    S    
C10   C14   A    
C42   C48   A    
C25   N3    A    
C2    O6    A    
C32   O10   A    
C31   O13   A    
C47   O19   S    
C16   C56   A    
C16   C33   S    
C3    O7    A    
C45   C49   A    
C1    O5    A    
C39   C59   A    
C45   O17   S    
C41   C47   A    
C24   F4    S    
C3    O3    A    
C34   O12   A    
C2    O2    A    
C43   C45   A    
C7    C63   A    
C21   F1    S    
C36   H6    S    
C8    C64   A    
Cu2   O3    S    
C4    O4    A    
C35   N3    A    
C40   H10   S    
C14   C54   A    
C30   F10   S    
C55   C57   A    
Cu3   O6    S    
C51   F7    S    
C33   O11   A    
C59   C63   A    
C26   N4    A    
Cu4   O15   S    
C30   N2    A    
O21   H23   S    
O18   H20   S    
C36   N4    A    
C6    H2    S    
C46   C50   A    
C35   H5    S    
C43   H13   S    
Cu3   N1    S    
Cu1   O10   S    
C20   C22   A    
C41   H11   S    
C39   C43   A    
C9    H15   S    
C57   C61   A    
C48   O20   S    
C30   C36   A    
C25   C27   A    
C29   C35   A    
C26   C28   A    
C12   H18   S    
C60   C64   A    
C6    C62   A    
C21   C23   A    
O22   H24   S    
O20   H22   S    
C27   N1    A    
C7    H3    S    
C17   F11   S    
C49   F5    S    
C11   H17   S    
C49   C53   A    
C29   F9    S    
C19   O21   S    
C17   C19   A    
C56   C58   A    
C34   O16   A    
C51   C55   A    
C23   C25   A    
C37   C41   A    
Cu4   O8    S    
C29   N1    A    
C38   C42   A    
C7    C9    A    
C48   C52   A    
C8    C10   A    
C18   F12   S    
C52   C56   A    
C15   C55   A    
