data_mof_unit_30373.cif
_audit_creation_date              2013-03-05T15:59:58-0500
_audit_creation_method            fapswitch 2.2
_symmetry_space_group_name_H-M    P1
_symmetry_Int_Tables_number       1
_space_group_crystal_system       triclinic
_cell_length_a                    12.599292
_cell_length_b                    12.973441
_cell_length_c                    19.175648
_cell_angle_alpha                 90.262137
_cell_angle_beta                  102.652779
_cell_angle_gamma                 81.943735
_cell_volume                      3026.97149812

loop_
_atom_site_label
_atom_site_type_symbol
_atom_site_description
_atom_site_fract_x
_atom_site_fract_y
_atom_site_fract_z
_atom_type_partial_charge
O1    O     O_R   0.366740 0.627160 0.482470 -0.579655
O2    O     O_R   0.544830 0.662520 0.505920 -0.624010
C1    C     C_R   0.438397 0.691876 0.490456 0.890831
O3    O     O_R   0.410920 0.482320 0.590130 -0.624448
O4    O     O_R   0.589010 0.517690 0.613590 -0.610266
C2    C     C_R   0.501393 0.497633 0.634340 0.846577
Zn1   Zn    Zn3+2 0.381090 0.476390 0.484340 0.974921
Zn2   Zn    Zn3+2 0.618910 0.523610 0.515660 0.945661
O5    O     O_R   0.455170 0.337480 0.494080 -0.622100
O6    O     O_R   0.633260 0.372840 0.517530 -0.629295
O7    O     O_R   0.410990 0.482310 0.386410 -0.571295
O8    O     O_R   0.589080 0.517680 0.409870 -0.629542
C3    C     C_R   0.561426 0.308418 0.505891 0.830076
C4    C     C_R   0.498519 0.502172 0.365841 0.897067
C5    C     C_R   0.451253 0.424894 0.743116 0.070647
C6    C     C_R   0.454465 0.431870 0.817449 0.107164
C7    C     C_R   0.506096 0.511687 0.855665 0.039301
C8    C     C_R   0.557750 0.579313 0.822914 -0.178702
H1    H     H_    0.598081 0.639258 0.853077 0.164243
C9    C     C_R   0.556790 0.571540 0.751140 -0.212680
H2    H     H_    0.596091 0.626340 0.726619 0.170197
C10   C     C_R   0.503052 0.496665 0.710635 -0.088538
N1    N     N_R   0.601558 0.494243 0.980108 -0.164004
N2    N     N_R   0.600554 0.496860 0.049137 -0.167272
C11   C     C_R   0.506293 0.530747 0.070669 0.316142
N3    N     N_R   0.413738 0.564709 0.020849 -0.166415
N4    N     N_R   0.414610 0.562056 0.951818 -0.161478
C12   C     C_R   0.508157 0.525367 0.930689 0.278103
C13   C     C_R   0.406768 0.564407 0.168599 -0.204465
H3    H     H_    0.335467 0.602228 0.130532 0.192170
C14   C     C_R   0.402672 0.558632 0.240580 0.305332
C15   C     C_R   0.496089 0.509761 0.290055 -0.149044
C16   C     C_R   0.591789 0.470422 0.267324 -0.208558
H4    H     H_    0.664003 0.432992 0.304900 0.158637
C17   C     C_R   0.595465 0.478344 0.196038 -0.118738
H5    H     H_    0.670538 0.446840 0.180080 0.164711
C18   C     C_R   0.503065 0.525275 0.146179 0.021831
C19   C     C_R   0.669381 0.077157 0.415004 -0.154550
H6    H     H_    0.701026 0.234607 0.422960 0.138834
H7    H     H_    0.719178 0.061013 0.375863 0.190469
C20   C     C_R   0.598935 0.200097 0.494592 -0.056418
C21   C     C_R   0.306193 0.842445 0.510718 -0.201200
C22   C     C_R   0.279550 0.949813 0.517557 0.158659
C23   C     C_R   0.351625 0.015822 0.503438 -0.199474
C24   C     C_R   0.448970 0.975146 0.481967 0.040408
C25   C     C_R   0.462077 0.871438 0.461306 0.017631
C26   C     C_R   0.531868 0.035635 0.477923 0.030957
C27   C     C_R   0.604936 0.005043 0.432060 0.014084
C28   C     C_R   0.608398 0.904849 0.402962 0.278301
C29   C     C_R   0.538840 0.838325 0.419406 -0.221551
C30   C     C_R   0.547088 0.124435 0.519573 0.069457
C31   C     C_R   0.661722 0.176008 0.443336 -0.249213
C32   C     C_R   0.398605 0.803062 0.484023 -0.087579
H8    H     H_    0.256559 0.789806 0.527752 0.154988
H9    H     H_    0.329278 0.098958 0.506434 0.132165
H10   H     H_    0.543654 0.760980 0.397787 0.204935
C33   C     C_R   0.092202 0.337760 0.407456 -0.293360
H11   H     H_    0.259167 0.321291 0.396201 0.141257
H12   H     H_    0.886233 0.304832 0.391839 0.152687
H13   H     H_    0.072429 0.273506 0.372985 0.154200
N5    N     N_R   0.222200 0.444680 0.463280 -0.099658
C34   C     C_R   0.796640 0.635047 0.580716 -0.074959
C35   C     C_R   0.899553 0.668818 0.595796 0.290392
C36   C     C_R   0.982224 0.616804 0.564859 -0.279117
C37   C     C_R   0.961732 0.532915 0.518802 -0.034460
C38   C     C_R   0.855328 0.503539 0.505025 0.239736
C39   C     C_R   0.041890 0.477744 0.485430 0.018644
C40   C     C_R   0.014133 0.394139 0.439910 0.193230
C41   C     C_R   0.908640 0.367764 0.426959 -0.290036
C42   C     C_R   0.830362 0.422468 0.458659 -0.181147
C43   C     C_R   0.149350 0.501389 0.495442 -0.024280
C44   C     C_R   0.197066 0.364587 0.420140 0.028616
N6    N     N_R   0.776960 0.554780 0.536340 -0.148940
H14   H     H_    0.178629 0.562795 0.528941 0.118794
H15   H     H_    0.730757 0.673547 0.603479 0.177816
H16   H     H_    0.061017 0.643762 0.577291 0.175342
H17   H     H_    0.750432 0.400102 0.445649 0.198823
C45   C     C_3   0.398169 0.339143 0.699976 -0.430355
C46   C     C_3   0.273240 0.369819 0.674157 -0.281736
C47   C     C_3   0.222683 0.287138 0.626125 -0.896422
H18   H     H_    0.257935 0.278464 0.577811 0.262711
H19   H     H_    0.238537 0.211053 0.655588 0.256265
H20   H     H_    0.132480 0.310601 0.608820 0.256595
H21   H     H_    0.233064 0.380126 0.720211 0.211235
H22   H     H_    0.254801 0.445279 0.643964 0.239116
H23   H     H_    0.435107 0.320507 0.653489 0.208392
H24   H     H_    0.416628 0.264580 0.731166 0.198102
N7    N     N_R   0.685756 0.866812 0.360485 0.206374
O9    O     O_R   0.656562 0.807636 0.306712 -0.361925
O10   O     O_R   0.789553 0.873960 0.383311 -0.403197
C48   C     C_3   0.527346 0.133197 0.595427 -0.460658
C49   C     C_3   0.581875 0.036364 0.642493 -0.280805
C50   C     C_3   0.568682 0.050939 0.719335 -0.869186
H25   H     H_    0.607944 0.118399 0.742847 0.255626
H26   H     H_    0.480183 0.064071 0.720888 0.255358
H27   H     H_    0.608680 0.979962 0.752083 0.270518
H28   H     H_    0.544483 0.966726 0.621687 0.232022
H29   H     H_    0.670942 0.021656 0.642399 0.255619
H30   H     H_    0.565030 0.199961 0.621606 0.186402
H31   H     H_    0.439202 0.149993 0.596050 0.202833
C51   C     C_3   0.178893 0.993034 0.544482 -0.457619
C52   C     C_3   0.073431 0.981875 0.489122 -0.300117
C53   C     C_3   0.971901 0.030515 0.514994 -0.781823
H32   H     H_    0.968501 0.992506 0.566119 0.293735
H33   H     H_    0.973026 0.115341 0.522761 0.244790
H34   H     H_    0.897057 0.019641 0.474477 0.273802
H35   H     H_    0.074604 0.021235 0.437930 0.228573
H36   H     H_    0.067910 0.898092 0.479093 0.251379
H37   H     H_    0.179642 0.951158 0.595104 0.227728
H38   H     H_    0.180052 0.076797 0.556759 0.202922
C54   C     C_3   0.411790 0.350837 0.857600 -0.443258
C55   C     C_3   0.504870 0.263476 0.889495 -0.353561
C56   C     C_3   0.462757 0.179875 0.927506 -0.821033
H39   H     H_    0.426545 0.214174 0.971721 0.268321
H40   H     H_    0.399629 0.143930 0.889215 0.260657
H41   H     H_    0.531984 0.118156 0.950249 0.258501
H42   H     H_    0.542380 0.226817 0.846464 0.221833
H43   H     H_    0.569886 0.296018 0.928474 0.244157
H44   H     H_    0.374676 0.386912 0.900780 0.221595
H45   H     H_    0.343765 0.316883 0.823086 0.209080
N8    N     N_R   0.919452 0.755878 0.641345 0.214982
O11   O     O_R   0.841524 0.804997 0.668775 -0.419721
O12   O     O_R   0.015039 0.788017 0.654887 -0.408784
N9    N     N_R   0.306117 0.607435 0.262616 0.214702
O13   O     O_R   0.315262 0.669182 0.316616 -0.386658
O14   O     O_R   0.209368 0.604574 0.221849 -0.364653

loop_
_geom_bond_atom_site_label_1
_geom_bond_atom_site_label_2
_geom_bond_distance
_ccdc_geom_bond_type
C45   H24   1.108519 S    
C19   H7    1.081143 S    
C51   C52   1.532334 S    
C17   H5    1.082882 S    
H11   C44   1.081762 S    
C3    C20   1.449511 S    
C49   H29   1.112014 S    
C38   C42   1.399039 A    
C24   C25   1.398566 A    
Zn1   O7    1.998389 S    
N3    N4    1.326409 A    
C34   C35   1.396658 A    
C49   C50   1.526609 S    
C17   C18   1.399692 A    
C14   N9    1.437433 S    
C47   H20   1.110464 S    
C21   C32   1.403813 A    
C46   H21   1.108952 S    
O7    C4    1.307392 A    
C5    C45   1.525463 S    
C19   C31   1.389622 A    
C51   H37   1.112153 S    
C5    C6    1.419895 A    
C2    C10   1.458649 S    
C8    C9    1.377081 A    
C54   H44   1.108167 S    
C8    H1    1.084185 S    
O5    C3    1.308498 A    
Zn1   N5    2.053067 S    
C11   C18   1.459739 S    
C5    C10   1.426382 A    
C26   C27   1.423935 A    
C40   C41   1.388323 A    
C37   C39   1.420594 A    
C36   C37   1.414624 A    
N1    N2    1.326740 A    
C34   N6    1.357130 A    
C52   H36   1.112071 S    
C48   H31   1.104038 S    
C20   C31   1.399281 A    
C19   C27   1.404838 A    
C56   H41   1.110356 S    
C30   C48   1.529561 S    
C45   H23   1.103598 S    
H6    C31   1.081123 S    
C50   H26   1.111049 S    
C42   H17   1.063860 S    
C28   N7    1.437431 S    
C52   C53   1.526304 S    
O3    Zn1   1.983693 S    
C55   C56   1.525486 S    
C35   N8    1.440780 S    
C49   H28   1.109491 S    
C16   H4    1.083965 S    
C24   C26   1.406598 A    
C39   C40   1.422883 A    
N2    C11   1.356847 A    
C47   H19   1.110783 S    
C4    C15   1.450353 S    
C48   C49   1.536739 S    
C45   C46   1.538139 S    
C6    C7    1.416156 A    
C33   H13   1.083925 S    
C26   C30   1.410052 A    
C11   N3    1.355888 A    
C38   N6    1.359982 A    
C29   H10   1.082848 S    
C35   C36   1.400800 A    
C56   H40   1.110943 S    
C54   H45   1.105115 S    
O1    C1    1.301605 A    
C22   C23   1.399671 A    
C22   C51   1.508052 S    
C13   H3    1.083086 S    
C43   H14   1.075745 S    
C14   C15   1.412278 A    
O8    C4    1.302291 A    
Zn2   O8    1.983693 S    
C7    C8    1.389884 A    
C36   H16   1.075894 S    
C52   H35   1.112490 S    
C53   H33   1.111488 S    
C50   H25   1.110841 S    
N1    C12   1.351906 A    
C9    H2    1.084188 S    
N8    O11   1.301737 A    
H12   C41   1.084486 S    
N5    C44   1.354218 A    
O3    C2    1.302355 A    
C27   C28   1.411032 A    
N7    O10   1.301270 A    
C28   C29   1.395662 A    
C50   H27   1.110318 S    
C34   H15   1.081464 S    
C21   C22   1.398822 A    
C33   C40   1.397196 A    
C46   H22   1.109087 S    
C23   C24   1.410694 A    
N9    O14   1.301272 A    
C56   H39   1.110920 S    
Zn1   O5    1.899738 S    
C54   C55   1.534111 S    
O1    Zn1   1.938714 S    
C7    C12   1.443766 S    
O2    Zn2   1.899736 S    
C9    C10   1.397255 A    
C47   H18   1.110659 S    
O6    C3    1.299723 A    
O4    Zn2   1.998389 S    
C25   C29   1.409371 A    
C55   H42   1.111144 S    
C15   C16   1.400003 A    
O2    C1    1.309533 A    
C51   H38   1.112264 S    
C13   C14   1.395239 A    
C21   H8    1.084138 S    
C55   H43   1.110756 S    
C1    C32   1.455725 S    
C23   H9    1.080397 S    
N5    C43   1.348577 A    
O4    C2    1.310926 A    
C25   C32   1.403976 A    
Zn2   N6    2.040694 S    
C16   C17   1.382623 A    
C53   H34   1.108189 S    
C39   C43   1.402162 A    
C33   C44   1.383187 A    
C41   C42   1.381431 A    
N8    O12   1.301704 A    
C46   C47   1.526475 S    
N7    O9    1.301410 A    
Zn2   O6    1.938714 S    
C37   C38   1.414006 A    
C13   C18   1.403009 A    
C53   H32   1.111222 S    
C48   H30   1.111106 S    
C20   C30   1.393130 A    
C6    C54   1.527814 S    
N9    O13   1.301253 A    
N4    C12   1.352799 A    
