data_mof_unit_14414.cif
_audit_creation_date              2012-12-10T17:18:52-0500
_audit_creation_method            fapswitch 2.2
_symmetry_space_group_name_H-M    P1
_symmetry_Int_Tables_number       1
_space_group_crystal_system       triclinic
_cell_length_a                    9.583643
_cell_length_b                    10.861454
_cell_length_c                    13.359206
_cell_angle_alpha                 92.531862
_cell_angle_beta                  72.398549
_cell_angle_gamma                 90.488055
_cell_volume                      1324.17615522

loop_
_atom_site_label
_atom_site_type_symbol
_atom_type_description
_atom_site_fract_x
_atom_site_fract_y
_atom_site_fract_z
_atom_type_partial_charge
C1    C     C_R   0.503484 0.736821 0.491359 0.791827
C2    C     C_R   0.440049 0.504717 0.979405 0.069906
C3    C     C_R   0.468367 0.542295 0.875001 0.107932
C4    C     C_R   0.549101 0.523424 0.030796 -0.008228
C5    C     C_R   0.664892 0.606721 0.987923 0.139384
C6    C     C_R   0.681664 0.655544 0.890209 -0.232229
C7    C     C_R   0.586592 0.621962 0.833553 -0.203914
C8    C     C_R   0.548426 0.463065 0.123166 0.203891
C9    C     C_R   0.736701 0.603770 0.145878 -0.264398
C10   C     C_R   0.373675 0.503356 0.816502 -0.114126
C11   C     C_R   0.278158 0.876115 0.427059 -0.157593
C12   C     C_R   0.421182 0.504066 0.700664 0.788163
C13   C     C_R   0.144614 0.933267 0.437727 -0.159934
C14   C     C_R   0.113937 0.047932 0.489636 -0.143887
C15   C     C_R   0.222293 0.110804 0.520874 -0.167555
C16   C     C_R   0.364752 0.059700 0.499675 0.094562
C17   C     C_R   0.383532 0.933903 0.468250 0.097296
C18   C     C_R   0.505510 0.870489 0.481082 -0.118289
C19   C     C_R   0.622068 0.937136 0.498638 -0.218181
C20   C     C_R   0.616507 0.064338 0.507429 -0.213419
C21   C     C_R   0.489133 0.127462 0.508475 -0.114970
C22   C     C_R   0.912532 0.337028 0.359919 -0.150908
C23   C     C_R   0.496098 0.262300 0.505260 0.782590
C24   C     C_R   0.012032 0.255917 0.292378 -0.245152
C25   C     C_R   0.155236 0.254294 0.293391 -0.190111
C26   C     C_R   0.200049 0.334396 0.361417 -0.116962
C27   C     C_R   0.102457 0.418777 0.431829 0.178261
C28   C     C_R   0.952968 0.419369 0.431490 0.205872
C29   C     C_R   0.899893 0.577869 0.564201 -0.058965
C30   C     C_R   0.047783 0.577732 0.564304 -0.067631
C31   C     C_R   0.578888 0.501933 0.300130 0.796862
C32   C     C_R   0.760637 0.642945 0.044580 -0.205630
C33   C     C_R   0.626715 0.518021 0.187041 -0.049788
C34   C     C_R   0.237657 0.451862 0.868883 -0.189851
C35   C     C_R   0.198796 0.434642 0.976454 -0.144014
C36   C     C_R   0.299166 0.459618 0.031337 -0.212781
Cu1   Cu    Cu3+1 0.359340 0.500010 0.500010 0.920920
Cu2   Cu    Cu3+1 0.640660 0.499990 0.499990 0.923027
H1    H     H_    0.800840 0.643538 0.193374 0.167652
H2    H     H_    0.298334 0.787698 0.384768 0.162750
H3    H     H_    0.063283 0.886854 0.408616 0.135902
H4    H     H_    0.007066 0.089578 0.503779 0.139899
H5    H     H_    0.189543 0.196733 0.565005 0.168610
H6    H     H_    0.711807 0.113172 0.515561 0.165472
H7    H     H_    0.823552 0.642247 0.616322 0.128057
H8    H     H_    0.805753 0.330983 0.352233 0.202280
H9    H     H_    0.977426 0.193742 0.238915 0.153300
H10   H     H_    0.232431 0.190259 0.241121 0.167528
H11   H     H_    0.312194 0.325240 0.355569 0.224033
H12   H     H_    0.768902 0.719858 0.857251 0.136038
H13   H     H_    0.081610 0.641501 0.616937 0.141700
H14   H     H_    0.847546 0.708154 0.013433 0.145703
H15   H     H_    0.161806 0.423651 0.826470 0.155396
H16   H     H_    0.264486 0.445977 0.115023 0.167726
H17   H     H_    0.092029 0.398303 0.016935 0.149735
H18   H     H_    0.601369 0.665432 0.759889 0.151469
H19   H     H_    0.718109 0.891024 0.505941 0.160572
N1    N     N_R   0.852480 0.498790 0.499000 -0.196899
N2    N     N_R   0.148360 0.498710 0.498970 -0.203794
O1    O     O_R   0.381190 0.680360 0.500010 -0.587161
O2    O     O_R   0.618760 0.680340 0.500000 -0.587093
O3    O     O_R   0.323240 0.499990 0.650990 -0.577312
O4    O     O_R   0.560820 0.499960 0.650980 -0.571143
O5    O     O_R   0.381240 0.319660 0.500000 -0.614517
O6    O     O_R   0.618810 0.319640 0.499990 -0.595321
O7    O     O_R   0.439180 0.500040 0.349020 -0.584863
O8    O     O_R   0.676760 0.500010 0.349010 -0.606483
N3    N     N_2   0.486410 0.342272 0.144243 -0.447691
H20   H     H_    0.446977 0.303788 0.086485 0.260515
C37   C     C_3   0.575468 0.251118 0.173458 -0.737770
H21   H     H_    0.686374 0.245672 0.115175 0.232121
H22   H     H_    0.523339 0.159099 0.175397 0.223003
H23   H     H_    0.584412 0.271801 0.253140 0.218610

loop_
_geom_bond_atom_site_label_1
_geom_bond_atom_site_label_2
_ccdc_geom_bond_type
C31   O7    A    
C30   H13   S    
C16   C21   A    
C35   C36   A    
C4    C8    A    
C13   H3    S    
Cu1   O3    S    
C19   H19   S    
C31   O8    A    
C1    C18   S    
Cu1   Cu2   S    
C34   C35   A    
C3    C7    A    
C5    C6    A    
C15   C16   A    
C9    H1    S    
C18   C19   A    
C32   H14   S    
C9    C32   A    
Cu2   N1    S    
C19   C20   A    
C16   C17   A    
C31   C33   S    
C24   C25   A    
C37   H21   S    
C14   H4    S    
Cu2   O2    S    
C22   C28   A    
C13   C14   A    
C30   N2    A    
C9    C33   A    
C7    H18   S    
C20   H6    S    
C35   H17   S    
Cu2   O8    S    
C26   H11   S    
C12   O4    A    
N3    H20   S    
C25   C26   A    
C5    C32   A    
C6    H12   S    
C29   H7    S    
C2    C4    A    
C29   C30   A    
C12   O3    A    
Cu2   O6    S    
Cu1   O7    S    
C37   H23   S    
C17   C18   A    
C26   C27   A    
C10   C34   A    
C29   N1    A    
C25   H10   S    
Cu1   N2    S    
C10   C12   S    
C23   O5    A    
C22   H8    S    
C8    N3    S    
C21   C23   S    
C22   C24   A    
C1    O1    A    
Cu1   O5    S    
Cu2   O4    S    
C2    C36   A    
C11   C17   A    
C24   H9    S    
C4    C5    A    
C1    O2    A    
C6    C7    A    
C28   N1    A    
C23   O6    A    
C2    C3    A    
C15   H5    S    
C3    C10   A    
C27   N2    A    
C11   C13   A    
C8    C33   A    
C11   H2    S    
Cu1   O1    S    
C36   H16   S    
C20   C21   A    
C34   H15   S    
N3    C37   S    
C27   C28   A    
C14   C15   A    
C37   H22   S    
