data_mof_unit_30086.cif
_audit_creation_date              2012-12-10T19:45:49-0500
_audit_creation_method            fapswitch 2.2
_symmetry_space_group_name_H-M    P1
_symmetry_Int_Tables_number       1
_space_group_crystal_system       triclinic
_cell_length_a                    10.859115
_cell_length_b                    14.770791
_cell_length_c                    14.678426
_cell_angle_alpha                 65.393915
_cell_angle_beta                  104.686691
_cell_angle_gamma                 103.368087
_cell_volume                      2049.41064443

loop_
_atom_site_label
_atom_site_type_symbol
_atom_type_description
_atom_site_fract_x
_atom_site_fract_y
_atom_site_fract_z
_atom_type_partial_charge
C1    C     C_R   0.479581 0.119452 0.311608 0.836592
C2    C     C_R   0.519047 0.880467 0.688357 0.809664
C3    C     C_R   0.870697 0.002244 0.495080 -0.074460
C4    C     C_R   0.129321 0.997678 0.505026 -0.076863
C5    C     C_R   0.904305 0.956337 0.439062 0.002068
C6    C     C_R   0.095718 0.043513 0.561105 0.001672
C7    C     C_R   0.464126 0.187195 0.202522 -0.055929
C8    C     C_R   0.530947 0.812690 0.797460 -0.104740
C9    C     C_R   0.373372 0.221715 0.024186 -0.261971
C10   C     C_R   0.617982 0.778360 0.976559 -0.269034
C11   C     C_R   0.390071 0.153861 0.125213 0.094505
C12   C     C_R   0.604982 0.845676 0.875129 0.116596
C13   C     C_R   0.521227 0.288961 0.176066 0.046397
C14   C     C_R   0.470216 0.711284 0.824778 0.038138
C15   C     C_R   0.480744 0.360706 0.077618 0.041866
C16   C     C_R   0.507765 0.639885 0.923436 0.092604
C17   C     C_R   0.417077 0.324179 0.000071 0.111571
C18   C     C_R   0.571145 0.676263 0.001007 0.094298
C19   C     C_R   0.504097 0.466880 0.052487 0.055489
C20   C     C_R   0.481715 0.533741 0.948537 0.090863
C21   C     C_R   0.440819 0.492260 0.873018 -0.179684
C22   C     C_R   0.542585 0.508406 0.127898 -0.231715
C23   C     C_R   0.262799 0.998551 0.502681 0.777791
C24   C     C_R   0.737211 0.001416 0.497370 0.791300
C25   C     C_R   0.401827 0.389883 0.898461 -0.220402
C26   C     C_R   0.583007 0.610702 0.102705 -0.208488
C27   C     C_R   0.718584 0.292338 0.665345 -0.298723
C28   C     C_R   0.281623 0.707763 0.334487 -0.298100
C29   C     C_R   0.687853 0.210087 0.637021 0.385802
C30   C     C_R   0.312049 0.789825 0.363094 0.385782
C31   C     C_R   0.514951 0.283473 0.510351 -0.023671
C32   C     C_R   0.485365 0.716702 0.489378 -0.024915
C33   C     C_R   0.546781 0.371552 0.534973 -0.028124
C34   C     C_R   0.453809 0.628760 0.464531 -0.026578
C35   C     C_R   0.649743 0.372577 0.615576 0.110245
C36   C     C_R   0.350839 0.627730 0.383935 0.109561
C37   C     C_R   0.481212 0.458080 0.483709 0.078438
C38   C     C_R   0.519594 0.542342 0.515619 0.079367
C39   C     C_R   0.621628 0.537002 0.597882 -0.242900
C40   C     C_R   0.379388 0.463526 0.401282 -0.243058
C41   C     C_R   0.685413 0.453852 0.646424 -0.193830
C42   C     C_R   0.315498 0.546626 0.352822 -0.192722
C43   C     C_R   0.357865 0.065088 0.780516 -0.104342
C44   C     C_R   0.641689 0.933932 0.220204 -0.104883
C45   C     C_R   0.267609 0.024225 0.715922 -0.097609
C46   C     C_R   0.732079 0.975092 0.284491 -0.097873
C47   C     C_R   0.191475 0.086355 0.629995 0.124528
C48   C     C_R   0.808565 0.913228 0.370368 0.122637
C49   C     C_R   0.206080 0.189514 0.610295 -0.154842
C50   C     C_R   0.794289 0.810049 0.390244 -0.155398
C51   C     C_R   0.296861 0.230086 0.674913 -0.138907
C52   C     C_R   0.703429 0.769191 0.325896 -0.138469
C53   C     C_R   0.372895 0.167970 0.759830 -0.124912
C54   C     C_R   0.626934 0.831026 0.241106 -0.124491
C55   C     C_R   0.966585 0.045866 0.554513 -0.240407
C56   C     C_R   0.033436 0.954062 0.445601 -0.242718
Cu1   Cu    Cu3+1 0.466270 0.918260 0.475690 0.936331
Cu2   Cu    Cu3+1 0.533730 0.081740 0.524310 0.946588
H1    H     H_    0.443175 0.199517 0.809704 0.126228
H2    H     H_    0.556484 0.799246 0.191507 0.125790
H3    H     H_    0.322055 0.194419 0.964740 0.144108
H4    H     H_    0.669292 0.805582 0.036050 0.144133
H5    H     H_    0.439748 0.537219 0.793411 0.161643
H6    H     H_    0.541033 0.463285 0.207039 0.151090
H7    H     H_    0.764250 0.453289 0.709076 0.143101
H8    H     H_    0.236764 0.547245 0.290089 0.142685
H9    H     H_    0.565113 0.724477 0.547739 0.135492
H10   H     H_    0.435216 0.275727 0.451966 0.133874
H11   H     H_    0.799060 0.293625 0.726496 0.149519
H12   H     H_    0.201054 0.706432 0.273413 0.148865
H13   H     H_    0.654880 0.596097 0.626886 0.133394
H14   H     H_    0.346391 0.404554 0.372091 0.133576
H15   H     H_    0.415776 0.016881 0.846806 0.121738
H16   H     H_    0.583428 0.981920 0.153999 0.122487
H17   H     H_    0.257106 0.944429 0.732634 0.097043
H18   H     H_    0.742351 0.054902 0.267621 0.111291
H19   H     H_    0.148196 0.238508 0.544421 0.128252
H20   H     H_    0.852465 0.761253 0.456066 0.127192
H21   H     H_    0.308601 0.309748 0.658959 0.135610
H22   H     H_    0.691930 0.689513 0.342000 0.134878
H23   H     H_    0.940941 0.079072 0.599111 0.147207
H24   H     H_    0.059069 0.920895 0.400984 0.148095
H25   H     H_    0.363065 0.361639 0.838009 0.140358
H26   H     H_    0.620819 0.638921 0.163231 0.141304
N1    N     N_R   0.584450 0.204570 0.560790 -0.187688
N2    N     N_R   0.415550 0.795430 0.439210 -0.189000
O1    O     O_R   0.455540 0.022090 0.338120 -0.565277
O2    O     O_R   0.544460 0.977910 0.661880 -0.557290
O3    O     O_R   0.512510 0.160150 0.379180 -0.584774
O4    O     O_R   0.487490 0.839850 0.620820 -0.602735
O5    O     O_R   0.291160 0.930970 0.479480 -0.611958
O6    O     O_R   0.708840 0.069030 0.520520 -0.604798
O7    O     O_R   0.348130 0.069020 0.520540 -0.571769
O8    O     O_R   0.651870 0.930980 0.479460 -0.571638
N3    N     N_3   0.228386 0.864880 0.309569 -0.598276
H27   H     H_    0.260698 0.929963 0.323090 0.290095
H28   H     H_    0.139630 0.834604 0.333333 0.182923
N4    N     N_3   0.770954 0.134652 0.691110 -0.597317
H29   H     H_    0.739132 0.069906 0.676922 0.289683
H30   H     H_    0.860330 0.164785 0.668388 0.183040
N5    N     N_3   0.353994 0.685186 0.761870 -0.598589
H31   H     H_    0.374086 0.683879 0.696650 0.240999
H32   H     H_    0.292441 0.738444 0.740258 0.219581
N6    N     N_3   0.639186 0.311358 0.239828 -0.594736
H33   H     H_    0.701017 0.370088 0.196707 0.227800
H34   H     H_    0.620333 0.329059 0.296302 0.233706
N7    N     N_3   0.666105 0.947500 0.852297 -0.566484
H35   H     H_    0.765020 0.946652 0.878119 0.221510
H36   H     H_    0.633601 0.977659 0.893439 0.214691
N8    N     N_3   0.333068 0.051126 0.147939 -0.569492
H37   H     H_    0.233628 0.049472 0.123680 0.223389
H38   H     H_    0.366426 0.023128 0.105344 0.215516

loop_
_geom_bond_atom_site_label_1
_geom_bond_atom_site_label_2
_ccdc_geom_bond_type
C43   H15   S    
C1    O1    A    
N5    H31   S    
C31   N1    A    
C27   C29   A    
C5    C56   A    
C36   C42   A    
N3    H27   S    
C18   C26   A    
C6    C55   A    
C46   H18   S    
C53   H1    S    
C39   C41   A    
C54   H2    S    
C15   C19   A    
C37   C38   A    
C29   N4    S    
C9    H3    S    
Cu2   O7    S    
C37   C40   A    
C38   C39   A    
C24   O6    A    
Cu1   N2    S    
C2    O4    A    
N8    H37   S    
C3    C55   A    
C43   C53   A    
C19   C20   A    
C44   C46   A    
C49   C51   A    
C50   C52   A    
N7    H35   S    
C31   C33   A    
Cu1   O1    S    
C2    O2    A    
C14   C16   A    
C30   N2    A    
C40   H14   S    
C29   N1    A    
C27   H11   S    
C8    C12   A    
C48   C50   A    
N5    H32   S    
C1    C7    S    
C4    C56   A    
C11   N8    S    
N7    H36   S    
C3    C24   S    
C10   H4    S    
C50   H20   S    
N6    H34   S    
N6    H33   S    
C1    O3    A    
C52   C54   A    
C51   H21   S    
C45   C47   A    
C31   H10   S    
C5    C48   S    
C46   C48   A    
C6    C47   S    
C19   C22   A    
C4    C6    A    
Cu1   O4    S    
C4    C23   S    
C14   N5    S    
C41   H7    S    
C27   C35   A    
C33   C37   A    
C23   O7    A    
C51   C53   A    
C32   C34   A    
C7    C11   A    
C30   N3    S    
C24   O8    A    
C43   C45   A    
C16   C20   A    
C32   N2    A    
C13   N6    S    
C44   H16   S    
C9    C11   A    
C10   C12   A    
C32   H9    S    
C9    C17   A    
N4    H30   S    
Cu1   O8    S    
C13   C15   A    
C23   O5    A    
C55   H23   S    
Cu2   N1    S    
C25   H25   S    
C15   C17   A    
C21   C25   A    
C8    C14   A    
Cu1   O5    S    
C34   C38   A    
C28   H12   S    
C3    C5    A    
Cu2   O2    S    
C12   N7    S    
N3    H28   S    
C56   H24   S    
C47   C49   A    
C45   H17   S    
C17   C25   A    
C28   C30   A    
C26   H26   S    
Cu1   Cu2   S    
C10   C18   A    
C40   C42   A    
C33   C35   A    
C49   H19   S    
C34   C36   A    
C35   C41   A    
Cu2   O3    S    
N8    H38   S    
C21   H5    S    
C22   H6    S    
C44   C54   A    
C7    C13   A    
C20   C21   A    
C28   C36   A    
C16   C18   A    
N4    H29   S    
C22   C26   A    
C2    C8    S    
C42   H8    S    
C39   H13   S    
C52   H22   S    
Cu2   O6    S    
