data_mof_unit_66763.cif
_audit_creation_date              2013-03-05T15:40:48-0500
_audit_creation_method            fapswitch 2.2
_symmetry_space_group_name_H-M    P1
_symmetry_Int_Tables_number       1
_space_group_crystal_system       triclinic
_cell_length_a                    8.247458
_cell_length_b                    12.946258
_cell_length_c                    15.141864
_cell_angle_alpha                 96.225062
_cell_angle_beta                  99.476491
_cell_angle_gamma                 97.689356
_cell_volume                      1566.21095572

loop_
_atom_site_label
_atom_site_type_symbol
_atom_site_description
_atom_site_fract_x
_atom_site_fract_y
_atom_site_fract_z
_atom_type_partial_charge
P1    P     P_3+3 0.998660 0.747790 0.570900 0.409127
O1    O     O_2   0.168170 0.764170 0.543850 -0.370063
O2    O     O_3   0.898670 0.629780 0.545890 -0.474363
O3    O     O_3   0.365980 0.695510 0.380810 -0.378039
O4    O     O_2   0.287678 0.879342 0.435263 -0.394239
O5    O     O_3   0.077978 0.784062 0.687611 -0.558091
O6    O     O_3   0.330935 0.847642 0.268844 -0.432147
H1    H     H_    0.494345 0.744286 0.234960 -0.064810
C1    C     C_3   0.338632 0.776079 0.117018 0.090089
H2    H     H_    0.245323 0.705961 0.117523 0.164524
P2    P     P_3+3 0.306970 0.411860 0.294270 0.495653
P3    P     P_3+3 0.888125 0.624106 0.218658 0.490310
O7    O     O_2   0.136040 0.444100 0.280280 -0.377448
O8    O     O_3   0.934510 0.640480 0.335500 -0.389797
O9    O     O_2   0.007117 0.557263 0.179028 -0.378103
O10   O     O_3   0.265860 0.274799 0.278069 -0.529426
O11   O     O_3   0.937137 0.747254 0.185816 -0.488944
C2    C     C_3   0.908671 0.822322 0.253261 0.414921
H3    H     H_    0.014167 0.836962 0.311226 0.168577
H4    H     H_    0.790566 0.798774 0.277521 -0.013846
C3    C     C_3   0.893537 0.922534 0.213754 -0.801460
H5    H     H_    0.855637 0.979614 0.263524 0.230771
H6    H     H_    0.013217 0.955028 0.195703 0.330480
C4    C     C_3   0.793013 0.263641 0.248051 0.826997
H7    H     H_    0.909522 0.315826 0.278606 0.013968
C5    C     C_3   0.827948 0.186813 0.167671 0.790797
H8    H     H_    0.807483 0.227916 0.106286 -0.111511
Ba1   Ba    Ba6+2 0.153570 0.551840 0.456200 1.572080
C6    C     C_3   0.982069 0.733658 0.743098 0.260515
H9    H     H_    0.055893 0.680377 0.779007 0.060711
H10   H     H_    0.863865 0.691191 0.705028 0.148091
C7    C     C_3   0.946989 0.812665 0.816017 -0.791465
H11   H     H_    0.062931 0.866093 0.849095 0.289064
H12   H     H_    0.894350 0.770997 0.867754 0.232883
H13   H     H_    0.853994 0.857962 0.785236 0.239979
C8    C     C_3   0.251703 0.237887 0.360922 0.408863
H14   H     H_    0.141661 0.263079 0.384718 -0.042288
H15   H     H_    0.362928 0.267657 0.413276 0.125486
C9    C     C_3   0.234064 0.118404 0.349970 0.044604
H16   H     H_    0.102398 0.083977 0.326224 0.113730
H17   H     H_    0.276135 0.091343 0.415453 0.103028
P4    P     P_3+3 0.811620 0.252200 0.429030 0.490626
O12   O     O_2   0.642110 0.235770 0.456130 -0.345437
O13   O     O_3   0.911620 0.370210 0.454030 -0.434770
O14   O     O_3   0.444310 0.304480 0.619110 -0.364461
O15   O     O_3   0.734547 0.205273 0.312871 -0.556961
P5    P     P_3+3 0.922324 0.371589 0.783377 0.480161
O16   O     O_3   0.400800 0.556680 0.607590 -0.388592
O17   O     O_3   0.875770 0.359510 0.664420 -0.379059
O18   O     O_2   0.787022 0.425165 0.821688 -0.390528
O19   O     O_3   0.898417 0.245597 0.814557 -0.505624
Ba2   Ba    Ba6+2 0.656590 0.448150 0.543720 1.568721
P6    P     P_3+3 0.407585 0.830956 0.380194 0.483644
C10   C     C_3   0.437181 0.812295 0.212374 0.367922
H18   H     H_    0.537171 0.878025 0.210526 0.087903
H19   H     H_    0.424643 0.754266 0.071388 0.043298
O20   O     O_3   0.409490 0.443300 0.392340 -0.404021
C11   C     C_3   0.546177 0.770336 0.650762 0.410599
H20   H     H_    0.652241 0.749153 0.620338 0.040647
H21   H     H_    0.430889 0.735279 0.604092 0.166731
C12   C     C_3   0.549238 0.888426 0.658448 -0.956395
H22   H     H_    0.679045 0.928608 0.675619 0.208827
H23   H     H_    0.494613 0.910433 0.592612 0.264330
H24   H     H_    0.475983 0.914827 0.709593 0.280380
P7    P     P_3+3 0.503853 0.598169 0.720407 0.447749
O21   O     O_2   0.674250 0.555830 0.719690 -0.389871
O22   O     O_3   0.551992 0.735879 0.736182 -0.578755
H25   H     H_    0.797314 0.904113 0.151825 0.249188
C13   C     C_3   0.927245 0.174301 0.743843 0.289944
H26   H     H_    0.809209 0.148660 0.694687 0.112638
H27   H     H_    0.021671 0.208650 0.706626 0.014734
C14   C     C_3   0.988691 0.077818 0.780682 0.111683
H28   H     H_    0.941949 0.006558 0.730904 0.042179
H29   H     H_    0.125855 0.087617 0.787612 0.116737
P8    P     P_3+3 0.400310 0.169519 0.623284 0.427758
C15   C     C_3   0.420806 0.237995 0.790627 0.518680
H30   H     H_    0.289769 0.249279 0.770429 0.015204
O23   O     O_2   0.524210 0.117899 0.573114 -0.401441
O24   O     O_3   0.458078 0.151749 0.736596 -0.546947
H31   H     H_    0.503003 0.311303 0.785264 0.156388
H32   H     H_    0.389116 0.277742 0.928477 0.241283
C16   C     C_3   0.447576 0.220388 0.889169 -1.087595
H33   H     H_    0.582631 0.232982 0.917199 0.265414
H34   H     H_    0.391143 0.139571 0.896185 0.277873
C17   C     C_R   0.078647 0.183186 0.536617 -0.512762
C18   C     C_R   0.730773 0.817657 0.465477 -0.489166
C19   C     C_R   0.691125 0.993715 0.434576 -0.184672
C20   C     C_R   0.628941 0.886021 0.428596 0.175432
C21   C     C_R   0.891269 0.853086 0.514570 0.276357
C22   C     C_R   0.955375 0.964744 0.522416 -0.048935
C23   C     C_R   0.853839 0.036223 0.480621 -0.057964
C24   C     C_R   0.917794 0.147994 0.488169 0.229469
C25   C     C_R   0.180293 0.114670 0.573514 0.181071
C26   C     C_R   0.117912 0.007184 0.568820 -0.231516
H35   H     H_    0.609949 0.044028 0.405056 0.228859
H36   H     H_    0.198620 0.957353 0.600387 0.196345
H37   H     H_    0.129007 0.265715 0.542599 0.194565
H38   H     H_    0.680569 0.735068 0.459438 0.167972
C27   C     C_R   0.236838 0.476176 0.772336 0.198021
C28   C     C_R   0.134265 0.441677 0.831195 0.136073
C29   C     C_R   0.194613 0.457957 0.924040 -0.345778
C30   C     C_R   0.356436 0.513408 0.959592 0.114731
C31   C     C_R   0.448693 0.559280 0.897577 -0.341500
C32   C     C_R   0.390205 0.538990 0.804170 0.180629
C33   C     C_R   0.599470 0.560957 0.090214 -0.302347
C34   C     C_R   0.670292 0.568319 0.180817 0.243239
C35   C     C_R   0.412398 0.485318 0.214895 0.335185
C36   C     C_R   0.337086 0.482572 0.123689 -0.353362
C37   C     C_R   0.429715 0.520904 0.059076 0.089297
C38   C     C_R   0.576661 0.533421 0.243459 -0.314744
H39   H     H_    0.681660 0.585869 0.045665 0.156803
H40   H     H_    0.113963 0.424573 0.966164 0.168225
H41   H     H_    0.209410 0.445660 0.104668 0.159210
H42   H     H_    0.565460 0.610967 0.919376 0.158753
H43   H     H_    0.635224 0.536842 0.313348 0.161014
O25   O     O_3   0.716754 0.091240 0.160132 -0.605018
C39   C     C_3   0.656135 0.047157 0.069722 -0.285728
H44   H     H_    0.755299 0.014668 0.040066 0.158936
H45   H     H_    0.598934 0.103327 0.028928 0.127455
H46   H     H_    0.557128 0.980135 0.068704 0.226866
O26   O     O_3   0.992434 0.164735 0.185281 -0.660789
C40   C     C_3   0.067993 0.170727 0.108088 -0.033356
H47   H     H_    0.093220 0.253655 0.094982 0.082457
H48   H     H_    0.992031 0.121458 0.047208 0.155112
H49   H     H_    0.188159 0.140913 0.120215 0.215664
Cl1   Cl    Cl    0.357557 0.071455 0.273583 -0.562239
Cl2   Cl    Cl    0.232918 0.876469 0.073558 -0.606383
O27   O     O_3   0.950624 0.063941 0.866773 -0.572425
C41   C     C_3   0.777163 0.043208 0.864246 -0.078151
H50   H     H_    0.698393 0.045874 0.798160 0.157560
H51   H     H_    0.745299 0.104218 0.912145 0.149625
H52   H     H_    0.743901 0.965289 0.885905 0.134611
O28   O     O_3   0.185725 0.447899 0.681629 -0.650543
C42   C     C_3   0.089478 0.522317 0.651011 0.144837
H53   H     H_    0.164447 0.599627 0.651940 0.112725
H54   H     H_    0.989231 0.534952 0.689148 0.067391
H55   H     H_    0.025947 0.489051 0.583274 0.227511
O29   O     O_3   0.672409 0.327582 0.217860 -0.675897
C43   C     C_3   0.536208 0.270607 0.152868 -0.195487
H56   H     H_    0.499781 0.189184 0.165096 0.240149
H57   H     H_    0.561087 0.275118 0.083593 0.119281
H58   H     H_    0.422779 0.304150 0.154234 0.157346

loop_
_geom_bond_atom_site_label_1
_geom_bond_atom_site_label_2
_geom_bond_distance
_ccdc_geom_bond_type
C19   C20   1.407510 A    
C29   C30   1.417603 A    
C19   C23   1.414538 A    
O3    P6    1.742479 S    
C12   H24   1.110635 S    
C2    C3    1.497882 S    
C43   H57   1.107594 S    
C15   O24   1.409642 S    
O27   C41   1.413206 S    
C42   H55   1.085752 S    
H32   C16   1.110187 S    
P5    O17   1.763915 S    
Ba1   O20   2.921583 S    
C36   C37   1.427250 A    
C29   H40   1.076396 S    
C5    H8    1.120376 S    
C25   C26   1.407498 A    
C14   O27   1.414422 S    
O4    P6    1.545861 D    
O2    Ba1   2.914221 S    
C4    C5    1.575846 S    
C2    H3    1.109790 S    
C6    C7    1.512770 S    
C13   H26   1.110509 S    
C39   H45   1.107324 S    
C43   H58   1.085037 S    
C18   C20   1.397223 A    
O12   Ba2   2.898672 S    
C11   H21   1.096884 S    
O25   C39   1.406621 S    
C27   O28   1.362770 S    
C12   H23   1.107238 S    
P1    O1    1.515014 D    
P4    O15   1.778632 S    
C13   H27   1.108152 S    
C17   C25   1.397850 A    
P7    O22   1.755036 S    
C19   H35   1.074062 S    
P3    O11   1.737279 S    
P1    Ba1   3.424415 S    
C35   C36   1.412540 A    
O7    Ba1   2.841743 S    
C5    O26   1.412205 S    
O16   P7    1.769122 S    
C1    H2    1.110324 S    
C2    H4    1.113249 S    
C41   H52   1.108024 S    
O13   Ba2   2.915125 S    
C11   C12   1.517098 S    
C27   C32   1.390166 A    
C33   H39   1.076003 S    
C9    Cl1   1.773621 S    
C3    H5    1.109208 S    
C30   C31   1.431323 A    
P4    O13   1.610036 S    
O3    Ba1   2.842295 S    
C17   C24   1.396782 A    
C22   C26   1.414786 A    
P5    O18   1.547858 D    
P1    O5    1.768801 S    
C7    H13   1.100590 S    
C31   H42   1.076626 S    
C15   H30   1.107226 S    
C14   H29   1.107452 S    
Ba2   O20   2.794204 S    
C39   H46   1.106003 S    
H1    C10   1.112535 S    
C23   C24   1.457804 A    
C42   H54   1.103050 S    
O14   Ba2   2.841659 S    
C4    O29   1.426980 S    
C11   H20   1.105493 S    
Ba1   O13   2.866742 S    
P5    C28   1.849145 S    
P1    O2    1.610016 S    
C7    H12   1.110927 S    
C36   H41   1.075063 S    
C13   C14   1.534807 S    
C6    H9    1.107643 S    
P2    O10   1.743829 S    
C27   C28   1.393894 A    
P3    O9    1.542922 D    
C43   H56   1.100747 S    
O17   Ba2   2.801227 S    
O11   C2    1.402622 S    
C1    H19   1.110404 S    
C1    Cl2   1.783856 S    
C4    H7    1.098147 S    
C26   H36   1.079236 S    
O26   C40   1.416733 S    
P3    O8    1.730749 S    
P7    O21   1.576524 D    
C16   H34   1.110269 S    
C3    H6    1.108420 S    
C3    H25   1.105352 S    
P2    C35   1.864327 S    
O28   C42   1.397712 S    
C35   C38   1.390367 A    
P4    O12   1.515374 D    
O6    P6    1.747460 S    
C15   C16   1.518503 S    
C9    H16   1.101947 S    
Ba2   O21   2.841929 S    
P8    C25   1.858410 S    
C41   H50   1.106349 S    
C34   C38   1.393159 A    
C33   C37   1.409483 A    
C10   H18   1.109032 S    
Ba1   O16   2.794966 S    
P1    C21   1.922694 S    
C8    C9    1.522380 S    
C15   H31   1.108845 S    
C14   H28   1.107334 S    
C18   C21   1.398090 A    
P5    O19   1.741821 S    
O2    Ba2   2.867368 S    
C42   H53   1.101235 S    
Ba1   Ba2   4.589179 S    
C33   C34   1.387526 A    
P7    C32   1.866607 S    
O14   P8    1.746521 S    
C4    O15   1.409260 S    
C7    H11   1.110780 S    
C40   H49   1.105768 S    
C8    H15   1.103686 S    
C21   C22   1.456308 A    
C6    H10   1.089843 S    
C39   H44   1.104292 S    
O10   C8    1.406844 S    
P3    C34   1.817045 S    
P2    O7    1.511539 D    
C22   C23   1.455324 A    
P8    O24   1.752007 S    
P2    Ba1   3.401187 S    
C28   C29   1.394931 A    
P6    C20   1.864423 S    
P4    C24   1.925769 S    
C12   H22   1.101963 S    
C18   H38   1.082077 S    
P8    O23   1.547952 D    
C5    O25   1.419945 S    
C17   H37   1.081739 S    
O29   C43   1.425199 S    
C11   O22   1.408775 S    
O16   Ba2   2.920671 S    
O5    C6    1.398936 S    
C9    H17   1.104920 S    
C8    H14   1.105118 S    
C16   H33   1.108207 S    
C31   C32   1.401053 A    
C30   C37   1.515468 S    
O1    Ba1   2.898250 S    
C1    C10   1.526429 S    
O19   C13   1.408268 S    
O6    C10   1.406251 S    
O8    Ba1   2.800639 S    
C40   H47   1.111463 S    
P2    O20   1.564956 S    
C40   H48   1.106567 S    
C38   H43   1.082107 S    
P4    Ba2   3.424889 S    
C41   H51   1.101373 S    
