data_mof_unit_13097.cif
_audit_creation_date              2012-12-10T16:44:16-0500
_audit_creation_method            fapswitch 2.2
_symmetry_space_group_name_H-M    P1
_symmetry_Int_Tables_number       1
_space_group_crystal_system       triclinic
_cell_length_a                    7.422861
_cell_length_b                    8.709534
_cell_length_c                    13.388723
_cell_angle_alpha                 94.022904
_cell_angle_beta                  77.361684
_cell_angle_gamma                 103.012874
_cell_volume                      822.715530768

loop_
_atom_site_label
_atom_site_type_symbol
_atom_type_description
_atom_site_fract_x
_atom_site_fract_y
_atom_site_fract_z
_atom_type_partial_charge
C1    C     C_R   0.547679 0.799586 0.498693 0.764181
C2    C     C_R   0.417025 0.507561 0.975957 0.008370
C3    C     C_R   0.464786 0.553824 0.872407 0.087528
C4    C     C_R   0.558275 0.546469 0.036017 0.123096
C5    C     C_R   0.736574 0.644492 0.995564 0.183758
C6    C     C_R   0.772138 0.703920 0.897690 -0.257188
C7    C     C_R   0.637868 0.660884 0.837443 -0.170469
C8    C     C_R   0.528434 0.489697 0.135019 -0.210430
C9    C     C_R   0.838898 0.633287 0.154592 -0.192879
C10   C     C_R   0.336825 0.493775 0.806973 -0.189791
C11   C     C_2   0.581691 0.966274 0.487097 0.322838
C12   C     C_R   0.399380 0.497724 0.694579 0.805506
C13   C     C_2   0.433025 0.032568 0.495146 -0.493239
C14   C     C_R   0.456141 0.199989 0.495724 0.910871
C15   C     C_R   0.601769 0.511414 0.305854 0.761427
C16   C     C_R   0.876179 0.684937 0.054460 -0.182764
C17   C     C_R   0.662742 0.538776 0.195836 -0.033987
C18   C     C_R   0.153039 0.412012 0.848739 -0.264608
C19   C     C_R   0.098560 0.378370 0.952424 0.564226
C20   C     C_R   0.229277 0.426514 0.015758 -0.298920
Cu1   Cu    Cu3+1 0.321300 0.483160 0.488710 0.950419
Cu2   Cu    Cu3+1 0.678700 0.516840 0.511290 0.972902
H1    H     H_    0.944001 0.672780 0.200940 0.142477
H2    H     H_    0.289674 0.962201 0.503996 0.156085
H3    H     H_    0.010143 0.616037 0.580260 0.224535
H4    H     H_    0.904731 0.783940 0.867336 0.139134
H5    H     H_    0.012287 0.760060 0.023949 0.125561
H6    H     H_    0.399622 0.408775 0.167946 0.132220
H7    H     H_    0.052390 0.368841 0.800169 0.185778
H8    H     H_    0.670226 0.716316 0.764056 0.164437
N1    N     N_2   0.947230 0.542220 0.528320 -0.210334
N2    N     N_2   0.052770 0.457780 0.471680 -0.199857
O1    O     O_R   0.383920 0.714220 0.492660 -0.615814
O2    O     O_R   0.685730 0.742660 0.511730 -0.562880
O3    O     O_R   0.275440 0.478800 0.636790 -0.581723
O4    O     O_R   0.577250 0.507240 0.655860 -0.577902
O5    O     O_R   0.314270 0.257340 0.488270 -0.579789
O6    O     O_R   0.616080 0.285780 0.507340 -0.517837
O7    O     O_R   0.422750 0.492760 0.344140 -0.589505
O8    O     O_R   0.724560 0.521200 0.363210 -0.597780
H9    H     H_    0.990113 0.385009 0.419291 0.236866
H10   H     H_    0.177538 0.404077 0.096185 0.141251
O9    O     O_3   0.913240 0.304161 0.991486 -0.565928
C21   C     C_3   0.908564 0.152754 0.024617 -0.335226
H11   H     H_    0.964052 0.159881 0.095852 0.147967
H12   H     H_    0.987078 0.083944 0.963866 0.153595
H13   H     H_    0.759239 0.087065 0.042583 0.194295
O10   O     O_3   0.766340 0.053443 0.473099 -0.535273
C22   C     C_3   0.853829 0.041367 0.368910 -0.308541
H14   H     H_    0.782114 0.093521 0.319165 0.138414
H15   H     H_    0.857858 0.917139 0.344505 0.153411
H16   H     H_    0.002337 0.108646 0.357819 0.181516

loop_
_geom_bond_atom_site_label_1
_geom_bond_atom_site_label_2
_ccdc_geom_bond_type
H3    N1    S    
C20   H10   S    
O9    C21   S    
C6    C7    A    
Cu1   O3    S    
C12   O4    A    
Cu2   O4    S    
C2    C4    A    
C8    C17   A    
Cu1   O7    S    
C21   H13   S    
C4    C8    A    
C22   H16   S    
Cu2   O8    S    
C16   H5    S    
C2    C3    A    
C1    O1    A    
C3    C10   A    
C13   C14   S    
C14   O5    A    
C11   C13   D    
C15   O7    A    
C11   O10   S    
C6    H4    S    
C10   C12   S    
C10   C18   A    
C8    H6    S    
C9    C17   A    
O10   C22   S    
C9    C16   A    
C19   O9    S    
C1    O2    A    
C18   C19   A    
C3    C7    A    
C5    C6    A    
Cu2   O2    S    
Cu1   N2    S    
C12   O3    A    
C15   O8    A    
Cu1   O1    S    
Cu2   N1    S    
N2    H9    S    
C2    C20   A    
C14   O6    A    
Cu2   O6    S    
Cu1   O5    S    
C21   H11   S    
C15   C17   S    
C22   H14   S    
C18   H7    S    
C9    H1    S    
C5    C16   A    
C1    C11   S    
Cu1   Cu2   S    
N1    N2    D    
C19   C20   A    
C13   H2    S    
C21   H12   S    
C4    C5    A    
C22   H15   S    
C7    H8    S    
