data_mof_unit_61840.cif
_audit_creation_date              2013-03-05T15:56:09-0500
_audit_creation_method            fapswitch 2.2
_symmetry_space_group_name_H-M    P1
_symmetry_Int_Tables_number       1
_space_group_crystal_system       triclinic
_cell_length_a                    38.683849
_cell_length_b                    21.690754
_cell_length_c                    21.714577
_cell_angle_alpha                 89.999987
_cell_angle_beta                  124.096538
_cell_angle_gamma                 90.0
_cell_volume                      15088.1311177

loop_
_atom_site_label
_atom_site_type_symbol
_atom_site_description
_atom_site_fract_x
_atom_site_fract_y
_atom_site_fract_z
_atom_type_partial_charge
O1    O     O_R   0.999990 0.947780 0.090170 -0.565012
O2    O     O_R   0.000010 0.947780 0.909830 -0.565067
O3    O     O_R   0.499990 0.447780 0.090170 -0.565111
O4    O     O_R   0.500010 0.447780 0.909830 -0.565082
O5    O     O_R   0.999990 0.052220 0.090220 -0.583803
O6    O     O_R   0.000010 0.052220 0.909780 -0.583705
O7    O     O_R   0.499990 0.552220 0.090220 -0.583654
O8    O     O_R   0.500010 0.552220 0.909780 -0.583716
C1    C     C_R   0.000660 0.999993 0.119483 0.838547
C2    C     C_R   0.999340 0.999993 0.880517 0.838626
C3    C     C_R   0.500660 0.499993 0.119483 0.838626
C4    C     C_R   0.499340 0.499993 0.880517 0.838578
O9    O     O_R   0.060280 0.947780 0.060280 -0.557889
O10   O     O_R   0.939720 0.947780 0.939720 -0.558027
O11   O     O_R   0.560280 0.447780 0.060280 -0.558109
O12   O     O_R   0.439720 0.447780 0.939720 -0.558030
O13   O     O_R   0.060280 0.052220 0.060320 -0.588081
O14   O     O_R   0.939720 0.052220 0.939680 -0.587939
O15   O     O_R   0.560280 0.552220 0.060320 -0.587857
O16   O     O_R   0.439720 0.552220 0.939680 -0.587933
C5    C     C_R   0.079954 0.000002 0.079510 0.852425
C6    C     C_R   0.920046 0.000002 0.920492 0.852472
C7    C     C_R   0.579954 0.500001 0.079508 0.852473
C8    C     C_R   0.420046 0.500001 0.920492 0.852448
Cu1   Cu    Cu3+1 0.000000 0.938160 0.000000 1.066069
Cu2   Cu    Cu3+1 0.500000 0.438160 0.000000 1.065919
Cu3   Cu    Cu3+1 1.000000 0.061840 0.000000 1.008660
Cu4   Cu    Cu3+1 0.500000 0.561840 0.000000 1.008948
C9    C     C_3   0.225447 0.933206 0.214569 -0.386513
C10   C     C_3   0.774553 0.933083 0.784654 -0.386303
C11   C     C_3   0.725445 0.433016 0.215793 -0.386171
C12   C     C_3   0.274554 0.433082 0.784652 -0.386294
C13   C     C_3   0.225905 0.025901 0.288243 0.210981
C14   C     C_3   0.774097 0.026627 0.712070 0.210979
C15   C     C_3   0.725903 0.527042 0.287751 0.210996
C16   C     C_3   0.274096 0.526628 0.712068 0.211003
C17   C     C_3   0.274620 0.024417 0.337230 -0.501614
C18   C     C_3   0.725382 0.025151 0.663063 -0.501594
C19   C     C_3   0.774619 0.525570 0.336765 -0.501583
C20   C     C_3   0.225380 0.525152 0.663063 -0.501595
H1    H     H_    0.282850 0.905931 0.317425 0.131415
H2    H     H_    0.717153 0.906343 0.681478 0.131496
H3    H     H_    0.782845 0.406586 0.319149 0.131524
H4    H     H_    0.217153 0.406344 0.681476 0.131462
H5    H     H_    0.212238 0.900328 0.235383 0.207986
H6    H     H_    0.787765 0.900605 0.763463 0.208118
H7    H     H_    0.712233 0.400770 0.237200 0.208186
H8    H     H_    0.287765 0.400605 0.763459 0.208106
H9    H     H_    0.216202 0.075213 0.281162 0.115475
H10   H     H_    0.783802 0.075965 0.719726 0.115451
H11   H     H_    0.716198 0.576392 0.279765 0.115447
H12   H     H_    0.283801 0.575966 0.719725 0.115467
H13   H     H_    0.286622 0.995620 0.387752 0.216053
H14   H     H_    0.713380 0.996810 0.612205 0.216094
H15   H     H_    0.786623 0.497494 0.387815 0.216104
H16   H     H_    0.213378 0.496813 0.612204 0.216074
C21   C     C_1   0.375175 0.000038 0.375331 -0.122866
C22   C     C_1   0.624825 0.000040 0.624667 -0.122870
C23   C     C_1   0.875175 0.500040 0.375331 -0.122889
C24   C     C_1   0.124825 0.500039 0.624668 -0.122886
C25   C     C_3   0.208604 0.999398 0.208983 0.122596
C26   C     C_3   0.791396 0.999403 0.791015 0.122549
C27   C     C_3   0.708604 0.499405 0.208988 0.122505
C28   C     C_3   0.291396 0.499402 0.791014 0.122528
C29   C     C_3   0.274034 0.932409 0.266566 0.216857
C30   C     C_3   0.725966 0.932325 0.732643 0.216798
C31   C     C_3   0.774033 0.432280 0.267810 0.216761
C32   C     C_3   0.225967 0.432324 0.732642 0.216792
C33   C     C_3   0.291351 0.999376 0.291650 0.130379
C34   C     C_3   0.708649 0.999379 0.708342 0.130352
C35   C     C_3   0.791351 0.499380 0.291659 0.130334
C36   C     C_3   0.208649 0.499378 0.708344 0.130347
C37   C     C_3   0.274126 0.042036 0.222836 -0.343309
C38   C     C_3   0.725872 0.041430 0.777652 -0.343258
C39   C     C_3   0.774127 0.541079 0.222067 -0.343220
C40   C     C_3   0.225873 0.541428 0.777656 -0.343245
C41   C     C_3   0.225665 0.040490 0.173174 -0.450335
C42   C     C_3   0.774333 0.039872 0.827297 -0.450474
C43   C     C_3   0.725666 0.539515 0.172435 -0.450544
C44   C     C_3   0.274334 0.539871 0.827298 -0.450462
C45   C     C_1   0.337485 0.999825 0.337753 -0.015442
C46   C     C_1   0.662515 0.999829 0.662243 -0.015421
C47   C     C_1   0.837485 0.499829 0.337755 -0.015418
C48   C     C_1   0.162515 0.499828 0.662246 -0.015429
C49   C     C_1   0.162488 0.999757 0.162315 -0.014539
C50   C     C_1   0.837512 0.999756 0.837689 -0.014463
C51   C     C_1   0.662488 0.499756 0.162313 -0.014414
C52   C     C_1   0.337512 0.499756 0.837686 -0.014451
C53   C     C_1   0.124807 0.999949 0.124404 -0.082837
C54   C     C_1   0.875193 0.999948 0.875600 -0.082762
C55   C     C_1   0.624807 0.499948 0.124401 -0.082700
C56   C     C_1   0.375193 0.499948 0.875598 -0.082741
H17   H     H_    0.213338 0.088257 0.165383 0.177268
H18   H     H_    0.786659 0.087690 0.835644 0.177217
H19   H     H_    0.713341 0.587359 0.163770 0.177207
H20   H     H_    0.286660 0.587688 0.835646 0.177248
H21   H     H_    0.286762 0.028758 0.189748 0.228069
H22   H     H_    0.713236 0.027615 0.810580 0.228069
H23   H     H_    0.786761 0.526954 0.189230 0.228064
H24   H     H_    0.213238 0.527610 0.810585 0.228066
H25   H     H_    0.214491 0.916670 0.157887 0.204126
H26   H     H_    0.785507 0.916013 0.841140 0.204165
H27   H     H_    0.714492 0.415641 0.159423 0.204194
H28   H     H_    0.285509 0.416011 0.841137 0.204173
C57   C     C_R   0.969782 0.030193 0.187041 -0.222823
C58   C     C_R   0.030226 0.030175 0.812968 -0.222784
C59   C     C_R   0.469768 0.530164 0.187026 -0.222804
C60   C     C_R   0.530227 0.530174 0.812969 -0.222839
H29   H     H_    0.945160 0.053676 0.137515 0.152977
H30   H     H_    0.054855 0.053643 0.862501 0.152991
H31   H     H_    0.445136 0.553623 0.137489 0.152969
H32   H     H_    0.554855 0.553642 0.862502 0.152957
C61   C     C_R   0.968669 0.029183 0.249825 -0.154984
C62   C     C_R   0.031339 0.029165 0.750184 -0.154917
C63   C     C_R   0.468656 0.529154 0.249811 -0.154932
C64   C     C_R   0.531339 0.529164 0.750184 -0.154974
H33   H     H_    0.943566 0.052653 0.248589 0.162309
H34   H     H_    0.056449 0.052620 0.751426 0.162340
H35   H     H_    0.443542 0.552600 0.248565 0.162323
H36   H     H_    0.556449 0.552619 0.751426 0.162309
C65   C     C_R   0.000256 0.999133 0.314131 -0.088631
C66   C     C_R   0.999744 0.999133 0.685870 -0.088680
C67   C     C_R   0.500256 0.499133 0.314130 -0.088690
C68   C     C_R   0.499744 0.499133 0.685870 -0.088662
C69   C     C_R   0.032629 0.969250 0.315113 -0.214288
C70   C     C_R   0.967363 0.969269 0.684880 -0.214209
C71   C     C_R   0.532642 0.469280 0.315124 -0.214186
C72   C     C_R   0.467363 0.469269 0.684880 -0.214244
H37   H     H_    0.057122 0.946312 0.365268 0.190578
H38   H     H_    0.942863 0.946345 0.634720 0.190589
H39   H     H_    0.557145 0.446364 0.365288 0.190587
H40   H     H_    0.442863 0.446346 0.634719 0.190575
C73   C     C_R   0.033887 0.969213 0.252080 0.334908
C74   C     C_R   0.966106 0.969233 0.747913 0.335101
C75   C     C_R   0.533899 0.469245 0.252091 0.335220
C76   C     C_R   0.466105 0.469234 0.747913 0.335112
C77   C     C_R   0.001941 0.000074 0.187537 -0.120271
C78   C     C_R   0.998059 0.000075 0.812464 -0.120262
C79   C     C_R   0.501940 0.500076 0.187535 -0.120228
C80   C     C_R   0.498059 0.500075 0.812464 -0.120232
C81   C     C_R   0.500000 0.185862 0.500000 -0.008479
C82   C     C_R   0.000000 0.685862 0.500000 -0.008471
O17   O     O_R   0.500000 0.909980 0.552210 -0.578165
O18   O     O_R   0.500000 0.909980 0.447790 -0.578115
O19   O     O_R   0.000000 0.409980 0.552210 -0.578140
O20   O     O_R   0.000000 0.409980 0.447790 -0.578178
C83   C     C_R   0.500000 0.881249 0.500000 0.786314
C84   C     C_R   1.000000 0.381248 0.500000 0.786426
O21   O     O_R   0.439710 0.000200 0.491930 -0.578652
O22   O     O_R   0.560290 0.000200 0.508070 -0.578550
O23   O     O_R   0.939710 0.500200 0.491930 -0.578498
O24   O     O_R   0.060290 0.500200 0.508070 -0.578560
O25   O     O_R   0.439720 0.000170 0.387560 -0.568058
O26   O     O_R   0.560280 0.000170 0.612440 -0.568251
O27   O     O_R   0.939720 0.500170 0.387560 -0.568366
O28   O     O_R   0.060280 0.500170 0.612440 -0.568250
C85   C     C_R   0.420040 0.000173 0.420098 0.814910
C86   C     C_R   0.579960 0.000173 0.579901 0.814966
C87   C     C_R   0.920040 0.500173 0.420098 0.815016
C88   C     C_R   0.079960 0.500173 0.579902 0.814984
Cu5   Cu    Cu3+1 0.500000 0.000210 0.561820 1.002553
Cu6   Cu    Cu3+1 0.500000 0.000210 0.438180 1.002834
Cu7   Cu    Cu3+1 0.000000 0.500210 0.561820 1.002672
Cu8   Cu    Cu3+1 0.000000 0.500210 0.438180 1.002498
O29   O     O_R   0.500000 0.090430 0.552220 -0.582443
O30   O     O_R   0.500000 0.090430 0.447780 -0.582417
O31   O     O_R   0.000000 0.590430 0.552220 -0.582428
O32   O     O_R   0.000000 0.590430 0.447780 -0.582439
C89   C     C_R   0.500000 0.119093 0.500000 0.768594
C90   C     C_R   1.000000 0.619093 0.500000 0.768616
O33   O     O_R   0.965130 0.909670 0.465120 -0.582434
O34   O     O_R   0.034870 0.909670 0.534880 -0.582426
O35   O     O_R   0.465130 0.409670 0.465120 -0.582443
O36   O     O_R   0.534870 0.409670 0.534880 -0.582441
C91   C     C_R   0.000000 0.880736 0.500000 0.783896
C92   C     C_R   0.500000 0.380736 0.500000 0.783901
O37   O     O_R   0.965120 0.999890 0.374970 -0.586759
O38   O     O_R   0.034880 0.999890 0.625030 -0.586758
O39   O     O_R   0.465120 0.499890 0.374970 -0.586789
O40   O     O_R   0.534880 0.499890 0.625030 -0.586782
O41   O     O_R   0.034900 0.999930 0.444740 -0.579183
O42   O     O_R   0.965100 0.999930 0.555260 -0.579152
O43   O     O_R   0.534900 0.499930 0.444740 -0.579143
O44   O     O_R   0.465100 0.499930 0.555260 -0.579171
C93   C     C_R   0.000032 0.999701 0.380858 0.808548
C94   C     C_R   0.999968 0.999701 0.619143 0.808576
C95   C     C_R   0.500031 0.499701 0.380857 0.808598
C96   C     C_R   0.499968 0.499701 0.619143 0.808580
Cu9   Cu    Cu3+1 0.958680 0.999890 0.458710 0.995215
Cu10  Cu    Cu3+1 0.041320 0.999890 0.541290 0.995166
Cu11  Cu    Cu3+1 0.458680 0.499890 0.458710 0.995075
Cu12  Cu    Cu3+1 0.541320 0.499890 0.541290 0.995162
O45   O     O_R   0.965090 0.090120 0.465150 -0.579809
O46   O     O_R   0.034910 0.090120 0.534850 -0.579843
O47   O     O_R   0.465090 0.590120 0.465150 -0.579867
O48   O     O_R   0.534910 0.590120 0.534850 -0.579815
C97   C     C_R   1.000000 0.119113 0.500000 0.784616
C98   C     C_R   0.500000 0.619112 0.500000 0.784640
C99   C     C_R   0.527089 0.782258 0.487907 -0.146619
C100  C     C_R   0.472911 0.782258 0.512093 -0.146869
C101  C     C_R   0.027093 0.282259 0.487917 -0.146720
C102  C     C_R   0.972906 0.282259 0.512082 -0.146565
H41   H     H_    0.548243 0.806815 0.478797 0.150816
H42   H     H_    0.451757 0.806815 0.521204 0.150691
H43   H     H_    0.048250 0.306816 0.478815 0.150776
H44   H     H_    0.951749 0.306816 0.521184 0.150865
C103  C     C_R   0.027603 0.218148 0.489205 -0.154465
C104  C     C_R   0.972397 0.218148 0.510794 -0.154372
C105  C     C_R   0.527599 0.718148 0.489195 -0.154415
C106  C     C_R   0.472401 0.718148 0.510805 -0.154538
H45   H     H_    0.048934 0.193612 0.480529 0.152356
H46   H     H_    0.951066 0.193612 0.519471 0.152427
H47   H     H_    0.548927 0.693612 0.480511 0.152417
H48   H     H_    0.451074 0.693612 0.519490 0.152347
C107  C     C_R   1.000000 0.186036 0.500000 -0.024360
C108  C     C_R   0.500000 0.686035 0.500000 -0.024307
C109  C     C_R   0.500000 0.814351 0.500000 -0.013967
C110  C     C_R   1.000000 0.314352 0.500000 -0.014062
C111  C     C_R   0.473174 0.217883 0.433640 -0.162004
C112  C     C_R   0.526826 0.217883 0.566360 -0.162021
C113  C     C_R   0.973175 0.717883 0.433639 -0.162006
C114  C     C_R   0.026825 0.717883 0.566361 -0.161995
H49   H     H_    0.452232 0.193319 0.382174 0.144676
H50   H     H_    0.547768 0.193319 0.617826 0.144640
H51   H     H_    0.952233 0.693319 0.382174 0.144626
H52   H     H_    0.047767 0.693319 0.617826 0.144650
C115  C     C_R   0.972666 0.781938 0.433895 -0.160823
C116  C     C_R   0.027334 0.781938 0.566105 -0.160817
C117  C     C_R   0.472666 0.281938 0.433895 -0.160847
C118  C     C_R   0.527334 0.281938 0.566105 -0.160849
H53   H     H_    0.951560 0.806497 0.382509 0.146233
H54   H     H_    0.048440 0.806497 0.617490 0.146249
H55   H     H_    0.451559 0.306497 0.382510 0.146242
H56   H     H_    0.548441 0.306497 0.617490 0.146227
C119  C     C_R   0.000000 0.813964 0.500000 -0.013045
C120  C     C_R   0.500000 0.313964 0.500000 -0.013044
N1    N     N_R   0.292185 0.900586 0.231319 0.134467
O49   O     O_R   0.282991 0.917133 0.166150 -0.357805
O50   O     O_R   0.316436 0.853229 0.264044 -0.338773
N2    N     N_R   0.707812 0.899877 0.767508 0.134464
O51   O     O_R   0.717003 0.915766 0.832864 -0.357851
O52   O     O_R   0.683559 0.852627 0.734223 -0.338826
N3    N     N_R   0.792187 0.399473 0.233166 0.134460
O53   O     O_R   0.782996 0.414979 0.167703 -0.357868
O54   O     O_R   0.816436 0.352281 0.266768 -0.338864
N4    N     N_R   0.207814 0.399873 0.767507 0.134466
O55   O     O_R   0.217006 0.415758 0.832865 -0.357832
O56   O     O_R   0.183564 0.352619 0.734223 -0.338839
H57   H     H_    0.284684 0.090214 0.241720 0.168524
H58   H     H_    0.715313 0.089702 0.759333 0.168501
H59   H     H_    0.784688 0.589401 0.240061 0.168506
H60   H     H_    0.215313 0.589700 0.759338 0.168527
N5    N     N_R   0.068203 0.939616 0.255454 0.135371
O57   O     O_R   0.085102 0.964794 0.224034 -0.335297
O58   O     O_R   0.086373 0.892082 0.298481 -0.315585
N6    N     N_R   0.931781 0.939660 0.744531 0.135283
O59   O     O_R   0.914881 0.964859 0.775940 -0.335361
O60   O     O_R   0.913603 0.892128 0.701504 -0.315868
N7    N     N_R   0.568229 0.439686 0.255477 0.135226
O61   O     O_R   0.585128 0.464899 0.224075 -0.335411
O62   O     O_R   0.586412 0.392157 0.298505 -0.316067
N8    N     N_R   0.431780 0.439661 0.744531 0.135274
O63   O     O_R   0.414881 0.464862 0.775939 -0.335370
O64   O     O_R   0.413602 0.392130 0.701503 -0.315937
N9    N     N_R   0.208610 0.994095 0.324972 0.151618
O65   O     O_R   0.219506 0.937882 0.349284 -0.338255
O66   O     O_R   0.183578 0.023440 0.336946 -0.294108
N10   N     N_R   0.791393 0.995451 0.674977 0.151639
O67   O     O_R   0.780491 0.939402 0.650000 -0.338042
O68   O     O_R   0.816442 0.025213 0.663379 -0.294659
N11   N     N_R   0.708610 0.496228 0.325052 0.151638
O69   O     O_R   0.719517 0.440278 0.350412 -0.337978
O70   O     O_R   0.683554 0.526229 0.336440 -0.294979
N12   N     N_R   0.291390 0.495453 0.674973 0.151630
O71   O     O_R   0.280487 0.439405 0.649993 -0.338131
O72   O     O_R   0.316438 0.525217 0.663371 -0.294677
H61   H     H_    0.286731 0.071859 0.357348 0.175632
H62   H     H_    0.713273 0.072684 0.643504 0.175586
H63   H     H_    0.786727 0.573154 0.356001 0.175569
H64   H     H_    0.213271 0.572686 0.643507 0.175605
H65   H     H_    0.214894 0.022564 0.117088 0.209597
H66   H     H_    0.785104 0.021419 0.883171 0.209590
H67   H     H_    0.714893 0.520760 0.116684 0.209583
H68   H     H_    0.285106 0.521416 0.883173 0.209591

loop_
_geom_bond_atom_site_label_1
_geom_bond_atom_site_label_2
_geom_bond_distance
_ccdc_geom_bond_type
O2    C2    1.292283 A    
C115  H53   1.083527 S    
C18   C34   1.552993 S    
C73   C77   1.413387 A    
C103  C107  1.400320 A    
C63   C67   1.398144 A    
C51   C55   1.207075 T    
C14   N10   1.468968 S    
C16   C20   1.560900 S    
C12   H8    1.110354 S    
C61   H33   1.083383 S    
O26   Cu5   1.942171 S    
O15   C7    1.296222 A    
Cu7   Cu8   2.684790 S    
C99   C109  1.400069 A    
C112  H50   1.083528 S    
C60   C64   1.388088 A    
C76   C80   1.413376 A    
C98   C108  1.451606 S    
O43   Cu12  1.968095 S    
O24   C88   1.296632 A    
Cu5   Cu6   2.684790 S    
C111  C117  1.389587 A    
C38   H22   1.109902 S    
C35   C39   1.554584 S    
C5    C53   1.436837 S    
Cu2   Cu4   2.682715 S    
C11   C31   1.558370 S    
C26   C50   1.477374 S    
O41   C93   1.282906 A    
N12   O72   1.301070 A    
C58   C62   1.388088 A    
Cu12  O48   1.967899 S    
C57   C61   1.388086 A    
C31   N3    1.468952 S    
C23   C47   1.207360 T    
C101  C110  1.400071 A    
O26   C86   1.296889 A    
C17   C33   1.552991 S    
C72   C76   1.396584 A    
C81   C112  1.399716 A    
N5    O57   1.300464 A    
O38   Cu10  1.968873 S    
C106  C108  1.400318 A    
C58   C78   1.399815 A    
O46   C97   1.282999 A    
O39   C95   1.283231 A    
C114  H52   1.083528 S    
C43   H67   1.113157 S    
N11   O69   1.301387 A    
C71   H39   1.083726 S    
N1    O50   1.301061 A    
C113  H51   1.083527 S    
C14   C26   1.564952 S    
O37   C93   1.283227 A    
O33   Cu9   1.967819 S    
C11   H7    1.110360 S    
N12   O71   1.301387 A    
O42   C94   1.282911 A    
C16   N12   1.468960 S    
C101  H43   1.083503 S    
C3    C79   1.450544 S    
C84   C110  1.451044 S    
C42   H66   1.113156 S    
C116  C119  1.399769 A    
C50   C54   1.207075 T    
O40   C96   1.283229 A    
O24   Cu8   1.942724 S    
C65   C69   1.399617 A    
O5    Cu3   1.970386 S    
C1    C77   1.450556 S    
C18   H62   1.113461 S    
C35   C47   1.477880 S    
C19   H15   1.112747 S    
O16   C8    1.296221 A    
O28   Cu7   1.942171 S    
C25   C41   1.552402 S    
C20   H16   1.112746 S    
N6    O60   1.301441 A    
C34   C38   1.554582 S    
C57   C77   1.399821 A    
C4    C80   1.450548 S    
C33   C37   1.554584 S    
C34   C46   1.477880 S    
O42   Cu9   1.968094 S    
C44   H20   1.113134 S    
C20   C36   1.552992 S    
N9    O65   1.301384 A    
C82   C113  1.399716 A    
C37   H57   1.113210 S    
C97   C107  1.451608 S    
O34   C91   1.281258 A    
C32   C36   1.564076 S    
C12   C32   1.558370 S    
O47   C98   1.282998 A    
C17   H13   1.112749 S    
C2    C78   1.450548 S    
C66   C94   1.453891 S    
O11   C7    1.296270 A    
O12   C8    1.296275 A    
C9    C25   1.553068 S    
C102  C104  1.390804 A    
N1    O49   1.301366 A    
C103  H45   1.083486 S    
C100  C109  1.400071 A    
C28   C44   1.552398 S    
C111  H49   1.083528 S    
C29   N1    1.468954 S    
C23   C87   1.437196 S    
C99   H41   1.083505 S    
O18   C83   1.293718 A    
C39   H59   1.113212 S    
C72   H40   1.083728 S    
C70   C74   1.396584 A    
C39   H23   1.109910 S    
C104  H46   1.083487 S    
C38   H58   1.113211 S    
C26   C42   1.552396 S    
O7    C3    1.292010 A    
O31   C90   1.293193 A    
O20   C84   1.293718 A    
O29   C89   1.293194 A    
O22   Cu6   1.942724 S    
N4    O56   1.301065 A    
C14   H10   1.115293 S    
C105  C108  1.400321 A    
O37   Cu9   1.968872 S    
O27   C87   1.296884 A    
Cu11  Cu12  2.647279 S    
O13   Cu3   1.942245 S    
C52   C56   1.207072 T    
Cu8   O32   1.968010 S    
O1    C1    1.292280 A    
C12   C28   1.553069 S    
O48   C98   1.282995 A    
O40   Cu12  1.968873 S    
C73   N5    1.438974 S    
N5    O58   1.301443 A    
C70   H38   1.083728 S    
Cu6   O30   1.968010 S    
C14   C18   1.560900 S    
O11   Cu2   1.942244 S    
N8    O64   1.301440 A    
O19   Cu7   1.968252 S    
Cu11  O47   1.967899 S    
O34   Cu10  1.967820 S    
C19   C35   1.552994 S    
C106  H48   1.083484 S    
O20   Cu8   1.968252 S    
O35   Cu11  1.967819 S    
C105  H47   1.083486 S    
O7    Cu4   1.970386 S    
C60   H32   1.083875 S    
C9    H5    1.110352 S    
C99   C105  1.390806 A    
O23   C87   1.296631 A    
C43   H19   1.113135 S    
C66   C70   1.399621 A    
Cu7   O31   1.968009 S    
O18   Cu6   1.968252 S    
O5    C1    1.292019 A    
C83   C109  1.451049 S    
O38   C94   1.283229 A    
Cu9   O45   1.967899 S    
C100  H42   1.083501 S    
O36   Cu12  1.967820 S    
O41   Cu10  1.968095 S    
C67   C71   1.399625 A    
O6    Cu3   1.970386 S    
C18   H14   1.112743 S    
C114  C116  1.389585 A    
O8    C4    1.292014 A    
N6    O59   1.300461 A    
C10   H26   1.112814 S    
C12   H28   1.112816 S    
N2    O52   1.301057 A    
C101  C103  1.390804 A    
O44   Cu11  1.968094 S    
O9    C5    1.296277 A    
C36   C40   1.554583 S    
C22   C86   1.437193 S    
C36   C48   1.477880 S    
N10   O67   1.301386 A    
C118  C120  1.399771 A    
O15   Cu4   1.942245 S    
N9    O66   1.301068 A    
C59   C63   1.388088 A    
C62   H34   1.083384 S    
C25   C49   1.477374 S    
C9    H25   1.112815 S    
C33   C45   1.477877 S    
C9    C29   1.558365 S    
C10   C30   1.558369 S    
C13   C25   1.564962 S    
N10   O68   1.301052 A    
C37   H21   1.109903 S    
C104  C107  1.400322 A    
O23   Cu7   1.942730 S    
C10   C26   1.553070 S    
C69   H37   1.083729 S    
C15   H11   1.115293 S    
Cu1   Cu3   2.682715 S    
O8    Cu4   1.970386 S    
C8    C56   1.436833 S    
C7    C55   1.436833 S    
H4    C32   1.115145 S    
O21   Cu5   1.942730 S    
C30   N2    1.468959 S    
N7    O61   1.300463 A    
C40   H60   1.113213 S    
C67   C95   1.453896 S    
C68   C72   1.399623 A    
C116  H54   1.083527 S    
O19   C84   1.293715 A    
C115  C119  1.399769 A    
C75   N7    1.438965 S    
C41   H17   1.113135 S    
C60   C80   1.399816 A    
C58   H30   1.083874 S    
O35   C92   1.281258 A    
C69   C73   1.396588 A    
C17   H61   1.113460 S    
N11   O70   1.301076 A    
C57   H29   1.083875 S    
N4    O55   1.301368 A    
O44   C96   1.282911 A    
C49   C53   1.207075 T    
C68   C96   1.453894 S    
C64   C68   1.398139 A    
C27   C51   1.477371 S    
C81   C89   1.448263 S    
O14   C6    1.296221 A    
C41   H65   1.113155 S    
C59   H31   1.083875 S    
C10   H6    1.110349 S    
O3    Cu2   1.969309 S    
O14   Cu3   1.942248 S    
C40   C44   1.552993 S    
C15   N11   1.468956 S    
O9    Cu1   1.942244 S    
O12   Cu2   1.942244 S    
C16   H12   1.115293 S    
C74   C78   1.413378 A    
O4    Cu2   1.969307 S    
N2    O51   1.301362 A    
O1    Cu1   1.969309 S    
C44   H68   1.113157 S    
N8    O63   1.300466 A    
C27   C43   1.552395 S    
O28   C88   1.296886 A    
C6    C54   1.436833 S    
O27   Cu8   1.942178 S    
C40   H24   1.109905 S    
C11   C27   1.553068 S    
O16   Cu4   1.942248 S    
C113  C115  1.389585 A    
C63   H35   1.083385 S    
C82   C90   1.448263 S    
O25   Cu6   1.942178 S    
O45   C97   1.282996 A    
C75   C79   1.413371 A    
C32   N4    1.468949 S    
C102  C110  1.400067 A    
C117  C120  1.399770 A    
C22   C46   1.207357 T    
O22   C86   1.296629 A    
C74   N6    1.438970 S    
O17   C83   1.293715 A    
N7    O62   1.301442 A    
C16   C28   1.564957 S    
C117  H55   1.083526 S    
C81   C111  1.399715 A    
C91   C119  1.448339 S    
C21   C85   1.437193 S    
C24   C48   1.207360 T    
O10   C6    1.296275 A    
C92   C120  1.448339 S    
C39   C43   1.552995 S    
C61   C65   1.398136 A    
C42   H18   1.113133 S    
C29   C33   1.564071 S    
C15   C19   1.560905 S    
O32   C90   1.293193 A    
C71   C75   1.396581 A    
O36   C92   1.281258 A    
C82   C114  1.399715 A    
C13   C17   1.560898 S    
C118  H56   1.083526 S    
O2    Cu1   1.969307 S    
C31   C35   1.564075 S    
O10   Cu1   1.942244 S    
O25   C85   1.296881 A    
Cu9   Cu10  2.647279 S    
C64   H36   1.083384 S    
C21   C45   1.207357 T    
C100  C106  1.390806 A    
O3    C3    1.292283 A    
O6    C2    1.292014 A    
Cu10  O46   1.967899 S    
H1    C29   1.115145 S    
C65   C93   1.453885 S    
C62   C66   1.398141 A    
C19   H63   1.113462 S    
O39   Cu11  1.968872 S    
C30   C34   1.564071 S    
C20   H64   1.113462 S    
O30   C89   1.293191 A    
H3    C31   1.115145 S    
C102  H44   1.083505 S    
C13   H9    1.115292 S    
C13   N9    1.468957 S    
C112  C118  1.389585 A    
H2    C30   1.115140 S    
C76   N8    1.438966 S    
C37   C41   1.552999 S    
C15   C27   1.564953 S    
N3    O54   1.301064 A    
C24   C88   1.437193 S    
C28   C52   1.477374 S    
O4    C4    1.292283 A    
O21   C85   1.296631 A    
O17   Cu5   1.968252 S    
C59   C79   1.399813 A    
Cu5   O29   1.968009 S    
O43   C95   1.282910 A    
N3    O53   1.301367 A    
C11   H27   1.112813 S    
C38   C42   1.552994 S    
O33   C91   1.281258 A    
O13   C5    1.296217 A    
