data_mof_unit_61645.cif
_audit_creation_date              2012-12-10T18:21:47-0500
_audit_creation_method            fapswitch 2.2
_symmetry_space_group_name_H-M    P1
_symmetry_Int_Tables_number       1
_space_group_crystal_system       triclinic
_cell_length_a                    18.542148
_cell_length_b                    18.528863
_cell_length_c                    18.684039
_cell_angle_alpha                 109.504075
_cell_angle_beta                  109.895722
_cell_angle_gamma                 109.194265
_cell_volume                      4930.31590543

loop_
_atom_site_label
_atom_site_type_symbol
_atom_type_description
_atom_site_fract_x
_atom_site_fract_y
_atom_site_fract_z
_atom_type_partial_charge
C1    C     C_R   0.622198 0.621654 0.501067 0.838209
C2    C     C_3   0.191962 0.417039 0.185158 -0.165946
C3    C     C_3   0.213374 0.453582 0.281715 -0.151770
C4    C     C_3   0.311761 0.500752 0.311257 0.029137
C5    C     C_3   0.768917 0.672670 0.514003 -0.398709
C6    C     C_3   0.838852 0.741409 0.509858 -0.406842
C7    C     C_3   0.650270 0.685791 0.411354 -0.415030
C8    C     C_3   0.725378 0.783895 0.575861 -0.375212
C9    C     C_3   0.690307 0.689858 0.500974 0.181728
C10   C     C_3   0.810179 0.808379 0.497718 0.191562
C11   C     C_3   0.720535 0.757138 0.410000 -0.381577
C12   C     C_R   0.378895 0.500357 0.378692 0.860132
C13   C     C_3   0.797626 0.853640 0.574932 -0.421289
C14   C     C_3   0.753575 0.478159 0.657043 0.089925
C15   C     C_3   0.824247 0.477266 0.729841 -0.455393
C16   C     C_3   0.749422 0.593753 0.775848 -0.394920
C17   C     C_3   0.646630 0.431746 0.709323 -0.486848
C18   C     C_3   0.692856 0.502454 0.689469 0.123677
C19   C     C_3   0.811260 0.499436 0.810522 0.153556
C20   C     C_3   0.821146 0.592548 0.846314 -0.423111
C21   C     C_3   0.716558 0.430265 0.781372 -0.376516
C22   C     C_3   0.284110 0.215920 0.434026 -0.382555
C23   C     C_R   0.378837 0.378389 0.499942 0.843918
C24   C     C_3   0.214382 0.146828 0.437906 -0.463412
C25   C     C_3   0.348114 0.322512 0.594269 -0.413907
C26   C     C_3   0.228557 0.321834 0.476918 -0.412602
C27   C     C_3   0.311219 0.310553 0.500797 0.147441
C28   C     C_3   0.190555 0.193303 0.504591 0.119872
C29   C     C_3   0.276370 0.254374 0.598297 0.036590
C30   C     C_3   0.155751 0.250184 0.475276 -0.391222
C31   C     C_R   0.999760 0.621639 0.120823 0.829864
C32   C     C_R   0.122770 0.500175 0.122462 0.859546
C33   C     C_R   0.003472 0.378510 0.882177 0.829322
C34   C     C_R   0.624265 0.502626 0.621466 0.864946
C35   C     C_R   0.879333 0.499485 0.879154 0.849933
C36   C     C_R   0.998742 0.876844 0.379063 0.832550
C37   C     C_R   0.878439 0.876301 0.497525 0.828715
C38   C     C_R   0.998576 0.120516 0.620930 0.825514
C39   C     C_R   0.121533 0.124051 0.502899 0.829638
C40   C     C_3   0.903197 0.668337 0.162799 -0.401220
C41   C     C_3   0.902687 0.737354 0.236134 -0.400321
C42   C     C_3   0.043562 0.691488 0.276633 -0.417113
C43   C     C_3   0.051862 0.782831 0.202021 -0.375406
C44   C     C_3   0.999729 0.689887 0.188953 0.186936
C45   C     C_3   0.310584 0.584416 0.316062 -0.169509
C46   C     C_3   0.999060 0.808840 0.310997 0.186138
C47   C     C_3   0.045306 0.763346 0.349443 -0.378612
C48   C     C_3   0.049400 0.852670 0.272656 -0.418279
C49   C     C_3   0.987066 0.229031 0.826711 -0.394380
C50   C     C_3   0.983981 0.156835 0.752840 -0.403621
C51   C     C_3   0.926348 0.280261 0.722932 -0.421786
C52   C     C_3   0.091557 0.346095 0.814581 -0.375704
C53   C     C_3   0.002359 0.309964 0.813283 0.187951
C54   C     C_3   0.998559 0.188497 0.689347 0.187418
C55   C     C_3   0.924347 0.208845 0.649375 -0.372582
C56   C     C_3   0.210853 0.537192 0.285229 -0.153946
C57   C     C_3   0.089228 0.274102 0.741577 -0.425658
C58   C     C_3   0.190706 0.500665 0.189983 0.028948
C59   C     C_3   0.289220 0.547908 0.219633 -0.177388
C60   C     C_3   0.291527 0.464211 0.215902 -0.175084
H1    H     H_    0.176034 0.567020 0.311526 0.118077
H2    H     H_    0.847402 0.707697 0.454219 0.149400
H3    H     H_    0.626295 0.619655 0.356679 0.176589
H4    H     H_    0.728830 0.725816 0.353364 0.154507
H5    H     H_    0.670356 0.798536 0.567212 0.174646
H6    H     H_    0.753014 0.787809 0.640959 0.164262
H7    H     H_    0.860767 0.889542 0.638607 0.167120
H8    H     H_    0.778575 0.903117 0.568246 0.153702
H9    H     H_    0.592398 0.696107 0.400041 0.150869
H10   H     H_    0.697116 0.803094 0.400274 0.180818
H11   H     H_    0.360824 0.652723 0.371264 0.130239
H12   H     H_    0.711466 0.409780 0.599092 0.152444
H13   H     H_    0.818402 0.410813 0.704103 0.132341
H14   H     H_    0.892011 0.525474 0.749560 0.189433
H15   H     H_    0.780149 0.647711 0.763867 0.149577
H16   H     H_    0.887463 0.642891 0.865049 0.177844
H17   H     H_    0.601815 0.446375 0.731402 0.177335
H18   H     H_    0.605129 0.365316 0.648863 0.160860
H19   H     H_    0.708361 0.362831 0.755838 0.170968
H20   H     H_    0.705907 0.445097 0.838567 0.179509
H21   H     H_    0.706829 0.608929 0.801241 0.189294
H22   H     H_    0.318783 0.586422 0.192721 0.140993
H23   H     H_    0.815358 0.611024 0.906449 0.150746
H24   H     H_    0.342929 0.206861 0.449246 0.171069
H25   H     H_    0.256547 0.205535 0.366101 0.179436
H26   H     H_    0.154376 0.101281 0.371152 0.174908
H27   H     H_    0.240541 0.106161 0.457476 0.160732
H28   H     H_    0.406982 0.313454 0.611611 0.130136
H29   H     H_    0.301911 0.212079 0.615010 0.164178
H30   H     H_    0.245676 0.388005 0.525956 0.179597
H31   H     H_    0.203508 0.317317 0.411399 0.150825
H32   H     H_    0.097705 0.208039 0.407146 0.189476
H33   H     H_    0.326105 0.434460 0.189085 0.139406
H34   H     H_    0.133109 0.280967 0.518578 0.148749
H35   H     H_    0.371389 0.391292 0.643251 0.189951
H36   H     H_    0.863418 0.601695 0.151764 0.181609
H37   H     H_    0.871101 0.667918 0.100182 0.146317
H38   H     H_    0.866994 0.767578 0.207595 0.182049
H39   H     H_    0.865872 0.704567 0.262676 0.146695
H40   H     H_    0.006215 0.626181 0.269486 0.174019
H41   H     H_    0.011311 0.733274 0.379432 0.157855
H42   H     H_    0.122044 0.800887 0.222733 0.177832
H43   H     H_    0.141769 0.348758 0.129866 0.125923
H44   H     H_    0.022579 0.782505 0.138990 0.161156
H45   H     H_    0.016338 0.884107 0.243068 0.170758
H46   H     H_    0.118204 0.905601 0.325820 0.153040
H47   H     H_    0.112330 0.704827 0.295437 0.151574
H48   H     H_    0.115362 0.812772 0.402026 0.179430
H49   H     H_    0.923569 0.201252 0.826062 0.182659
H50   H     H_    0.041198 0.249440 0.891717 0.150675
H51   H     H_    0.035994 0.141558 0.782606 0.180712
H52   H     H_    0.918861 0.095138 0.716067 0.146832
H53   H     H_    0.861707 0.253562 0.720423 0.164550
H54   H     H_    0.184419 0.415110 0.308980 0.114789
H55   H     H_    0.858394 0.147853 0.610762 0.165249
H56   H     H_    0.104269 0.403801 0.804228 0.182399
H57   H     H_    0.147212 0.368736 0.879645 0.156536
H58   H     H_    0.143748 0.261762 0.771502 0.183921
H59   H     H_    0.100537 0.297447 0.696628 0.146846
H60   H     H_    0.935745 0.337631 0.712397 0.156771
H61   H     H_    0.933583 0.232298 0.603825 0.172488
H62   H     H_    0.746134 0.605404 0.462177 0.187731
H63   H     H_    0.798964 0.676489 0.578808 0.162727
H64   H     H_    0.903394 0.775737 0.571673 0.183858
O1    O     O_R   0.592740 0.540340 0.447840 -0.624819
O2    O     O_R   0.053270 0.644880 0.093500 -0.631871
O3    O     O_R   0.041720 0.447740 0.093910 -0.624608
O4    O     O_R   0.146290 0.552270 0.093890 -0.628332
O5    O     O_R   0.949110 0.355140 0.908700 -0.631716
O6    O     O_R   0.053680 0.459670 0.908680 -0.632357
O7    O     O_R   0.856090 0.447760 0.908300 -0.633271
O8    O     O_R   0.960660 0.552280 0.908280 -0.631195
O9    O     O_R   0.052690 0.907450 0.460090 -0.631001
O10   O     O_R   0.947900 0.907390 0.355230 -0.629903
O11   O     O_R   0.959780 0.907430 0.552420 -0.631035
O12   O     O_R   0.592480 0.644870 0.552180 -0.636526
O13   O     O_R   0.854990 0.907370 0.447560 -0.632258
O14   O     O_R   0.052100 0.092610 0.644770 -0.629910
O15   O     O_R   0.947310 0.092550 0.539920 -0.631908
O16   O     O_R   0.145010 0.092640 0.552440 -0.632109
O17   O     O_R   0.040220 0.092570 0.447580 -0.625006
O18   O     O_R   0.407320 0.447740 0.355030 -0.628593
O19   O     O_R   0.407060 0.552270 0.459360 -0.625221
O20   O     O_R   0.407520 0.355130 0.447820 -0.632785
O21   O     O_R   0.407260 0.459660 0.552160 -0.631668
O22   O     O_R   0.592940 0.447730 0.540640 -0.624320
O23   O     O_R   0.592680 0.552260 0.644970 -0.635591
O24   O     O_R   0.948700 0.540360 0.093520 -0.630792
Zn1   Zn    Zn3+2 0.500170 0.430200 0.430330 0.920261
Zn2   Zn    Zn3+2 0.499830 0.569800 0.569670 0.914208
Zn3   Zn    Zn3+2 0.931370 0.430220 0.001110 0.914476
Zn4   Zn    Zn3+2 0.071010 0.569800 0.001080 0.912811
Zn5   Zn    Zn3+2 0.069970 0.000040 0.570020 0.911585
Zn6   Zn    Zn3+2 0.930030 0.999960 0.429990 0.909937
N1    N     N_2   0.794272 0.538785 0.630918 -0.306969
H65   H     H_    0.841297 0.602314 0.681801 0.223557
C61   C     C_3   0.820476 0.504699 0.568423 -0.839988
H66   H     H_    0.847700 0.555051 0.551128 0.236130
H67   H     H_    0.762320 0.444494 0.507154 0.250209
H68   H     H_    0.872173 0.488870 0.597253 0.238075
C62   C     C_3   0.259357 0.300601 0.671952 -0.414126
C63   C     C_3   0.335790 0.338434 0.763920 -0.909754
H69   H     H_    0.345733 0.284900 0.771460 0.258097
H70   H     H_    0.398085 0.389198 0.776271 0.258266
H71   H     H_    0.319988 0.369748 0.813984 0.249929
H72   H     H_    0.248336 0.354618 0.667043 0.209050
H73   H     H_    0.199162 0.252726 0.665129 0.208309

loop_
_geom_bond_atom_site_label_1
_geom_bond_atom_site_label_2
_ccdc_geom_bond_type
C33   O6    A    
C55   H61   S    
C8    H6    S    
C8    C13   S    
C47   H41   S    
C14   N1    S    
C45   H11   S    
C16   H15   S    
C14   C18   S    
O7    Zn3   S    
C19   C20   S    
C59   H22   S    
C32   C58   S    
C36   O9    A    
C29   H29   S    
C62   C63   S    
C11   H10   S    
C15   C19   S    
C23   O21   A    
C26   C27   S    
C50   C54   S    
C41   C46   S    
C10   C37   S    
O9    Zn5   S    
O18   Zn1   S    
C28   C29   S    
C19   C21   S    
C1    O1    A    
O5    Zn3   S    
C5    C6    S    
C2    C60   S    
O17   Zn6   S    
N1    C61   S    
O22   Zn1   S    
C20   H16   S    
C46   C47   S    
C22   H25   S    
C43   H44   S    
C17   H18   S    
O3    Zn3   S    
C54   C55   S    
O21   Zn2   S    
O2    Zn4   S    
O4    Zn4   S    
C61   H66   S    
C48   H46   S    
C39   O17   A    
C45   C56   S    
C12   O18   A    
C8    C9    S    
C39   O16   A    
C38   O15   A    
C41   H39   S    
C36   C46   S    
C23   C27   S    
C4    C12   S    
C1    O12   A    
C43   C48   S    
C62   H72   S    
O16   Zn5   S    
C57   H59   S    
C52   H57   S    
C59   C60   S    
C61   H67   S    
C37   O13   A    
C25   C29   S    
C4    C60   S    
C42   C44   S    
C40   H36   S    
C37   O11   A    
C17   C18   S    
C63   H70   S    
C4    C45   S    
C52   H56   S    
C33   C53   S    
C46   C48   S    
C31   C44   S    
C29   C62   S    
O23   Zn2   S    
C1    C9    S    
C30   H32   S    
C11   H4    S    
C10   C11   S    
C40   H37   S    
C28   C39   S    
C26   H31   S    
C5    H62   S    
C10   C13   S    
C25   H28   S    
C17   C21   S    
C51   C53   S    
C22   H24   S    
C7    C11   S    
C43   C44   S    
C6    C10   S    
C5    C9    S    
O20   Zn1   S    
C42   H40   S    
O19   Zn2   S    
C63   H71   S    
C3    C56   S    
C47   H48   S    
C8    H5    S    
C48   H45   S    
C38   C54   S    
C16   C20   S    
C21   H19   S    
C17   H17   S    
C51   H60   S    
C38   O14   A    
C56   H1    S    
C51   H53   S    
C50   H51   S    
C18   C34   S    
C7    H3    S    
C62   H73   S    
O1    Zn1   S    
C31   O24   A    
O14   Zn5   S    
C40   C41   S    
C15   H13   S    
C25   H35   S    
C61   H68   S    
C22   C27   S    
O6    Zn4   S    
C25   C27   S    
O8    Zn4   S    
C42   H47   S    
C22   C24   S    
C23   O20   A    
C34   O23   A    
C3    C4    S    
C35   O7    A    
C52   C53   S    
C32   O3    A    
C49   H49   S    
C63   H69   S    
C13   H7    S    
C33   O5    A    
C7    C9    S    
C6    H64   S    
C45   C59   S    
C41   H38   S    
C14   H12   S    
C24   C28   S    
C3    H54   S    
C36   O10   A    
C7    H9    S    
O12   Zn2   S    
C2    C58   S    
C26   C30   S    
C26   H30   S    
C5    H63   S    
O15   Zn6   S    
C12   O19   A    
O24   Zn3   S    
C32   O4    A    
C28   C30   S    
C50   H52   S    
C58   C59   S    
C43   H42   S    
C30   H34   S    
C19   C35   S    
C60   H33   S    
C34   O22   A    
C6    H2    S    
O10   Zn6   S    
C55   H55   S    
C2    H43   S    
C49   C53   S    
C21   H20   S    
C16   H21   S    
C56   C58   S    
O13   Zn6   S    
C2    C3    S    
C51   C55   S    
C42   C47   S    
C24   H27   S    
C52   C57   S    
C40   C44   S    
C15   H14   S    
C16   C18   S    
C49   C50   S    
C20   H23   S    
N1    H65   S    
C14   C15   S    
C57   H58   S    
C31   O2    A    
C24   H26   S    
C35   O8    A    
C13   H8    S    
O11   Zn5   S    
C49   H50   S    
C54   C57   S    
