data_mof_unit_43088.cif
_audit_creation_date              2012-10-26T21:05:42-0400
_audit_creation_method            fapswitch 2.2
_symmetry_space_group_name_H-M    P1
_symmetry_Int_Tables_number       1
_space_group_crystal_system       triclinic
_cell_length_a                    12.988831
_cell_length_b                    9.096642
_cell_length_c                    7.789492
_cell_angle_alpha                 89.992055
_cell_angle_beta                  96.270713
_cell_angle_gamma                 89.990624
_cell_volume                      914.858799024

loop_
_atom_site_label
_atom_site_type_symbol
_atom_type_description
_atom_site_fract_x
_atom_site_fract_y
_atom_site_fract_z
_atom_type_partial_charge
C1    C     C_R   0.499999 0.220042 0.500005 0.555477
C2    C     C_R   0.867226 0.580908 0.695505 0.268769
C3    C     C_R   0.134431 0.549310 0.578499 -0.185493
C4    C     C_R   0.865569 0.450688 0.421502 -0.185492
C5    C     C_R   0.027465 0.536781 0.570369 -0.012142
C6    C     C_R   0.972535 0.463217 0.429631 -0.012141
C7    C     C_1   0.499998 0.065371 0.500008 -0.034691
C8    C     C_1   0.500002 0.934629 0.499992 -0.034691
C9    C     C_3   0.838792 0.579927 0.979467 -0.097955
C10   C     C_3   0.161202 0.420066 0.020529 -0.097954
C11   C     C_R   0.500001 0.779958 0.499995 0.555478
C12   C     C_R   0.300043 0.497177 0.467746 0.563984
C13   C     C_R   0.699957 0.502823 0.532254 0.563984
C14   C     C_R   0.812611 0.510625 0.551911 0.020474
C15   C     C_R   0.187389 0.489374 0.448089 0.020476
C16   C     C_R   0.025178 0.403802 0.298507 -0.115805
C17   C     C_R   0.974822 0.596196 0.701494 -0.115804
C18   C     C_R   0.132774 0.419091 0.304495 0.268771
Cu1   Cu    Cu3+1 0.500010 0.500000 0.669080 1.042863
Cu2   Cu    Cu3+1 0.499990 0.500000 0.330920 1.042865
H1    H     H_    0.823182 0.394743 0.312827 0.119058
H2    H     H_    0.215635 0.380144 0.930587 0.165408
H3    H     H_    0.176818 0.605256 0.687173 0.119059
H4    H     H_    0.983064 0.343794 0.193051 0.106856
H5    H     H_    0.016935 0.656204 0.806950 0.106859
H6    H     H_    0.918292 0.609445 0.036231 0.104379
H7    H     H_    0.829930 0.458243 0.970285 0.108640
H8    H     H_    0.784368 0.619864 0.069415 0.165405
H9    H     H_    0.170044 0.541756 0.029705 0.108628
H10   H     H_    0.081706 0.390522 0.963760 0.104388
N1    N     N_1   0.499980 0.500000 0.076820 -0.082087
N2    N     N_1   0.500020 0.500000 0.923180 -0.082087
O1    O     O_R   0.500000 0.288400 0.642760 -0.501367
O2    O     O_3   0.186185 0.351143 0.181951 -0.545492
O3    O     O_R   0.500000 0.711600 0.357240 -0.501366
O4    O     O_R   0.500000 0.288400 0.357240 -0.489506
O5    O     O_R   0.500000 0.711600 0.642760 -0.489506
O6    O     O_R   0.349000 0.500000 0.619590 -0.528468
O7    O     O_R   0.651000 0.500000 0.380410 -0.528467
O8    O     O_R   0.348990 0.500000 0.334020 -0.462906
O9    O     O_R   0.651010 0.500000 0.665980 -0.462910
O10   O     O_3   0.813816 0.648858 0.818048 -0.545492

loop_
_geom_bond_atom_site_label_1
_geom_bond_atom_site_label_2
_ccdc_geom_bond_type
C12   O8    A    
C15   C18   A    
Cu1   O6    S    
C10   H10   S    
C3    H3    S    
N1    N2    T    
C12   C15   S    
C17   H5    S    
C13   O9    A    
C1    O1    A    
C7    C8    T    
C10   O2    S    
C13   C14   S    
C10   H2    S    
C2    C17   A    
C4    C14   A    
C4    H1    S    
C18   O2    S    
C10   H9    S    
C9    O10   S    
C2    O10   S    
C8    C11   S    
Cu2   O8    S    
Cu1   N2    S    
C4    C6    A    
C9    H6    S    
C1    O4    A    
C12   O6    A    
C5    C6    A    
C2    C14   A    
C16   H4    S    
C13   O7    A    
C5    C17   A    
C6    C16   A    
Cu2   O4    S    
Cu1   O9    S    
C3    C15   A    
C9    H7    S    
C16   C18   A    
Cu1   O1    S    
C11   O5    A    
Cu2   O7    S    
Cu1   O5    S    
C1    C7    S    
Cu2   O3    S    
C11   O3    A    
Cu1   Cu2   S    
C9    H8    S    
C3    C5    A    
Cu2   N1    S    
