data_mof_unit_30466.cif
_audit_creation_date              2013-03-05T16:01:58-0500
_audit_creation_method            fapswitch 2.2
_symmetry_space_group_name_H-M    P1
_symmetry_Int_Tables_number       1
_space_group_crystal_system       triclinic
_cell_length_a                    14.95017
_cell_length_b                    14.182154
_cell_length_c                    14.125371
_cell_angle_alpha                 90.007118
_cell_angle_beta                  88.67215
_cell_angle_gamma                 89.999064
_cell_volume                      2994.13617438

loop_
_atom_site_label
_atom_site_type_symbol
_atom_site_description
_atom_site_fract_x
_atom_site_fract_y
_atom_site_fract_z
_atom_type_partial_charge
O1    O     O_R   0.367850 0.580280 0.500020 -0.566300
O2    O     O_R   0.632150 0.419720 0.499980 -0.583097
O3    O     O_R   0.632150 0.580280 0.499980 -0.566205
O4    O     O_R   0.367850 0.419720 0.500020 -0.582962
C1    C     C_R   0.327430 0.500013 0.500722 0.999063
C2    C     C_R   0.672571 0.500015 0.499288 0.998950
O5    O     O_R   0.500000 0.580290 0.373720 -0.571231
O6    O     O_R   0.500000 0.419710 0.626280 -0.588100
O7    O     O_R   0.500000 0.580290 0.626280 -0.571086
O8    O     O_R   0.500000 0.419710 0.373720 -0.587962
C3    C     C_R   0.500084 0.499980 0.329343 0.961035
C4    C     C_R   0.499917 0.499990 0.670657 0.960975
Zn1   Zn    Zn3+2 0.500000 0.607200 0.500000 1.117241
Zn2   Zn    Zn3+2 0.500000 0.392800 0.500000 1.105265
C5    C     C_1   0.500086 0.499944 0.227859 0.019339
C6    C     C_1   0.499916 0.499973 0.772141 0.019210
C7    C     C_1   0.500070 0.499962 0.142561 0.089592
C8    C     C_1   0.499932 0.499987 0.857439 0.089595
C9    C     C_1   0.500024 0.499991 0.042655 0.087073
C10   C     C_1   0.499978 0.500000 0.957345 0.087107
C11   C     C_R   0.815037 0.495605 0.413496 0.281162
C12   C     C_R   0.184955 0.495818 0.586503 0.281089
C13   C     C_R   0.767829 0.500709 0.499719 -0.240769
C14   C     C_R   0.232174 0.500689 0.500275 -0.240807
C15   C     C_R   0.810317 0.505806 0.586705 0.238631
C16   C     C_R   0.189698 0.505500 0.413267 0.238970
C17   C     C_R   0.904166 0.507935 0.588115 -0.091792
C18   C     C_R   0.095846 0.507564 0.411831 -0.091584
C19   C     C_R   0.953016 0.504575 0.500447 -0.023961
C20   C     C_R   0.046991 0.504558 0.499510 -0.024015
C21   C     C_R   0.908124 0.500522 0.413477 -0.029350
C22   C     C_R   0.091876 0.500812 0.586497 -0.029429
C23   C     C_R   0.951055 0.514800 0.673803 0.502568
C24   C     C_R   0.048961 0.514020 0.326111 0.502299
C25   C     C_R   0.043342 0.505918 0.672148 -0.190771
C26   C     C_R   0.956666 0.505214 0.327810 -0.190887
H1    H     H_    0.076728 0.506857 0.739286 0.208126
H2    H     H_    0.923291 0.505819 0.260666 0.208169
C27   C     C_R   0.559209 0.797761 0.442319 0.349909
C28   C     C_R   0.438043 0.202029 0.554181 0.351728
C29   C     C_R   0.440800 0.797781 0.557688 0.349916
C30   C     C_R   0.561951 0.202016 0.445810 0.351639
N1    N     N_R   0.500000 0.750030 0.500000 -0.208218
N2    N     N_R   0.500000 0.249970 0.500000 -0.207376
C31   C     C_R   0.440642 0.898759 0.561262 -0.195404
C32   C     C_R   0.560060 0.101290 0.439964 -0.190632
C33   C     C_R   0.559371 0.898738 0.438747 -0.195412
C34   C     C_R   0.439948 0.101307 0.560038 -0.190646
C35   C     C_R   0.500005 0.949340 0.500003 0.000763
C36   C     C_R   0.500005 0.050574 0.500003 0.002422
C37   C     C_R   0.384213 0.950828 0.624752 0.237680
C38   C     C_R   0.615738 0.049973 0.375637 0.232483
C39   C     C_R   0.615808 0.950788 0.375265 0.237611
C40   C     C_R   0.384282 0.050013 0.624376 0.232515
N3    N     N_R   0.768149 0.483487 0.326559 0.193064
O9    O     O_R   0.712363 0.547383 0.298483 -0.349880
O10   O     O_R   0.782034 0.408763 0.274833 -0.279515
N4    N     N_R   0.231813 0.483794 0.673470 0.193127
O11   O     O_R   0.287726 0.547622 0.701427 -0.349828
O12   O     O_R   0.217770 0.409210 0.725344 -0.279691
N5    N     N_R   0.757116 0.503270 0.672588 0.207964
O13   O     O_R   0.750741 0.425338 0.720837 -0.306465
O14   O     O_R   0.705933 0.574299 0.695379 -0.433745
N6    N     N_R   0.242925 0.502807 0.327410 0.207907
O15   O     O_R   0.249609 0.424684 0.279495 -0.306433
O16   O     O_R   0.293947 0.573901 0.304425 -0.433979
O17   O     O_3   0.908107 0.526200 0.760916 -0.578871
C41   C     C_3   0.896750 0.623596 0.780437 0.146299
H3    H     H_    0.835122 0.630998 0.825289 0.222917
H4    H     H_    0.885802 0.666897 0.715654 0.137845
C42   C     C_3   0.975749 0.662558 0.835718 -0.429838
H5    H     H_    0.988232 0.616653 0.897811 0.258675
H6    H     H_    0.036876 0.663574 0.789612 0.243791
C43   C     C_3   0.957394 0.762850 0.870078 -0.794552
H7    H     H_    0.944023 0.809872 0.809132 0.284774
H8    H     H_    0.016726 0.790010 0.907246 0.281136
H9    H     H_    0.898917 0.763899 0.920034 0.268210
O18   O     O_3   0.091930 0.524810 0.238936 -0.578772
C44   C     C_3   0.103161 0.622066 0.218666 0.146492
H10   H     H_    0.164821 0.629212 0.173813 0.222980
H11   H     H_    0.113997 0.665911 0.283123 0.137767
C45   C     C_3   0.024151 0.660444 0.163011 -0.429121
H12   H     H_    0.011599 0.613851 0.101432 0.258982
H13   H     H_    0.963052 0.661996 0.209155 0.243565
C46   C     C_3   0.042529 0.760338 0.127531 -0.795553
H14   H     H_    0.056072 0.808020 0.187937 0.284814
H15   H     H_    0.983135 0.787129 0.090210 0.280800
H16   H     H_    0.100907 0.760789 0.077425 0.268377
N7    N     N_R   0.622647 0.744147 0.387756 0.247658
O19   O     O_R   0.704165 0.735492 0.416896 -0.327819
O20   O     O_R   0.603222 0.716577 0.302855 -0.298116
N8    N     N_R   0.367724 0.254403 0.599799 0.242675
O21   O     O_R   0.380378 0.294163 0.681325 -0.287721
O22   O     O_R   0.287814 0.252815 0.565234 -0.310913
N9    N     N_R   0.377377 0.744184 0.612269 0.247680
O23   O     O_R   0.295850 0.735523 0.583153 -0.327795
O24   O     O_R   0.396825 0.716651 0.697169 -0.298091
N10   N     N_R   0.632219 0.254392 0.400126 0.242700
O25   O     O_R   0.619503 0.294049 0.318571 -0.287634
O26   O     O_R   0.712148 0.252879 0.434647 -0.310925
N11   N     N_R   0.330204 0.904992 0.696078 0.256390
O27   O     O_R   0.362026 0.893708 0.780276 -0.272506
O28   O     O_R   0.244420 0.897261 0.684573 -0.268786
N12   N     N_R   0.666928 0.096984 0.302750 0.257802
O29   O     O_R   0.753746 0.099482 0.306803 -0.235822
O30   O     O_R   0.628735 0.119034 0.223945 -0.266670
N13   N     N_R   0.669843 0.904931 0.303963 0.256400
O31   O     O_R   0.638049 0.893607 0.219754 -0.272433
O32   O     O_R   0.755623 0.897205 0.315500 -0.268576
N14   N     N_R   0.333117 0.097051 0.697277 0.257779
O33   O     O_R   0.246296 0.099526 0.693281 -0.235857
O34   O     O_R   0.371356 0.119200 0.776033 -0.266792

loop_
_geom_bond_atom_site_label_1
_geom_bond_atom_site_label_2
_geom_bond_distance
_ccdc_geom_bond_type
N3    O9    1.299766 A    
N11   O27   1.301044 A    
C17   C19   1.423800 A    
N13   O32   1.301101 A    
N9    O23   1.301158 A    
O3    C2    1.288709 A    
N12   O30   1.300951 A    
C11   N3    1.438324 S    
C33   C35   1.419737 A    
C46   H14   1.110940 S    
C17   C23   1.416031 A    
C34   C40   1.418745 A    
C11   C21   1.393398 A    
C43   H8    1.110117 S    
O1    C1    1.288744 A    
C27   C33   1.432968 A    
C25   H1    1.081947 S    
C14   C16   1.398065 A    
C30   N10   1.428460 S    
C31   C37   1.423386 A    
N4    O12   1.301121 A    
N10   O25   1.299944 A    
C32   C38   1.418781 A    
C40   N14   1.433126 S    
C28   C34   1.431175 A    
C30   C32   1.431204 A    
N5    O14   1.300922 A    
O7    Zn1   1.824168 S    
N14   O33   1.300998 A    
C16   N6    1.435530 S    
C23   C25   1.385094 A    
C3    C5    1.433501 S    
C4    C6    1.433503 S    
C41   H3    1.110957 S    
C43   H9    1.110792 S    
N13   O31   1.301048 A    
N7    O20   1.300567 A    
C28   N2    1.368674 A    
C24   C26   1.385125 A    
O3    Zn1   2.012201 S    
C33   C39   1.423378 A    
C34   C36   1.416874 A    
C18   C24   1.416023 A    
N11   O28   1.301095 A    
C29   N1    1.368337 A    
O2    C2    1.289111 A    
C30   N2    1.368665 A    
N12   O29   1.301004 A    
C46   H15   1.110159 S    
C43   H7    1.110815 S    
O17   C41   1.417931 S    
C22   C25   1.398123 A    
O8    Zn2   1.824169 S    
C44   H11   1.117387 S    
O18   C44   1.417932 S    
C27   N1    1.368343 A    
N4    O11   1.299744 A    
N6    O16   1.300949 A    
O5    C3    1.299992 A    
C19   C20   1.404696 A    
C42   C43   1.525642 S    
C39   N13   1.432505 S    
C31   C35   1.419720 A    
O6    C4    1.299612 A    
N8    O22   1.301211 A    
C15   N5    1.435573 S    
C28   N8    1.428493 S    
C12   C22   1.393349 A    
C6    C8    1.204874 T    
C45   H12   1.111703 S    
C45   H13   1.110011 S    
N3    O10   1.301077 A    
C12   C14   1.395281 A    
O1    Zn1   2.012215 S    
Zn1   N1    2.025637 S    
C38   C39   1.406658 A    
C23   O17   1.384151 S    
Zn2   N2    2.025638 S    
C46   H16   1.110883 S    
C5    C7    1.204874 T    
C38   N12   1.433130 S    
O6    Zn2   1.824075 S    
C16   C18   1.404025 A    
O4    C1    1.289057 A    
C12   N4    1.438341 S    
C44   C45   1.533838 S    
N9    O24   1.300561 A    
C15   C17   1.403990 A    
C45   C46   1.525619 S    
C32   C36   1.416879 A    
N10   O26   1.301217 A    
C37   C40   1.406661 A    
N6    O15   1.300887 A    
C9    C10   1.205050 T    
C11   C13   1.395297 A    
C42   H5    1.111604 S    
C19   C21   1.414597 A    
C24   O18   1.384122 S    
C20   C22   1.414615 A    
C29   N9    1.427432 S    
C1    C14   1.424289 S    
C41   C42   1.533833 S    
C2    C13   1.424315 S    
C26   H2    1.081891 S    
N8    O21   1.299941 A    
C7    C9    1.411224 S    
C18   C20   1.423818 A    
C8    C10   1.411223 S    
C13   C15   1.398067 A    
O4    Zn2   2.012203 S    
N5    O13   1.300895 A    
O2    Zn2   2.012213 S    
O7    C4    1.300001 A    
N14   O34   1.300938 A    
O8    C3    1.299620 A    
C44   H10   1.111028 S    
O5    Zn1   1.824077 S    
C41   H4    1.117311 S    
C35   C36   1.435703 A    
C42   H6    1.109910 S    
C29   C31   1.432966 A    
C21   C26   1.398109 A    
N7    O19   1.301157 A    
C27   N7    1.427447 S    
C37   N11   1.432513 S    
