data_mof_unit_33669.cif
_audit_creation_date              2012-12-10T20:36:33-0500
_audit_creation_method            fapswitch 2.2
_symmetry_space_group_name_H-M    P1
_symmetry_Int_Tables_number       1
_space_group_crystal_system       triclinic
_cell_length_a                    10.500073
_cell_length_b                    10.650989
_cell_length_c                    9.872835
_cell_angle_alpha                 89.828098
_cell_angle_beta                  90.566757
_cell_angle_gamma                 89.940608
_cell_volume                      1104.08035968

loop_
_atom_site_label
_atom_site_type_symbol
_atom_type_description
_atom_site_fract_x
_atom_site_fract_y
_atom_site_fract_z
_atom_type_partial_charge
C1    C     C_R   0.510706 0.260301 0.500078 0.899254
C2    C     C_3   0.956297 0.606291 0.441359 -0.186471
C3    C     C_3   0.038482 0.506125 0.371037 -0.144529
C4    C     C_3   0.122272 0.501227 0.498398 0.031671
C5    C     C_R   0.524996 0.063614 0.622746 0.130116
C6    C     C_R   0.540838 0.129224 0.501677 -0.196780
C7    C     C_R   0.581577 0.063451 0.384618 -0.049713
C8    C     C_R   0.571227 0.932997 0.385117 -0.279877
C9    C     C_R   0.527869 0.871276 0.501328 -0.132899
C10   C     C_R   0.519255 0.936020 0.622520 0.140716
C11   C     C_3   0.419150 0.931685 0.728760 -0.462951
C12   C     C_R   0.257307 0.500671 0.499349 0.861350
C13   C     C_3   0.425508 0.073766 0.729750 -0.473824
C14   C     C_R   0.389003 0.485550 0.070085 0.209818
C15   C     C_R   0.608050 0.524763 0.072884 -0.097745
C16   C     C_R   0.608081 0.524637 0.929110 -0.141763
C17   C     C_R   0.388820 0.486530 0.927619 0.222802
C18   C     C_3   0.300270 0.377565 0.920463 -0.509540
C19   C     C_3   0.302102 0.375012 0.074229 -0.497900
C20   C     C_R   0.504105 0.740137 0.499918 0.882096
C21   C     C_R   0.742713 0.499829 0.500756 0.874393
C22   C     C_3   0.043705 0.395076 0.559569 -0.194007
C23   C     C_3   0.957335 0.399836 0.432210 -0.160223
C24   C     C_3   0.877750 0.500043 0.502286 0.032076
C25   C     C_3   0.961460 0.495302 0.629849 -0.143653
C26   C     C_3   0.042807 0.601506 0.568638 -0.174327
H1    H     H_    0.918535 0.317520 0.377011 0.181487
H2    H     H_    0.454618 0.888060 0.824400 0.220206
H3    H     H_    0.336365 0.119401 0.692653 0.193563
H4    H     H_    0.465275 0.111500 0.826069 0.216703
H5    H     H_    0.695810 0.543070 0.127405 0.155610
H6    H     H_    0.695827 0.542726 0.876176 0.148653
H7    H     H_    0.206027 0.404151 0.876697 0.201682
H8    H     H_    0.344633 0.293766 0.874256 0.214392
H9    H     H_    0.208359 0.398203 0.118651 0.193723
H10   H     H_    0.349035 0.290034 0.117525 0.228930
H11   H     H_    0.084247 0.309293 0.607543 0.131661
H12   H     H_    0.926100 0.490794 0.735373 0.135770
H13   H     H_    0.082545 0.683522 0.623810 0.130601
H14   H     H_    0.915789 0.692135 0.393499 0.133210
H15   H     H_    0.072907 0.512019 0.265389 0.135477
H16   H     H_    0.593483 0.880417 0.294498 0.200845
H17   H     H_    0.326751 0.894528 0.690185 0.192264
N1    N     N_R   0.499140 0.499140 0.142800 -0.102780
N2    N     N_R   0.499140 0.499180 0.857150 -0.107818
O1    O     O_R   0.500020 0.316790 0.614690 -0.617440
O2    O     O_R   0.500000 0.316760 0.385350 -0.592577
O3    O     O_R   0.313960 0.499990 0.614650 -0.623157
O4    O     O_R   0.313940 0.499950 0.385310 -0.626194
O5    O     O_R   0.500000 0.683240 0.614650 -0.616310
O6    O     O_R   0.499980 0.683210 0.385310 -0.622538
O7    O     O_R   0.686060 0.500050 0.614690 -0.639966
O8    O     O_R   0.686040 0.500010 0.385350 -0.607045
Zn1   Zn    Zn3+2 0.500010 0.500020 0.653130 0.939971
Zn2   Zn    Zn3+2 0.499990 0.499980 0.346870 0.970195
C27   C     C_2   0.630990 0.125104 0.260757 0.933690
O9    O     O_2   0.701754 0.215812 0.270049 -0.646704
O10   O     O_R   0.600329 0.076219 0.133256 -0.829332
H18   H     H_    0.639821 0.125930 0.056678 0.335139

loop_
_geom_bond_atom_site_label_1
_geom_bond_atom_site_label_2
_ccdc_geom_bond_type
C16   N2    A    
O3    Zn1   S    
C4    C26   S    
C23   C24   S    
C15   H5    S    
C6    C7    A    
C23   H1    S    
C25   H12   S    
C16   H6    S    
C4    C22   S    
C9    C10   A    
C9    C20   S    
O6    Zn2   S    
C14   C19   S    
C14   C17   A    
C12   O3    A    
C5    C13   S    
O1    Zn1   S    
C12   O4    A    
C25   C26   S    
O2    Zn2   S    
C7    C8    A    
C2    C26   S    
C19   H9    S    
C24   C25   S    
C21   O8    A    
C11   C13   S    
N1    Zn2   S    
O5    Zn1   S    
C11   H2    S    
C18   H8    S    
C15   C16   A    
C5    C6    A    
C7    C27   S    
C13   H3    S    
O7    Zn1   S    
N2    Zn1   S    
C17   C18   S    
C20   O6    A    
C2    C3    S    
C19   H10   S    
O8    Zn2   S    
C2    C24   S    
C15   N1    A    
C26   H13   S    
C18   H7    S    
C1    O1    A    
C4    C12   S    
C10   C11   S    
C8    H16   S    
C3    C4    S    
C2    H14   S    
C13   H4    S    
C5    C10   A    
C27   O9    D    
C14   N1    A    
C18   C19   S    
C21   C24   S    
C1    C6    S    
C22   C23   S    
C1    O2    A    
C20   O5    A    
O10   H18   S    
O4    Zn2   S    
C22   H11   S    
C3    C23   S    
C11   H17   S    
C21   O7    A    
C3    H15   S    
C17   N2    A    
C27   O10   S    
C8    C9    A    
C22   C25   S    
