data_mof_unit_47039.cif
_audit_creation_date              2012-12-10T17:35:50-0500
_audit_creation_method            fapswitch 2.2
_symmetry_space_group_name_H-M    P1
_symmetry_Int_Tables_number       1
_space_group_crystal_system       triclinic
_cell_length_a                    10.507394
_cell_length_b                    12.04619
_cell_length_c                    12.894937
_cell_angle_alpha                 92.67565
_cell_angle_beta                  90.623754
_cell_angle_gamma                 86.197193
_cell_volume                      1626.74576928

loop_
_atom_site_label
_atom_site_type_symbol
_atom_type_description
_atom_site_fract_x
_atom_site_fract_y
_atom_site_fract_z
_atom_type_partial_charge
C1    C     C_R   0.498089 0.521473 0.700273 0.914383
C2    C     C_R   0.611586 0.160125 0.585852 0.487080
C3    C     C_R   0.552851 0.856640 0.539888 -0.119292
C4    C     C_R   0.447150 0.143360 0.460111 -0.119295
C5    C     C_R   0.545810 0.974527 0.533692 -0.026382
C6    C     C_R   0.454190 0.025473 0.466308 -0.026388
C7    C     C_R   0.742482 0.500345 0.500255 0.958271
C8    C     C_R   0.257518 0.499655 0.499745 0.958271
C9    C     C_3   0.962096 0.456361 0.588252 -0.231685
C10   C     C_3   0.037904 0.543639 0.411748 -0.231685
C11   C     C_3   0.038309 0.560523 0.581781 0.432925
C12   C     C_R   0.501911 0.478527 0.299727 0.914382
C13   C     C_3   0.961691 0.439477 0.418219 0.432924
C14   C     C_3   0.122732 0.498872 0.499753 -0.134564
C15   C     C_3   0.877268 0.501128 0.500247 -0.134564
C16   C     C_3   0.048652 0.393764 0.505172 -0.221113
C17   C     C_3   0.951348 0.606236 0.494828 -0.221112
C18   C     C_R   0.502399 0.465989 0.188555 -0.041797
C19   C     C_R   0.497601 0.534011 0.811445 -0.041796
C20   C     C_R   0.505104 0.648971 0.968665 -0.182885
C21   C     C_R   0.494895 0.351029 0.031335 -0.182885
C22   C     C_R   0.502505 0.639469 0.861389 -0.161208
C23   C     C_R   0.494147 0.438318 0.868074 -0.216977
C24   C     C_R   0.497494 0.360531 0.138611 -0.161208
C25   C     C_3   0.269289 0.007962 0.336314 -0.361483
C26   C     C_3   0.323321 0.031671 0.230743 -0.803043
C27   C     C_3   0.730708 0.992039 0.663689 -0.361489
C28   C     C_3   0.676675 0.968331 0.769259 -0.803010
C29   C     C_R   0.505852 0.561682 0.131926 -0.216977
C30   C     C_R   0.497172 0.446947 0.974691 0.168740
C31   C     C_R   0.502827 0.553053 0.025309 0.168740
C32   C     C_R   0.372691 0.957257 0.406871 0.019639
C33   C     C_R   0.627308 0.042743 0.593130 0.019636
C34   C     C_R   0.388413 0.839875 0.414148 0.487084
Cl1   Cl    Cl    0.094153 0.640623 0.690563 -0.603502
Cl2   Cl    Cl    0.905847 0.359377 0.309437 -0.603502
Cl3   Cl    Cl    0.704817 0.246640 0.665350 -0.639316
Cl4   Cl    Cl    0.295181 0.753361 0.334651 -0.639316
H1    H     H_    0.927058 0.422044 0.660281 0.212925
H2    H     H_    0.490720 0.269371 0.992861 0.148184
H3    H     H_    0.381604 0.185913 0.408088 0.163830
H4    H     H_    0.618397 0.814087 0.591911 0.163826
H5    H     H_    0.400777 0.089822 0.239450 0.242512
H6    H     H_    0.361735 0.952892 0.191033 0.276187
H7    H     H_    0.246507 0.069973 0.181594 0.262031
H8    H     H_    0.189621 0.952814 0.324022 0.256783
H9    H     H_    0.222299 0.084869 0.373094 0.197962
H10   H     H_    0.638228 0.047109 0.808957 0.276177
H11   H     H_    0.599240 0.910156 0.760552 0.242503
H12   H     H_    0.072941 0.577955 0.339719 0.212925
H13   H     H_    0.753496 0.930056 0.818419 0.262030
H14   H     H_    0.777700 0.915132 0.626911 0.197963
H15   H     H_    0.810376 0.047187 0.675981 0.256783
H16   H     H_    0.091600 0.307229 0.508366 0.185180
H17   H     H_    0.908400 0.692771 0.491634 0.185180
H18   H     H_    0.510474 0.643347 0.170460 0.185298
H19   H     H_    0.489525 0.356653 0.829540 0.185297
H20   H     H_    0.494676 0.285992 0.182166 0.164331
H21   H     H_    0.505322 0.714008 0.817834 0.164329
H22   H     H_    0.509278 0.730629 0.007139 0.148185
N1    N     N_R   0.523490 0.207800 0.519350 -0.138646
N2    N     N_R   0.476510 0.792200 0.480650 -0.138647
O1    O     O_R   0.506270 0.421700 0.658830 -0.585852
O2    O     O_R   0.493730 0.578300 0.341170 -0.585852
O3    O     O_R   0.491200 0.609310 0.646410 -0.629447
O4    O     O_R   0.508800 0.390690 0.353590 -0.629446
O5    O     O_R   0.693580 0.406210 0.506230 -0.545038
O6    O     O_R   0.306420 0.593790 0.493770 -0.545038
O7    O     O_R   0.678510 0.593830 0.493810 -0.648108
O8    O     O_R   0.321490 0.406170 0.506190 -0.648107
Zn1   Zn    Zn3+2 0.510060 0.374730 0.508290 1.014079
Zn2   Zn    Zn3+2 0.489940 0.625270 0.491710 1.014079

loop_
_geom_bond_atom_site_label_1
_geom_bond_atom_site_label_2
_ccdc_geom_bond_type
C6    C32   A    
C3    H4    S    
C9    H1    S    
C26   H6    S    
C27   C33   S    
C18   C24   A    
C9    C16   S    
C30   C31   A    
C12   O2    A    
C28   H13   S    
C4    H3    S    
C10   C17   S    
C34   N2    A    
C15   C17   S    
C26   H7    S    
C11   C17   S    
C5    C33   A    
C1    O3    A    
O8    Zn1   S    
C20   H22   S    
C25   H9    S    
C2    N1    A    
N1    Zn1   S    
C25   C32   S    
C7    C15   S    
C1    O1    A    
C26   H5    S    
C1    C19   S    
C23   C30   A    
C19   C22   A    
C13   Cl2   S    
C4    C6    A    
C10   C14   S    
C22   H21   S    
C25   C26   S    
C12   O4    A    
C4    N1    A    
C32   C34   A    
O7    Zn2   S    
C19   C23   A    
C28   H11   S    
O4    Zn1   S    
O6    Zn2   S    
N2    Zn2   S    
C18   C29   A    
C9    C11   S    
C2    C33   A    
O1    Zn1   S    
C8    O6    A    
C13   C15   S    
C14   C16   S    
C13   C16   S    
C10   H12   S    
C27   H14   S    
C3    N2    A    
C23   H19   S    
C17   H17   S    
C28   H10   S    
C8    C14   S    
C34   Cl4   S    
C20   C22   A    
C3    C5    A    
C10   C13   S    
C7    O7    A    
C27   H15   S    
C29   H18   S    
O3    Zn2   S    
C21   C30   A    
C8    O8    A    
C11   Cl1   S    
C9    C15   S    
C29   C31   A    
C2    Cl3   S    
C5    C6    A    
C21   H2    S    
C11   C14   S    
O5    Zn1   S    
O2    Zn2   S    
C16   H16   S    
C7    O5    A    
C24   H20   S    
C21   C24   A    
C12   C18   S    
C27   C28   S    
C25   H8    S    
C20   C31   A    
