data_mof_unit_14632.cif
_audit_creation_date              2012-10-26T18:30:19-0400
_audit_creation_method            fapswitch 2.2
_symmetry_space_group_name_H-M    P1
_symmetry_Int_Tables_number       1
_space_group_crystal_system       triclinic
_cell_length_a                    10.66388
_cell_length_b                    12.997868
_cell_length_c                    11.72232
_cell_angle_alpha                 100.232088
_cell_angle_beta                  94.136172
_cell_angle_gamma                 91.18891
_cell_volume                      1593.86630914

loop_
_atom_site_label
_atom_site_type_symbol
_atom_type_description
_atom_site_fract_x
_atom_site_fract_y
_atom_site_fract_z
_atom_type_partial_charge
C1    C     C_R   0.498095 0.299064 0.478324 0.534228
C2    C     C_R   0.613827 0.585184 0.857099 0.291403
C3    C     C_R   0.557901 0.537392 0.157364 0.031024
C4    C     C_R   0.444981 0.461470 0.842785 0.024257
C5    C     C_R   0.548540 0.532334 0.034608 -0.028998
C6    C     C_R   0.455211 0.467986 0.965193 -0.033796
C7    C     C_R   0.259389 0.498758 0.500006 0.546952
C8    C     C_R   0.740666 0.502238 0.500221 0.554832
C9    C     C_3   0.046673 0.485101 0.602387 0.152650
C10   C     C_3   0.953790 0.517369 0.398803 0.156065
C11   C     C_3   0.955089 0.408253 0.520333 -0.147500
C12   C     C_R   0.500747 0.700927 0.521577 0.543547
C13   C     C_3   0.045338 0.594155 0.480914 -0.138320
C14   C     C_3   0.877275 0.503124 0.500442 0.023708
C15   C     C_3   0.122958 0.499142 0.500508 0.031258
C16   C     C_3   0.968082 0.579793 0.585089 -0.123257
C17   C     C_3   0.032149 0.422640 0.416096 -0.118639
C18   C     C_R   0.497854 0.814412 0.533621 -0.000830
C19   C     C_R   0.498229 0.185499 0.465680 -0.000910
C20   C     C_R   0.518111 0.014950 0.347133 -0.142143
C21   C     C_R   0.474605 0.984787 0.651365 -0.144227
C22   C     C_R   0.513727 0.123025 0.357329 -0.140784
C23   C     C_R   0.484865 0.139171 0.563458 -0.133419
C24   C     C_R   0.478524 0.876724 0.641063 -0.141356
C25   C     C_3   0.020174 0.474955 0.805518 -0.311950
C26   C     C_3   0.987124 0.540045 0.201018 -0.305264
C27   C     C_3   0.696602 0.757920 0.845028 -0.312597
C28   C     C_3   0.200540 0.288110 0.120228 -0.363978
C29   C     C_R   0.511320 0.860738 0.435805 -0.133938
C30   C     C_R   0.488471 0.031188 0.553862 0.047478
C31   C     C_R   0.506119 0.968640 0.445023 0.047211
C32   C     C_R   0.372718 0.411641 0.018747 -0.130885
C33   C     C_R   0.629106 0.590579 0.979294 -0.159329
C34   C     C_R   0.382006 0.417879 0.141074 0.302067
Cu1   Cu    Cu3+1 0.509400 0.507730 0.615930 0.962292
Cu2   Cu    Cu3+1 0.490600 0.492270 0.384070 0.940978
H1    H     H_    0.916423 0.333446 0.538727 0.107662
H2    H     H_    0.459920 0.031866 0.735079 0.099000
H3    H     H_    0.374076 0.410104 0.789442 0.114356
H4    H     H_    0.629202 0.587969 0.210974 0.115606
H5    H     H_    0.300760 0.363314 0.963418 0.085383
H6    H     H_    0.702895 0.640544 0.030490 0.083950
H7    H     H_    0.151171 0.396372 0.702691 0.239998
H8    H     H_    0.070686 0.453783 0.883868 0.128060
H9    H     H_    0.935558 0.422235 0.780143 0.144031
H10   H     H_    0.991576 0.557173 0.828213 0.144525
H11   H     H_    0.842745 0.601325 0.298273 0.242017
H12   H     H_    0.084170 0.668976 0.462710 0.107129
H13   H     H_    0.935494 0.550673 0.118421 0.125195
H14   H     H_    0.036742 0.465425 0.184733 0.177482
H15   H     H_    0.056882 0.605988 0.229273 0.145384
H16   H     H_    0.784078 0.617659 0.798848 0.225868
H17   H     H_    0.738083 0.799030 0.780650 0.144983
H18   H     H_    0.754713 0.778181 0.928929 0.107205
H19   H     H_    0.599739 0.785273 0.857268 0.148434
H20   H     H_    0.319419 0.335774 0.266354 0.298532
H21   H     H_    0.139274 0.251922 0.175970 0.131763
H22   H     H_    0.250925 0.224714 0.067528 0.138596
H23   H     H_    0.940148 0.643276 0.654062 0.106480
H24   H     H_    0.138538 0.328383 0.063263 0.138882
H25   H     H_    0.060021 0.359416 0.346968 0.115270
H26   H     H_    0.525826 0.813007 0.352325 0.116627
H27   H     H_    0.471637 0.186980 0.647203 0.115269
H28   H     H_    0.464473 0.841932 0.716568 0.126099
H29   H     H_    0.524092 0.157698 0.280915 0.132609
H30   H     H_    0.531201 0.967753 0.263104 0.099946
N1    N     N_R   0.523540 0.519360 0.790140 -0.207956
N2    N     N_R   0.476460 0.480640 0.209860 -0.223652
N3    N     N_2   0.102800 0.464842 0.712070 -0.492085
N4    N     N_2   0.899076 0.537362 0.288576 -0.497982
N5    N     N_2   0.694883 0.646268 0.802801 -0.451411
N6    N     N_2   0.289928 0.362025 0.192503 -0.498039
O1    O     O_R   0.506670 0.354460 0.582000 -0.515716
O2    O     O_R   0.493330 0.645540 0.418000 -0.517838
O3    O     O_R   0.490800 0.341410 0.386200 -0.529415
O4    O     O_R   0.509200 0.658590 0.613800 -0.473307
O5    O     O_R   0.324790 0.506500 0.597880 -0.491867
O6    O     O_R   0.675210 0.493500 0.402120 -0.492020
O7    O     O_R   0.308910 0.493440 0.402080 -0.502464
O8    O     O_R   0.691090 0.506560 0.597920 -0.490421

loop_
_geom_bond_atom_site_label_1
_geom_bond_atom_site_label_2
_ccdc_geom_bond_type
C6    C32   A    
C12   O2    A    
Cu1   Cu2   S    
C27   H18   S    
H11   N4    S    
C28   H21   S    
C18   C24   A    
C33   H6    S    
C20   H30   S    
C9    C16   S    
C9    N3    S    
C26   H14   S    
C5    C6    A    
C11   C14   S    
C27   H19   S    
C10   C17   S    
Cu1   O8    S    
C11   H1    S    
C17   H25   S    
Cu1   O1    S    
C21   H2    S    
C3    N2    A    
H20   N6    S    
C5    C33   A    
C32   H5    S    
C10   C13   S    
C7    O5    A    
C23   H27   S    
C24   H28   S    
C8    O6    A    
C28   N6    S    
C25   H8    S    
C28   H24   S    
Cu1   O4    S    
C1    C19   S    
C1    O3    A    
C23   C30   A    
C19   C22   A    
C4    C6    A    
C2    N1    A    
C10   C14   S    
C26   H13   S    
C34   N2    A    
Cu1   O5    S    
C16   H23   S    
C32   C34   A    
C19   C23   A    
C22   H29   S    
Cu2   O3    S    
C4    N1    A    
C4    H3    S    
Cu1   N1    S    
Cu2   N2    S    
C18   C29   A    
C9    C11   S    
Cu2   O2    S    
C10   N4    S    
C2    C33   A    
C20   C22   A    
C3    H4    S    
C13   C15   S    
C26   N4    S    
C14   C16   S    
C21   C24   A    
C25   N3    S    
C2    N5    S    
C25   H9    S    
C27   N5    S    
C7    O7    A    
C15   C17   S    
C29   H26   S    
C11   C17   S    
C8    C14   S    
C3    C5    A    
Cu2   O7    S    
C13   H12   S    
C27   H17   S    
C28   H22   S    
C21   C30   A    
C1    O1    A    
C12   O4    A    
C9    C15   S    
C29   C31   A    
H16   N5    S    
Cu2   O6    S    
C26   H15   S    
C30   C31   A    
C7    C15   S    
C34   N6    S    
H7    N3    S    
C13   C16   S    
C12   C18   S    
C8    O8    A    
C25   H10   S    
C20   C31   A    
