data_mof_unit_18882.cif
_audit_creation_date              2012-10-26T20:38:01-0400
_audit_creation_method            fapswitch 2.2
_symmetry_space_group_name_H-M    P1
_symmetry_Int_Tables_number       1
_space_group_crystal_system       triclinic
_cell_length_a                    9.952804
_cell_length_b                    10.978763
_cell_length_c                    13.016719
_cell_angle_alpha                 88.358272
_cell_angle_beta                  76.48755
_cell_angle_gamma                 112.277014
_cell_volume                      1268.82927135

loop_
_atom_site_label
_atom_site_type_symbol
_atom_type_description
_atom_site_fract_x
_atom_site_fract_y
_atom_site_fract_z
_atom_type_partial_charge
C1    C     C_R   0.436831 0.252740 0.509378 0.549657
C2    C     C_R   0.667802 0.651971 0.012286 0.120542
C3    C     C_R   0.344431 0.370256 0.879738 0.063079
C4    C     C_R   0.655799 0.631528 0.120729 0.088655
C5    C     C_R   0.565716 0.577780 0.857290 0.078015
C6    C     C_R   0.435036 0.424646 0.142081 0.072025
C7    C     C_R   0.559608 0.559581 0.966592 0.024533
C8    C     C_R   0.441643 0.444253 0.032923 0.048659
C9    C     C_2   0.393473 0.108945 0.524663 -0.004725
C10   C     C_2   0.604461 0.891383 0.482607 -0.030367
C11   C     C_2   0.490457 0.056004 0.475706 -0.031984
C12   C     C_R   0.562980 0.747339 0.492050 0.617028
C13   C     C_2   0.502644 0.939368 0.530856 -0.043747
C14   C     C_2   0.429862 0.895658 0.647895 0.286912
C15   C     C_2   0.566642 0.099992 0.358798 0.238853
C16   C     C_2   0.761127 0.983522 0.425388 0.184234
C17   C     C_2   0.239656 0.027131 0.593562 0.210833
C18   C     C_2   0.817004 0.416489 0.618738 0.256662
C19   C     C_2   0.194573 0.640038 0.421178 0.282361
C20   C     C_2   0.085010 0.522320 0.497594 0.132679
C21   C     C_2   0.919664 0.500036 0.518372 0.127206
C22   C     C_R   0.474164 0.494641 0.701740 0.585667
C23   C     C_R   0.525936 0.505610 0.298243 0.586207
C24   C     C_R   0.540461 0.519488 0.184627 0.018124
C25   C     C_R   0.460019 0.481885 0.815362 0.060555
C26   C     C_R   0.332698 0.351686 0.988691 0.124631
Cu1   Cu    Cu3+1 0.647370 0.522180 0.481340 1.038140
Cu2   Cu    Cu3+1 0.352630 0.477820 0.518660 1.007783
H1    H     H_    0.941743 0.607149 0.381699 0.243715
H2    H     H_    0.131678 0.263620 0.868284 0.249564
H3    H     H_    0.107761 0.243596 0.049545 0.239019
H4    H     H_    0.214279 0.151674 0.026462 0.245490
H5    H     H_    0.752814 0.833919 0.922741 0.271794
H6    H     H_    0.861829 0.741310 0.892650 0.285743
H7    H     H_    0.396137 0.961886 0.697807 0.095650
H8    H     H_    0.609084 0.036881 0.310715 0.124062
H9    H     H_    0.800821 0.088135 0.435204 0.100237
H10   H     H_    0.180403 0.072928 0.649664 0.114821
H11   H     H_    0.709554 0.339364 0.620245 0.125988
H12   H     H_    0.051061 0.360451 0.595163 0.227807
H13   H     H_    0.287969 0.635786 0.362283 0.128746
H14   H     H_    0.375919 0.261705 0.249837 0.283960
H15   H     H_    0.245552 0.330551 0.264009 0.257358
H16   H     H_    0.754313 0.670197 0.734371 0.295288
H17   H     H_    0.624028 0.739173 0.748227 0.269986
H18   H     H_    0.868714 0.737575 0.130405 0.269049
H19   H     H_    0.752415 0.819562 0.154573 0.257038
H20   H     H_    0.249214 0.182033 0.844533 0.215493
N1    N     N_2   0.131210 0.444490 0.546730 -0.357627
N2    N     N_2   0.868790 0.555510 0.453270 -0.345970
N3    N     N_3   0.323850 0.306393 0.209455 -0.547835
N4    N     N_3   0.676428 0.694995 0.788750 -0.636918
N5    N     N_3   0.759501 0.728053 0.167850 -0.566892
N6    N     N_3   0.241352 0.273339 0.832393 -0.627331
N7    N     N_3   0.209177 0.238748 0.053917 -0.561914
N8    N     N_3   0.792156 0.768273 0.952519 -0.628787
O1    O     O_R   0.578710 0.332530 0.490040 -0.506136
O2    O     O_2   0.577296 0.203308 0.313296 -0.504772
O3    O     O_2   0.846651 0.944039 0.366693 -0.449373
O4    O     O_2   0.175672 0.909893 0.585624 -0.416403
O5    O     O_2   0.853040 0.433411 0.702355 -0.510435
O6    O     O_2   0.180267 0.745608 0.423002 -0.454118
O7    O     O_R   0.421290 0.667470 0.509960 -0.464554
O8    O     O_R   0.329810 0.295070 0.521560 -0.510341
O9    O     O_R   0.670190 0.704930 0.478440 -0.439287
O10   O     O_R   0.604230 0.515670 0.637800 -0.534451
O11   O     O_R   0.395770 0.484330 0.362200 -0.568211
O12   O     O_R   0.355330 0.478200 0.669330 -0.430271
O13   O     O_R   0.644670 0.521800 0.330670 -0.438702
O14   O     O_2   0.411399 0.788213 0.691010 -0.492696

loop_
_geom_bond_atom_site_label_1
_geom_bond_atom_site_label_2
_ccdc_geom_bond_type
C2    C4    A    
C23   C24   S    
C1    O8    A    
C5    N4    S    
H6    N8    S    
C20   N1    D    
Cu1   O9    S    
C1    O1    A    
C4    N5    S    
C18   C21   S    
C8    C26   A    
Cu2   N1    S    
C23   O13   A    
H4    N7    S    
C19   C20   S    
Cu1   O13   S    
Cu1   N2    S    
H14   N3    S    
H19   N5    S    
C6    C24   A    
C26   N7    S    
H16   N4    S    
H5    N8    S    
C6    C8    A    
C22   O12   A    
C7    C8    A    
C18   O5    D    
Cu1   O10   S    
C10   C16   S    
C13   C14   S    
C20   C21   S    
H20   N6    S    
C11   C13   S    
H15   N3    S    
C14   O14   D    
C10   C12   S    
C5    C25   A    
Cu2   O8    S    
H18   N5    S    
C9    C17   S    
C21   N2    D    
Cu2   O12   S    
C10   C13   D    
H1    N2    S    
C9    C11   D    
Cu1   O1    S    
C4    C24   A    
C3    N6    S    
H2    N6    S    
C15   O2    D    
C17   O4    D    
H12   N1    S    
Cu2   O7    S    
C19   H13   S    
C15   H8    S    
C3    C25   A    
Cu2   O11   S    
C1    C9    S    
C17   H10   S    
C12   O9    A    
C6    N3    S    
C23   O11   A    
C14   H7    S    
C5    C7    A    
C18   H11   S    
C22   O10   A    
C2    N8    S    
C19   O6    D    
H17   N4    S    
H3    N7    S    
C12   O7    A    
C11   C15   S    
C16   O3    D    
C3    C26   A    
C2    C7    A    
C16   H9    S    
Cu1   Cu2   S    
C22   C25   S    
