data_mof_unit_13458.cif
_audit_creation_date              2012-12-11T16:52:20-0500
_audit_creation_method            fapswitch 2.2
_symmetry_space_group_name_H-M    P1
_symmetry_Int_Tables_number       1
_space_group_crystal_system       triclinic
_cell_length_a                    7.211504
_cell_length_b                    25.901086
_cell_length_c                    28.942064
_cell_angle_alpha                 89.919962
_cell_angle_beta                  90.044903
_cell_angle_gamma                 90.06285
_cell_volume                      5405.95597154

loop_
_atom_site_label
_atom_site_type_symbol
_atom_type_description
_atom_site_fract_x
_atom_site_fract_y
_atom_site_fract_z
_atom_type_partial_charge
O1    O     O_R   0.601030 0.796770 0.202460 -0.538679
O2    O     O_R   0.398970 0.203230 0.797540 -0.539307
O3    O     O_R   0.398970 0.203230 0.702460 -0.541279
O4    O     O_R   0.601030 0.796770 0.297540 -0.540072
O5    O     O_R   0.101030 0.703230 0.297540 -0.538020
O6    O     O_R   0.898970 0.296770 0.702460 -0.539040
O7    O     O_R   0.898970 0.296770 0.797540 -0.538892
O8    O     O_R   0.101030 0.703230 0.202460 -0.538499
O9    O     O_R   0.271290 0.802910 0.297210 -0.518897
O10   O     O_R   0.728710 0.197090 0.702790 -0.517333
O11   O     O_R   0.728710 0.197090 0.797210 -0.515684
O12   O     O_R   0.271290 0.802910 0.202790 -0.519231
O13   O     O_R   0.771290 0.697090 0.202790 -0.515286
O14   O     O_R   0.228710 0.302910 0.797210 -0.518750
O15   O     O_R   0.228710 0.302910 0.702790 -0.516504
O16   O     O_R   0.771290 0.697090 0.297210 -0.518500
C1    C     C_R   0.440442 0.815140 0.312768 0.768050
C2    C     C_R   0.559836 0.185120 0.687186 0.783304
C3    C     C_R   0.559876 0.184924 0.812847 0.780631
C4    C     C_R   0.440083 0.814827 0.187018 0.782682
C5    C     C_R   0.940024 0.684911 0.187150 0.782498
C6    C     C_R   0.060025 0.314782 0.813048 0.783084
C7    C     C_R   0.059887 0.315094 0.687168 0.778368
C8    C     C_R   0.940084 0.685269 0.313069 0.786138
O17   O     O_3   0.434520 0.717290 0.250000 -0.384855
O18   O     O_3   0.565480 0.282710 0.750000 -0.386914
O19   O     O_3   0.934520 0.782710 0.250000 -0.391484
O20   O     O_3   0.065480 0.217290 0.750000 -0.386481
V1    V     V_3+5 0.159680 0.756060 0.250000 1.453677
V2    V     V_3+5 0.840320 0.243940 0.750000 1.466794
V3    V     V_3+5 0.659680 0.743940 0.250000 1.458930
V4    V     V_3+5 0.340320 0.256060 0.750000 1.463465
C9    C     C_R   0.908700 0.349381 0.614367 0.298984
C10   C     C_R   0.084327 0.657220 0.388379 0.277960
C11   C     C_R   0.090715 0.650771 0.114283 0.298302
C12   C     C_R   0.916795 0.342652 0.888484 0.280135
C13   C     C_R   0.409061 0.150898 0.885763 0.297946
C14   C     C_R   0.582900 0.842917 0.111626 0.280681
C15   C     C_R   0.616756 0.856980 0.377897 0.293588
C16   C     C_R   0.415367 0.155600 0.612574 0.285435
C17   C     C_R   0.895912 0.386494 0.578508 0.421640
C18   C     C_R   0.092242 0.623722 0.427238 0.391093
C19   C     C_R   0.103692 0.613665 0.078474 0.419079
C20   C     C_R   0.909042 0.376065 0.927355 0.388806
C21   C     C_R   0.396019 0.113861 0.921685 0.419324
C22   C     C_R   0.590334 0.876435 0.072783 0.388820
C23   C     C_R   0.649006 0.901113 0.405674 0.419757
C24   C     C_R   0.407824 0.121400 0.574611 0.380524
C25   C     C_R   0.026032 0.427294 0.576118 -0.127024
C26   C     C_R   0.985144 0.578184 0.427729 -0.107753
C27   C     C_R   0.973962 0.572746 0.076106 -0.126480
C28   C     C_R   0.015809 0.421687 0.927833 -0.106429
C29   C     C_R   0.525556 0.073000 0.924121 -0.126784
C30   C     C_R   0.484056 0.922064 0.072477 -0.107220
C31   C     C_R   0.497195 0.932187 0.419431 -0.117125
C32   C     C_R   0.519501 0.076962 0.574072 -0.117505
C33   C     C_R   0.161445 0.431630 0.610539 -0.327900
C34   C     C_R   0.859151 0.569078 0.391736 -0.332234
C35   C     C_R   0.838673 0.568362 0.110536 -0.328198
C36   C     C_R   0.141485 0.430860 0.891787 -0.332290
C37   C     C_R   0.660741 0.068559 0.889720 -0.328541
C38   C     C_R   0.359336 0.931248 0.108674 -0.331638
C39   C     C_R   0.335739 0.928586 0.392644 -0.289044
C40   C     C_R   0.647226 0.068829 0.609776 -0.330612
H1    H     H_    0.261715 0.462766 0.608838 0.158103
H2    H     H_    0.779095 0.533767 0.392813 0.154448
H3    H     H_    0.738576 0.537184 0.108884 0.158283
H4    H     H_    0.221456 0.466184 0.892821 0.154169
H5    H     H_    0.760691 0.037408 0.891504 0.158225
H6    H     H_    0.279955 0.966638 0.107779 0.154154
H7    H     H_    0.226241 0.955844 0.398309 0.166243
H8    H     H_    0.729534 0.033956 0.608783 0.153083
C41   C     C_R   0.171315 0.396124 0.647164 0.387463
C42   C     C_R   0.834357 0.604934 0.355200 0.410609
C43   C     C_R   0.828634 0.603868 0.147111 0.386854
C44   C     C_R   0.166109 0.395074 0.855242 0.410776
C45   C     C_R   0.670750 0.103960 0.853007 0.386971
C46   C     C_R   0.334948 0.895365 0.145208 0.410083
C47   C     C_R   0.322739 0.894120 0.355278 0.392738
C48   C     C_R   0.668542 0.104772 0.646219 0.413979
C49   C     C_R   0.048099 0.353734 0.648824 -0.283128
C50   C     C_R   0.952106 0.648558 0.352858 -0.269745
C51   C     C_R   0.951621 0.646318 0.148772 -0.282769
C52   C     C_R   0.048429 0.351430 0.852887 -0.266309
C53   C     C_R   0.548041 0.146388 0.851277 -0.282401
C54   C     C_R   0.451864 0.851627 0.147315 -0.267329
C55   C     C_R   0.455729 0.854754 0.350144 -0.278174
C56   C     C_R   0.548077 0.147818 0.648126 -0.271516
C57   C     C_R   0.035498 0.450359 0.491706 -0.112095
C58   C     C_R   0.987251 0.554882 0.512445 -0.093057
C59   C     C_R   0.966066 0.549629 0.991633 -0.112763
C60   C     C_R   0.012231 0.445031 0.012611 -0.092470
C61   C     C_R   0.497854 0.981843 0.952136 -0.209652
C62   C     C_R   0.525228 0.013363 0.044211 -0.199426
C63   C     C_R   0.343717 0.981461 0.484512 -0.190803
C64   C     C_R   0.675126 0.028903 0.510401 -0.214289
H9    H     H_    0.053357 0.409969 0.483189 0.139489
H10   H     H_    0.962050 0.594784 0.521295 0.124213
H11   H     H_    0.948968 0.590040 0.982989 0.138206
H12   H     H_    0.036641 0.405101 0.021601 0.125189
H13   H     H_    0.484196 0.969156 0.916647 0.119410
H14   H     H_    0.537266 0.026246 0.079671 0.118594
H15   H     H_    0.213574 0.962637 0.476505 0.133839
H16   H     H_    0.804881 0.047222 0.519875 0.130713
C65   C     C_R   0.025527 0.486900 0.456021 -0.199360
C66   C     C_R   0.999928 0.518483 0.548097 -0.210043
C67   C     C_R   0.976296 0.513079 0.956013 -0.199548
C68   C     C_R   0.999315 0.481445 0.048196 -0.209399
C69   C     C_R   0.484971 0.945439 0.987778 -0.092528
C70   C     C_R   0.535383 0.049915 0.008535 -0.112994
C71   C     C_R   0.346721 0.016320 0.521511 -0.103047
C72   C     C_R   0.672145 0.994794 0.473101 -0.138683
H17   H     H_    0.036791 0.473991 0.420560 0.119208
H18   H     H_    0.986921 0.531195 0.583585 0.119085
H19   H     H_    0.965953 0.526051 0.920516 0.118634
H20   H     H_    0.011348 0.468675 0.083725 0.119402
H21   H     H_    0.458980 0.905557 0.978922 0.124819
H22   H     H_    0.554106 0.090288 0.017056 0.137579
H23   H     H_    0.219804 0.023992 0.540280 0.120526
H24   H     H_    0.802079 0.989427 0.455790 0.174922
C73   C     C_R   0.001373 0.539643 0.465959 0.180088
C74   C     C_R   0.022444 0.465860 0.538061 0.146352
C75   C     C_R   0.999420 0.460270 0.966040 0.179378
C76   C     C_R   0.977824 0.534131 0.038070 0.146267
C77   C     C_R   0.500042 0.960640 0.034264 0.179913
C78   C     C_R   0.521516 0.034441 0.962179 0.146978
C79   C     C_R   0.512871 0.040202 0.534796 0.175375
C80   C     C_R   0.506087 0.970236 0.459034 0.148248
O21   O     O_3   0.796639 0.305887 0.613326 -0.557356
C81   C     C_3   0.616369 0.318568 0.628592 -0.060777
H25   H     H_    0.614723 0.348796 0.655986 0.132923
H26   H     H_    0.552263 0.283504 0.643608 0.157407
H27   H     H_    0.528245 0.330262 0.599004 0.154257
O22   O     O_3   0.192371 0.701499 0.387175 -0.566192
C82   C     C_3   0.376940 0.688206 0.376230 -0.150114
H28   H     H_    0.459220 0.724207 0.373057 0.160174
H29   H     H_    0.385352 0.667811 0.342539 0.152695
H30   H     H_    0.442491 0.664696 0.403865 0.155643
O23   O     O_3   0.202298 0.694358 0.113164 -0.557851
C83   C     C_3   0.382918 0.681804 0.128363 -0.063444
H31   H     H_    0.385382 0.651378 0.155654 0.134099
H32   H     H_    0.446555 0.716837 0.143487 0.157948
H33   H     H_    0.470965 0.670454 0.098714 0.153104
O24   O     O_3   0.808562 0.298425 0.887246 -0.565332
C84   C     C_3   0.624198 0.311897 0.876171 -0.145198
H34   H     H_    0.541976 0.275975 0.872592 0.168429
H35   H     H_    0.616186 0.332714 0.842625 0.149139
H36   H     H_    0.558371 0.335050 0.903924 0.156840
O25   O     O_3   0.297651 0.194454 0.886735 -0.557990
C85   C     C_3   0.116867 0.181799 0.871680 -0.064026
H37   H     H_    0.114103 0.151316 0.844516 0.133884
H38   H     H_    0.053198 0.216772 0.856444 0.157279
H39   H     H_    0.029021 0.170476 0.901418 0.153191
O26   O     O_3   0.690925 0.798709 0.112783 -0.564998
C86   C     C_3   0.875464 0.812198 0.123751 -0.145464
H40   H     H_    0.957642 0.776288 0.127215 0.168370
H41   H     H_    0.883908 0.832854 0.157324 0.148200
H42   H     H_    0.941031 0.835536 0.095997 0.156387
O27   O     O_3   0.724717 0.812943 0.382860 -0.574951
C87   C     C_3   0.905075 0.821125 0.365937 -0.033181
H43   H     H_    0.904204 0.841840 0.332275 0.165464
H44   H     H_    0.969869 0.783023 0.359813 0.146853
H45   H     H_    0.992089 0.841039 0.392031 0.176388
O28   O     O_3   0.312470 0.200766 0.611629 -0.558361
C88   C     C_3   0.125676 0.189445 0.622038 -0.121801
H46   H     H_    0.047709 0.226216 0.623734 0.166120
H47   H     H_    0.112174 0.170393 0.656306 0.142145
H48   H     H_    0.059440 0.165549 0.594800 0.155971
O29   O     O_3   0.762115 0.380260 0.544573 -0.539784
C89   C     C_3   0.620346 0.417345 0.550663 -0.249587
H49   H     H_    0.587964 0.425022 0.587698 0.119180
H50   H     H_    0.491570 0.402523 0.534378 0.167750
H51   H     H_    0.656112 0.454001 0.532933 0.160267
O30   O     O_3   0.215800 0.632599 0.463120 -0.556288
C90   C     C_3   0.165454 0.677808 0.487369 -0.215192
H52   H     H_    0.012491 0.683834 0.489275 0.115412
H53   H     H_    0.233544 0.712199 0.472012 0.189917
H54   H     H_    0.216761 0.674324 0.523378 0.141987
O31   O     O_3   0.237438 0.619997 0.044581 -0.540905
C91   C     C_3   0.379626 0.583045 0.050864 -0.251212
H55   H     H_    0.412452 0.575578 0.087940 0.120664
H56   H     H_    0.508087 0.597886 0.034452 0.166711
H57   H     H_    0.344041 0.546272 0.033386 0.160576
O32   O     O_3   0.785762 0.367022 0.963236 -0.557193
C92   C     C_3   0.836442 0.321733 0.987457 -0.207394
H58   H     H_    0.989461 0.315817 0.989441 0.118854
H59   H     H_    0.768712 0.287359 0.972028 0.192111
H60   H     H_    0.785010 0.325013 0.023441 0.141958
O33   O     O_3   0.262627 0.120231 0.955634 -0.540758
C93   C     C_3   0.120184 0.083234 0.949608 -0.250924
H61   H     H_    0.155479 0.046582 0.967380 0.160758
H62   H     H_    0.087356 0.075521 0.912587 0.120134
H63   H     H_    0.991794 0.098170 0.965891 0.166441
O34   O     O_3   0.712901 0.867511 0.036761 -0.557078
C94   C     C_3   0.661605 0.822265 0.012621 -0.206905
H64   H     H_    0.508544 0.816250 0.010883 0.118774
H65   H     H_    0.729757 0.787892 0.027946 0.191965
H66   H     H_    0.712096 0.825691 0.976554 0.141826
O35   O     O_3   0.825560 0.921557 0.406230 -0.565971
C95   C     C_3   0.837856 0.956530 0.368414 -0.300473
H67   H     H_    0.724224 0.985625 0.368181 0.124818
H68   H     H_    0.838075 0.935531 0.334954 0.164598
H69   H     H_    0.966277 0.979409 0.370874 0.164432
O36   O     O_3   0.289769 0.131452 0.538018 -0.557356
C96   C     C_3   0.383744 0.163070 0.505970 -0.191448
H70   H     H_    0.509503 0.143583 0.492145 0.127408
H71   H     H_    0.421557 0.200989 0.521398 0.170220
H72   H     H_    0.289794 0.170728 0.476391 0.152168
O37   O     O_3   0.308230 0.401675 0.680225 -0.553479
C97   C     C_3   0.257381 0.441889 0.710415 -0.199602
H73   H     H_    0.130121 0.431556 0.730129 0.143192
H74   H     H_    0.237627 0.479180 0.691923 0.108233
H75   H     H_    0.371552 0.447824 0.735449 0.180804
O38   O     O_3   0.709698 0.596970 0.318966 -0.548404
C98   C     C_3   0.552324 0.567811 0.331923 -0.291537
H76   H     H_    0.498291 0.578705 0.366581 0.140545
H77   H     H_    0.583887 0.525887 0.330395 0.140089
H78   H     H_    0.439836 0.575464 0.306667 0.154715
O39   O     O_3   0.691759 0.598241 0.180132 -0.553481
C99   C     C_3   0.742912 0.558059 0.210444 -0.198754
H79   H     H_    0.870196 0.568444 0.230151 0.143096
H80   H     H_    0.762775 0.520771 0.192054 0.108530
H81   H     H_    0.628868 0.552092 0.235479 0.180787
O40   O     O_3   0.290589 0.403127 0.819015 -0.548556
C100  C     C_3   0.447829 0.432350 0.831946 -0.292133
H82   H     H_    0.502132 0.421422 0.866619 0.140819
H83   H     H_    0.415969 0.474260 0.830367 0.139876
H84   H     H_    0.560237 0.424803 0.806706 0.154346
O41   O     O_3   0.807368 0.098303 0.819942 -0.553117
C101  C     C_3   0.756941 0.057656 0.790115 -0.197867
H85   H     H_    0.629538 0.067578 0.770276 0.142979
H86   H     H_    0.737628 0.020538 0.808921 0.107836
H87   H     H_    0.871161 0.051583 0.765181 0.180989
O42   O     O_3   0.211725 0.903440 0.181668 -0.549895
C102  C     C_3   0.054049 0.932512 0.168901 -0.292678
H88   H     H_    0.999331 0.921684 0.134260 0.140816
H89   H     H_    0.085619 0.974452 0.170495 0.141381
H90   H     H_    0.941973 0.924691 0.194197 0.149737
O43   O     O_3   0.178540 0.898844 0.324293 -0.557737
C103  C     C_3   0.223988 0.938014 0.292392 -0.235237
H91   H     H_    0.347330 0.927086 0.271478 0.152970
H92   H     H_    0.247651 0.975787 0.309750 0.111224
H93   H     H_    0.105271 0.943178 0.268544 0.174788
O44   O     O_3   0.793748 0.097693 0.682494 -0.546862
C104  C     C_3   0.953396 0.069558 0.669675 -0.291231
H94   H     H_    0.006518 0.080661 0.634948 0.130869
H95   H     H_    0.925115 0.027439 0.671414 0.138864
H96   H     H_    0.065266 0.078056 0.694883 0.156449

loop_
_geom_bond_atom_site_label_1
_geom_bond_atom_site_label_2
_ccdc_geom_bond_type
O17   V3    S    
C82   H30   S    
O18   V4    S    
C93   H61   S    
C94   H65   S    
O12   V1    S    
O19   V1    S    
C40   C48   A    
O29   C89   S    
O43   C103  S    
C10   C18   A    
C83   H33   S    
C47   O43   S    
C19   C27   A    
O40   C100  S    
C44   C52   A    
C47   C55   A    
C84   H34   S    
C69   H21   S    
C82   H28   S    
C90   H53   S    
C39   C47   A    
C96   H70   S    
C44   O40   S    
O16   V3    S    
C64   C72   A    
O11   C3    A    
C88   H46   S    
O12   C4    A    
C66   H18   S    
O7    C6    A    
O8    V1    S    
C65   H17   S    
O28   C88   S    
C70   C78   A    
C42   C50   A    
C16   O28   S    
C98   H77   S    
C60   C75   A    
C28   C75   S    
C92   H59   S    
C86   H41   S    
C57   C74   A    
C10   O22   S    
C37   H5    S    
O1    V3    S    
C100  H84   S    
C25   C33   A    
O44   C104  S    
C38   H6    S    
C101  H87   S    
O2    V4    S    
C32   C79   S    
C41   C49   A    
C8    C50   S    
C61   C78   A    
C99   H79   S    
C28   C36   A    
C93   H63   S    
C11   O23   S    
O30   C90   S    
C29   C37   A    
C63   C80   A    
C34   H2    S    
C5    C51   S    
O11   V2    S    
C91   H56   S    
C95   H67   S    
C96   H72   S    
C85   H39   S    
C31   C39   A    
O36   C96   S    
C102  H88   S    
C32   C40   A    
C67   C75   A    
C11   C19   A    
C20   O32   S    
C91   H57   S    
O9    V1    S    
C94   H66   S    
C35   H3    S    
C46   C54   A    
O15   C7    A    
O34   C94   S    
C23   C31   A    
C21   C29   A    
O35   C95   S    
O16   C8    A    
O7    V2    S    
C82   H29   S    
C104  H94   S    
C42   O38   S    
C86   H42   S    
C27   C76   S    
C102  H89   S    
C23   O35   S    
C101  H85   S    
C26   C73   S    
C68   C76   A    
C17   C25   A    
O3    C2    A    
C84   H35   S    
C63   H15   S    
C22   O34   S    
C90   H54   S    
O5    V1    S    
C96   H71   S    
C100  H83   S    
C30   C77   S    
C14   C22   A    
O13   C5    A    
C26   C34   A    
C87   H45   S    
C59   C67   A    
O15   V4    S    
C57   H9    S    
C83   H31   S    
C58   C66   A    
C18   O30   S    
C98   H78   S    
C61   H13   S    
O39   C99   S    
C72   H24   S    
C60   H12   S    
C11   C51   A    
O38   C98   S    
C92   H60   S    
C30   C38   A    
C17   O29   S    
C36   C44   A    
C103  H93   S    
C2    C56   S    
C48   O44   S    
C64   C79   A    
C4    C54   S    
C6    C52   S    
C81   H26   S    
C98   H76   S    
O41   C101  S    
O10   V2    S    
O27   C87   S    
C43   O39   S    
C46   O42   S    
C19   O31   S    
C22   C30   A    
C103  H92   S    
O37   C97   S    
C65   C73   A    
C21   O33   S    
C101  H86   S    
C70   H22   S    
C67   H19   S    
O26   C86   S    
C18   C26   A    
O4    C1    A    
C99   H81   S    
C71   H23   S    
C69   C77   A    
O6    V2    S    
C14   C54   A    
C88   H48   S    
C37   C45   A    
C59   C76   A    
C104  H95   S    
C71   C79   A    
O14   C6    A    
C102  H90   S    
C85   H38   S    
C12   C20   A    
C81   H27   S    
C27   C35   A    
O42   C102  S    
C14   O26   S    
C13   C21   A    
C15   O27   S    
C35   C43   A    
C84   H36   S    
C91   H55   S    
C34   C42   A    
C15   C23   A    
O21   C81   S    
C62   C77   A    
C13   C53   A    
O33   C93   S    
C24   C32   A    
C24   O36   S    
C9    O21   S    
O1    C4    A    
C93   H62   S    
C7    C49   S    
C100  H82   S    
O2    C3    A    
C1    C55   S    
C15   C55   A    
C33   C41   A    
C38   C46   A    
C87   H44   S    
C12   C52   A    
C39   H7    S    
O24   C84   S    
C3    C53   S    
O8    C5    A    
C20   C28   A    
O23   C83   S    
O22   C82   S    
C83   H32   S    
O31   C91   S    
C13   O25   S    
C97   H75   S    
C10   C50   A    
C66   C74   A    
C45   O41   S    
C99   H80   S    
C9    C17   A    
C87   H43   S    
C68   H20   S    
C64   H16   S    
C81   H25   S    
C12   O24   S    
C48   C56   A    
C90   H52   S    
C63   C71   A    
O25   C85   S    
C43   C51   A    
C92   H58   S    
O5    C8    A    
C89   H50   S    
O10   C2    A    
C95   H69   S    
O6    C7    A    
O20   V2    S    
C103  H91   S    
C58   C73   A    
C62   C70   A    
C41   O37   S    
O9    C1    A    
C40   H8    S    
O3    V4    S    
O13   V3    S    
C72   C80   A    
O4    V3    S    
C29   C78   S    
C45   C53   A    
C94   H64   S    
C25   C74   S    
O14   V4    S    
C31   C80   S    
C36   H4    S    
C88   H47   S    
C97   H73   S    
C89   H49   S    
C104  H96   S    
C57   C65   A    
C86   H40   S    
C85   H37   S    
O32   C92   S    
C97   H74   S    
C59   H11   S    
C60   C68   A    
C9    C49   A    
C16   C24   A    
C58   H10   S    
C95   H68   S    
C16   C56   A    
C62   H14   S    
C61   C69   A    
C33   H1    S    
C89   H51   S    
