data_mof_unit_41479.cif
_audit_creation_date              2012-12-11T14:33:06-0500
_audit_creation_method            fapswitch 2.2
_symmetry_space_group_name_H-M    P1
_symmetry_Int_Tables_number       1
_space_group_crystal_system       triclinic
_cell_length_a                    7.023663
_cell_length_b                    14.004466
_cell_length_c                    17.889166
_cell_angle_alpha                 112.690318
_cell_angle_beta                  96.152893
_cell_angle_gamma                 90.083595
_cell_volume                      1612.32626182

loop_
_atom_site_label
_atom_site_type_symbol
_atom_type_description
_atom_site_fract_x
_atom_site_fract_y
_atom_site_fract_z
_atom_type_partial_charge
O1    O     O_R   0.484560 0.544530 0.414330 -0.500042
O2    O     O_R   0.197040 0.638810 0.585080 -0.539990
O3    O     O_R   0.026800 0.455470 0.585670 -0.562987
C1    C     C_R   0.375060 0.678871 0.609401 0.825272
O4    O     O_R   0.155000 0.556150 0.414940 -0.521443
O5    O     O_R   0.984450 0.372220 0.414320 -0.491526
C2    C     C_R   0.317847 0.565332 0.386797 0.835365
O6    O     O_R   0.526900 0.627780 0.585680 -0.548243
O7    O     O_3   0.339170 0.439750 0.499990 -0.373510
V1    V     V_3+5 0.064350 0.511180 0.500000 1.579799
O8    O     O_R   0.654880 0.361190 0.414920 -0.532744
C3    C     C_R   0.817313 0.324943 0.387091 0.828785
O9    O     O_R   0.696930 0.443850 0.585060 -0.548208
C4    C     C_R   0.874256 0.432102 0.611213 0.682983
V2    V     V_3+5 0.564340 0.488820 0.500000 1.560565
O10   O     O_3   0.839390 0.560250 0.500010 -0.369503
C5    C     C_R   0.041974 0.871834 0.828819 -0.145352
C6    C     C_R   0.910215 0.396766 0.679083 -0.128590
C7    C     C_R   0.937228 0.835194 0.687626 -0.131165
C8    C     C_R   0.991993 0.800248 0.749157 0.243883
C9    C     C_R   0.032856 0.979836 0.847116 0.248060
C10   C     C_R   0.985761 0.017648 0.781942 -0.013616
C11   C     C_R   0.943967 0.941017 0.701727 -0.135662
C12   C     C_R   0.982302 0.125176 0.790265 -0.079936
C13   C     C_R   0.968647 0.151303 0.718061 -0.134996
C14   C     C_R   0.931098 0.069021 0.638779 0.204598
C15   C     C_R   0.917750 0.967286 0.633434 0.622895
C16   C     C_R   0.988651 0.208749 0.867536 0.634180
C17   C     C_R   0.014944 0.309702 0.876558 -0.247159
C18   C     C_R   0.002058 0.336019 0.809630 -0.062725
C19   C     C_R   0.981754 0.259347 0.729751 0.056959
C20   C     C_R   0.989179 0.440290 0.822594 0.611767
C21   C     C_R   0.915316 0.467649 0.758748 -0.254126
C22   C     C_R   0.973716 0.297753 0.666684 -0.206003
H1    H     H_    0.025324 0.256295 0.609607 0.216776
H2    H     H_    0.865899 0.544417 0.771114 0.184504
H3    H     H_    0.018376 0.369284 0.937477 0.202567
H4    H     H_    0.896458 0.777553 0.626748 0.207448
C23   C     C_2   0.130353 0.035743 0.184628 -0.304951
C24   C     C_2   0.974183 0.070095 0.225603 0.204344
H5    H     H_    0.681202 0.174314 0.307482 0.111935
C25   C     C_2   0.815274 0.219637 0.322771 -0.427561
C26   C     C_2   0.973247 0.179124 0.286011 0.584827
H6    H     H_    0.257923 0.086320 0.198813 0.149782
C27   C     C_R   0.417054 0.786525 0.673992 -0.359426
C28   C     C_R   0.532686 0.470938 0.824708 -0.064015
C29   C     C_R   0.560240 0.894789 0.809109 0.510480
C30   C     C_R   0.530325 0.798200 0.746203 0.408096
C31   C     C_R   0.364761 0.877554 0.661504 0.481169
C32   C     C_R   0.436972 0.980131 0.718070 -0.078576
C33   C     C_R   0.519187 0.984939 0.795564 -0.180979
C34   C     C_R   0.432838 0.077705 0.704706 -0.011418
C35   C     C_R   0.480570 0.175656 0.775286 -0.025618
C36   C     C_R   0.532259 0.171685 0.851647 -0.130663
C37   C     C_R   0.562468 0.079378 0.860239 -0.040695
C38   C     C_R   0.392440 0.084678 0.626230 0.215214
C39   C     C_R   0.379578 0.183820 0.622801 0.437244
C40   C     C_R   0.428281 0.276697 0.691017 -0.025915
C41   C     C_R   0.480651 0.275638 0.768719 0.012567
C42   C     C_R   0.425757 0.371582 0.680960 -0.075087
C43   C     C_R   0.478527 0.465681 0.745906 -0.211286
C44   C     C_R   0.531276 0.375318 0.836106 -0.144499
H7    H     H_    0.619553 0.082857 0.920009 0.201579
H8    H     H_    0.571186 0.381903 0.897716 0.102062
H9    H     H_    0.484309 0.535169 0.733778 0.169007
H10   H     H_    0.561702 0.239806 0.906758 0.150175
H11   H     H_    0.384457 0.373479 0.621605 0.195172
H12   H     H_    0.337548 0.668764 0.194879 0.120885
C45   C     C_2   0.316967 0.603030 0.319072 -0.427067
C46   C     C_2   0.478871 0.612534 0.286102 0.643506
H13   H     H_    0.772537 0.637258 0.207096 0.183317
C47   C     C_2   0.635272 0.656920 0.183956 -0.280930
C48   C     C_2   0.474782 0.648677 0.217760 -0.232458
H14   H     H_    0.180485 0.622610 0.295149 0.112180
O11   O     O_R   0.421600 0.630430 0.917010 -0.521989
O12   O     O_R   0.793840 0.702190 0.087630 -0.544547
O13   O     O_R   0.964010 0.886170 0.088190 -0.513354
C49   C     C_R   0.631582 0.693449 0.115918 0.700780
O14   O     O_R   0.751460 0.619510 0.917500 -0.493115
O15   O     O_R   0.921330 0.802900 0.916840 -0.469677
C50   C     C_R   0.573389 0.578099 0.893235 0.750267
O16   O     O_R   0.464290 0.713700 0.088350 -0.543998
O17   O     O_3   0.609200 0.818520 0.002630 -0.329746
V3    V     V_3+5 0.884140 0.747190 0.002530 1.632446
O18   O     O_R   0.251150 0.814630 0.917340 -0.545762
C51   C     C_R   0.074763 0.832017 0.894883 0.768717
O19   O     O_R   0.293530 0.897310 0.087470 -0.561648
C52   C     C_R   0.131336 0.932403 0.116951 0.700134
V4    V     V_3+5 0.384070 0.769710 0.002370 1.544618
O20   O     O_3   0.109180 0.698190 0.002460 -0.337185
F1    F     F_    0.896348 0.889823 0.557554 -0.675724
F2    F     F_    0.036922 0.513655 0.897963 -0.690774
F3    F     F_    0.138627 0.238573 0.303744 -0.677165
N1    N     N_2   0.811654 0.001550 0.212114 -0.507350
H15   H     H_    0.681728 0.029348 0.199312 0.245542
C53   C     C_3   0.809517 0.953923 0.270819 -0.515295
H16   H     H_    0.682107 0.899729 0.254156 0.185398
H17   H     H_    0.802178 0.013746 0.332966 0.184457
H18   H     H_    0.940266 0.909358 0.270885 0.199903
F4    F     F_    0.331612 0.189725 0.548930 -0.720659
F5    F     F_    0.634080 0.900703 0.883906 -0.675893
F6    F     F_    0.598258 0.714414 0.758947 -0.698860
F7    F     F_    0.237424 0.862224 0.596035 -0.648513
N2    N     N_2   0.351712 0.996892 0.549618 -0.445740
H19   H     H_    0.285063 0.012307 0.501664 0.295200
C54   C     C_3   0.487447 0.916526 0.520399 -0.312343
H20   H     H_    0.408292 0.840985 0.485525 0.215298
H21   H     H_    0.579188 0.909747 0.571133 0.203537
H22   H     H_    0.572724 0.927274 0.476056 0.168487
F8    F     F_    0.651780 0.588285 0.314794 -0.662257
N3    N     N_2   0.983382 0.691848 0.731268 -0.489244
H23   H     H_    0.910766 0.645780 0.675671 0.280204
C55   C     C_3   0.155162 0.648689 0.755335 -0.511747
H24   H     H_    0.191930 0.579226 0.704759 0.187118
H25   H     H_    0.137836 0.630238 0.808883 0.221449
H26   H     H_    0.276548 0.703975 0.774874 0.219340
N4    N     N_2   0.048719 0.044871 0.931498 -0.437108
H27   H     H_    0.963067 0.020749 0.964888 0.274208
C56   C     C_3   0.238977 0.079884 0.973018 -0.471932
H28   H     H_    0.233128 0.114426 0.039976 0.190114
H29   H     H_    0.293396 0.141707 0.955787 0.214621
H30   H     H_    0.336645 0.014672 0.959234 0.192366
N5    N     N_2   0.934161 0.081970 0.562690 -0.503314
H31   H     H_    0.983476 0.020646 0.516433 0.320727
C57   C     C_3   0.774766 0.125610 0.529948 -0.500211
H32   H     H_    0.830355 0.171979 0.498035 0.182529
H33   H     H_    0.696960 0.176782 0.578683 0.225342
H34   H     H_    0.678391 0.066304 0.482521 0.203114
F9    F     F_    0.926453 0.200933 0.933701 -0.692044

loop_
_geom_bond_atom_site_label_1
_geom_bond_atom_site_label_2
_ccdc_geom_bond_type
C13   C19   A    
O19   C52   A    
C29   F5    S    
H5    C25   S    
C4    C6    S    
O2    C1    A    
C7    C8    A    
O15   V3    S    
O12   V3    S    
N2    C54   S    
C35   C41   A    
N5    H31   S    
C20   F2    S    
C35   C36   A    
C14   C15   A    
O16   V4    S    
C28   C44   A    
C16   C17   A    
O12   C49   A    
C22   H1    S    
N4    C56   S    
O5    C3    A    
C18   C19   A    
N5    C57   S    
C54   H20   S    
C9    N4    S    
V2    O10   S    
C28   C50   S    
C53   H18   S    
C21   H2    S    
C38   C39   A    
C16   F9    S    
O15   C51   A    
C46   F8    S    
C26   F3    S    
O8    V2    S    
C24   C26   S    
N3    H23   S    
C42   H11   S    
C37   H7    S    
C57   H34   S    
C44   H8    S    
C15   F1    S    
O1    V2    S    
C11   C15   A    
O7    V1    S    
C1    O6    A    
C55   H26   S    
O9    C4    A    
N1    H15   S    
V3    O20   S    
C23   C52   S    
N2    H19   S    
C1    C27   S    
C56   H29   S    
O17   V4    S    
C28   C43   A    
C3    C25   S    
C5    C51   S    
C29   C30   A    
C12   C13   A    
O13   C52   A    
C23   C24   D    
O14   C50   A    
O18   V4    S    
O11   C50   A    
C29   C33   A    
O13   V3    S    
H12   C48   S    
O18   C51   A    
C39   F4    S    
C5    C9    A    
C53   H17   S    
C42   C43   A    
C7    C11   A    
C2    C45   S    
C17   C18   A    
C7    H4    S    
C8    N3    S    
C49   O16   A    
C32   C34   A    
O17   V3    S    
C27   C31   A    
C56   H28   S    
C30   F6    S    
C53   H16   S    
C46   C48   S    
C32   C33   A    
C19   C22   A    
C45   H14   S    
N3    C55   S    
N1    C53   S    
C6    C22   A    
C38   N2    S    
O3    C4    A    
O6    V2    S    
O19   V4    S    
C57   H32   S    
C10   C12   A    
C40   C41   A    
C14   N5    S    
C17   H3    S    
O2    V1    S    
C34   C35   A    
O4    C2    A    
C55   H24   S    
C27   C30   A    
C36   C37   A    
C41   C44   A    
O1    C2    A    
C5    C8    A    
C12   C16   A    
C24   N1    S    
C47   C48   D    
C31   F7    S    
O8    C3    A    
C23   H6    S    
C36   H10   S    
C20   C21   A    
O9    V2    S    
C13   C14   A    
O4    V1    S    
O3    V1    S    
V1    O10   S    
N4    H27   S    
C18   C20   A    
C39   C40   A    
O14   V3    S    
C54   H21   S    
C56   H30   S    
C33   C37   A    
O7    V2    S    
C45   C46   D    
C6    C21   A    
O5    V1    S    
O11   V4    S    
C43   H9    S    
H13   C47   S    
C31   C32   A    
C25   C26   D    
C47   C49   S    
C57   H33   S    
C10   C11   A    
V4    O20   S    
C9    C10   A    
C40   C42   A    
C34   C38   A    
C55   H25   S    
C54   H22   S    
