data_mof_unit_6811.cif
_audit_creation_date              2012-12-10T18:20:37-0500
_audit_creation_method            fapswitch 2.2
_symmetry_space_group_name_H-M    P1
_symmetry_Int_Tables_number       1
_space_group_crystal_system       triclinic
_cell_length_a                    15.860304
_cell_length_b                    10.618396
_cell_length_c                    9.451135
_cell_angle_alpha                 89.534778
_cell_angle_beta                  89.869848
_cell_angle_gamma                 90.238025
_cell_volume                      1591.60455595

loop_
_atom_site_label
_atom_site_type_symbol
_atom_type_description
_atom_site_fract_x
_atom_site_fract_y
_atom_site_fract_z
_atom_type_partial_charge
C1    C     C_R   0.499901 0.259630 0.500596 0.843296
C2    C     C_R   0.500099 0.740369 0.499404 0.843296
C3    C     C_3   0.569884 0.957759 0.567626 -0.307428
C4    C     C_3   0.430115 0.042241 0.432374 -0.307431
C5    C     C_3   0.500535 0.877181 0.497971 -0.109821
C6    C     C_3   0.499464 0.122819 0.502029 -0.109822
C7    C     C_3   0.432068 0.957621 0.565361 0.585328
C8    C     C_3   0.567931 0.042379 0.434639 0.585329
C9    C     C_3   0.556019 0.575712 0.047918 0.293317
C10   C     C_3   0.443981 0.424288 0.952082 0.293317
C11   C     C_3   0.484036 0.611445 0.948114 -0.077517
C12   C     C_3   0.515964 0.388555 0.051886 -0.077518
C13   C     C_3   0.572615 0.465045 0.949157 -0.074964
C14   C     C_3   0.427385 0.534954 0.050843 -0.074964
C15   C     C_R   0.340069 0.499916 0.500139 0.825890
C16   C     C_R   0.659931 0.500084 0.499861 0.825890
C17   C     C_3   0.971419 0.409619 0.591900 -0.364288
C18   C     C_3   0.028580 0.590381 0.408100 -0.364286
C19   C     C_3   0.027805 0.388348 0.460049 0.557116
C20   C     C_3   0.972195 0.611652 0.539951 0.557116
C21   C     C_1   0.250449 0.500167 0.500441 -0.169149
C22   C     C_1   0.749550 0.499833 0.499559 -0.169149
C23   C     C_3   0.027292 0.524221 0.630924 0.092779
C24   C     C_3   0.972708 0.475779 0.369076 0.092780
C25   C     C_3   0.083313 0.501168 0.500115 0.008131
C26   C     C_3   0.916687 0.498832 0.499885 0.008132
C27   C     C_1   0.174947 0.500541 0.500380 0.027238
C28   C     C_1   0.825053 0.499459 0.499619 0.027238
C29   C     C_3   0.500095 0.039155 0.636465 -0.284738
C30   C     C_3   0.499904 0.960844 0.363535 -0.284740
Cu1   Cu    Cu3+1 0.500020 0.499990 0.643150 0.956033
Cu2   Cu    Cu3+1 0.499980 0.500010 0.356850 0.956033
H1    H     H_    0.946908 0.337220 0.666915 0.161537
H2    H     H_    0.053092 0.662781 0.333085 0.161537
H3    H     H_    0.627044 0.920226 0.620519 0.155841
H4    H     H_    0.372956 0.079774 0.379480 0.155840
H5    H     H_    0.499506 0.073492 0.747080 0.153829
H6    H     H_    0.500493 0.926508 0.252920 0.153829
H7    H     H_    0.471087 0.705459 0.900938 0.146950
H8    H     H_    0.528912 0.294541 0.099062 0.146949
H9    H     H_    0.633842 0.436289 0.902646 0.134714
H10   H     H_    0.366158 0.563711 0.097354 0.134714
N1    N     N_3   0.500060 0.499970 0.858290 -0.169601
N2    N     N_3   0.499940 0.500030 0.141710 -0.169601
O1    O     O_R   0.500040 0.316850 0.620870 -0.593550
O2    O     O_R   0.499960 0.683150 0.379130 -0.593550
O3    O     O_R   0.500000 0.316860 0.379090 -0.567145
O4    O     O_R   0.500000 0.683140 0.620910 -0.567144
O5    O     O_R   0.379090 0.499980 0.620870 -0.569226
O6    O     O_R   0.620910 0.500020 0.379130 -0.569226
O7    O     O_R   0.379060 0.499990 0.379090 -0.581635
O8    O     O_R   0.620940 0.500010 0.620910 -0.581635
O9    O     O_3   0.063583 0.274714 0.412482 -0.569899
C31   C     C_3   0.005269 0.175504 0.430582 -0.330359
H11   H     H_    0.942592 0.198302 0.384586 0.165125
H12   H     H_    0.998825 0.150191 0.544419 0.156284
H13   H     H_    0.029543 0.091497 0.374929 0.184199
O10   O     O_3   0.936417 0.725286 0.587516 -0.569900
C32   C     C_3   0.994733 0.824494 0.569427 -0.330361
H14   H     H_    0.001184 0.849809 0.455592 0.156284
H15   H     H_    0.057407 0.801693 0.615431 0.165125
H16   H     H_    0.970458 0.908500 0.625079 0.184200
C33   C     C_3   0.940889 0.448456 0.220697 -0.819144
H17   H     H_    0.995180 0.430642 0.149438 0.244608
H18   H     H_    0.898915 0.364658 0.222712 0.227258
H19   H     H_    0.904986 0.530648 0.180274 0.230233
C34   C     C_3   0.059111 0.551543 0.779303 -0.819151
H20   H     H_    0.004821 0.569364 0.850561 0.244610
H21   H     H_    0.095009 0.469347 0.819728 0.230235
H22   H     H_    0.101089 0.635336 0.777288 0.227256
O11   O     O_3   0.361153 0.902070 0.631583 -0.581520
C35   C     C_3   0.311344 0.996949 0.692336 -0.332168
H23   H     H_    0.291496 0.068337 0.612414 0.164532
H24   H     H_    0.344956 0.042838 0.781289 0.158726
H25   H     H_    0.253298 0.952874 0.736256 0.190410
O12   O     O_3   0.638847 0.097929 0.368418 -0.581520
C36   C     C_3   0.688652 0.003050 0.307653 -0.332158
H26   H     H_    0.655038 0.957175 0.218691 0.158723
H27   H     H_    0.708496 0.931648 0.387568 0.164527
H28   H     H_    0.746702 0.047124 0.263743 0.190412
C37   C     C_3   0.623036 0.666177 0.101781 -0.847510
H29   H     H_    0.652873 0.715402 0.010413 0.205866
H30   H     H_    0.594169 0.737469 0.171385 0.234102
H31   H     H_    0.672565 0.613790 0.159780 0.246322
C38   C     C_3   0.376964 0.333823 0.898219 -0.847510
H32   H     H_    0.347127 0.284598 0.989587 0.205866
H33   H     H_    0.327435 0.386209 0.840220 0.246322
H34   H     H_    0.405832 0.262531 0.828616 0.234102

loop_
_geom_bond_atom_site_label_1
_geom_bond_atom_site_label_2
_ccdc_geom_bond_type
C33   H18   S    
C10   C38   S    
C7    C29   S    
Cu1   O8    S    
C13   H9    S    
C37   H29   S    
O9    C31   S    
C2    O2    A    
C17   C23   S    
Cu1   N1    S    
C18   C24   S    
C17   C26   S    
C24   C26   S    
C4    C7    S    
C7    O11   S    
C11   C14   S    
C36   H28   S    
C8    O12   S    
C30   H6    S    
C23   C34   S    
C3    C29   S    
C9    C13   S    
C9    N2    S    
C11   N1    S    
C15   O7    A    
C36   H26   S    
C14   H10   S    
C19   O9    S    
C36   H27   S    
C21   C27   T    
C33   H19   S    
C32   H14   S    
C22   C28   T    
C18   C25   S    
C17   H1    S    
Cu1   O5    S    
C35   H25   S    
C37   H30   S    
C38   H33   S    
C31   H12   S    
C32   H15   S    
C1    C6    S    
O12   C36   S    
C35   H24   S    
C3    C8    S    
C10   C14   S    
C5    C7    S    
C1    O3    A    
C6    C8    S    
C2    O4    A    
O10   C32   S    
C38   H32   S    
C34   H20   S    
C34   H21   S    
C12   H8    S    
Cu2   O7    S    
C18   H2    S    
Cu1   Cu2   S    
C20   C23   S    
C3    H3    S    
C6    C29   S    
Cu2   N2    S    
C11   H7    S    
C9    C11   S    
Cu2   O6    S    
C10   C12   S    
C4    C6    S    
C24   C33   S    
Cu1   O4    S    
Cu2   O3    S    
C4    H4    S    
C2    C5    S    
C20   O10   S    
C13   N1    S    
C37   H31   S    
C14   N2    S    
C5    C30   S    
C38   H34   S    
C31   H11   S    
C32   H16   S    
C16   C22   S    
C10   N1    S    
Cu2   O2    S    
C16   O8    A    
C16   O6    A    
C35   H23   S    
C3    C5    S    
C25   C27   S    
C26   C28   S    
C34   H22   S    
C8    C30   S    
C19   C24   S    
O11   C35   S    
C12   N2    S    
C1    O1    A    
C20   C26   S    
C17   C19   S    
C18   C20   S    
C15   O5    A    
C19   C25   S    
C33   H17   S    
C15   C21   S    
C23   C25   S    
C12   C13   S    
Cu1   O1    S    
C29   H5    S    
C4    C30   S    
C9    C37   S    
C31   H13   S    
