data_mof_unit_13865.cif
_audit_creation_date              2012-12-11T14:21:03-0500
_audit_creation_method            fapswitch 2.2
_symmetry_space_group_name_H-M    P1
_symmetry_Int_Tables_number       1
_space_group_crystal_system       triclinic
_cell_length_a                    11.561627
_cell_length_b                    11.552911
_cell_length_c                    19.515135
_cell_angle_alpha                 90.884084
_cell_angle_beta                  89.454124
_cell_angle_gamma                 60.075237
_cell_volume                      2258.41537404

loop_
_atom_site_label
_atom_site_type_symbol
_atom_type_description
_atom_site_fract_x
_atom_site_fract_y
_atom_site_fract_z
_atom_type_partial_charge
C1    C     C_R   0.641116 0.119172 0.598447 0.546214
C2    C     C_1   0.639952 0.704327 0.667885 0.004861
C3    C     C_1   0.127495 0.197736 0.859357 -0.000122
C4    C     C_1   0.170169 0.171063 0.727515 -0.031455
C5    C     C_1   0.150113 0.181803 0.798811 -0.032613
C6    C     C_1   0.193530 0.162325 0.667067 0.004419
C7    C     C_1   0.715815 0.216487 0.852333 -0.000317
C8    C     C_1   0.677707 0.185039 0.722967 -0.029404
C9    C     C_1   0.697398 0.204190 0.792600 -0.030966
C10   C     C_1   0.661286 0.160901 0.664709 -0.000400
C11   C     C_R   0.682074 0.604947 0.206800 -0.007510
C12   C     C_R   0.611706 0.746634 0.598631 0.530985
C13   C     C_R   0.562430 0.636632 0.243338 -0.008189
C14   C     C_R   0.570468 0.614450 0.314114 0.048028
C15   C     C_R   0.784954 0.604953 0.314153 -0.159646
C16   C     C_R   0.793939 0.581157 0.243968 -0.164390
C17   C     C_R   0.434623 0.696941 0.213847 -0.109973
C18   C     C_R   0.324523 0.712283 0.250990 -0.145748
C19   C     C_R   0.340218 0.662393 0.316626 -0.090169
C20   C     C_R   0.464290 0.606582 0.348423 0.167586
C21   C     C_R   0.667783 0.633558 0.348641 0.002896
C22   C     C_R   0.069046 0.248644 0.204209 -0.030436
C23   C     C_R   0.239907 0.146014 0.597875 0.558688
C24   C     C_R   0.138975 0.309586 0.232606 0.034775
C25   C     C_R   0.219944 0.247362 0.288153 0.000127
C26   C     C_R   0.104983 0.120597 0.307784 0.026744
C27   C     C_R   0.051565 0.156265 0.242379 -0.165266
C28   C     C_R   0.137629 0.425901 0.206935 -0.088926
C29   C     C_R   0.222222 0.467867 0.231453 -0.142971
C30   C     C_R   0.315832 0.391755 0.278303 -0.113262
C31   C     C_R   0.322817 0.275797 0.301476 -0.071812
C32   C     C_R   0.193280 0.163603 0.330484 -0.024055
C33   C     C_R   0.662564 0.186056 0.190958 -0.000895
C34   C     C_R   0.646279 0.106857 0.400637 0.529220
C35   C     C_R   0.709859 0.052983 0.210263 0.026582
C36   C     C_R   0.737194 0.022613 0.280192 0.023187
C37   C     C_R   0.622694 0.259213 0.309214 -0.186653
C38   C     C_R   0.620190 0.287725 0.240605 -0.168960
C39   C     C_R   0.745157 0.947979 0.160740 0.174265
C40   C     C_R   0.842101 0.818036 0.178133 -0.080856
C41   C     C_R   0.889638 0.791793 0.244413 -0.158378
C42   C     C_R   0.831903 0.889438 0.295849 -0.052990
C43   C     C_R   0.675671 0.129042 0.330176 0.009526
C44   C     C_R   0.082657 0.230464 0.928806 0.552219
C45   C     C_R   0.622284 0.726155 0.407681 0.546156
C46   C     C_R   0.684506 0.603965 0.929501 0.535469
C47   C     C_R   0.741143 0.230257 0.922995 0.557736
C48   C     C_R   0.025125 0.270688 0.133296 0.540488
C49   C     C_R   0.701663 0.564129 0.134011 0.526954
C50   C     C_R   0.705597 0.211199 0.125688 0.547937
C51   C     C_R   0.249313 0.137968 0.399616 0.573415
C52   C     C_1   0.671889 0.645682 0.860111 -0.000862
C53   C     C_1   0.654225 0.683656 0.728282 -0.029900
C54   C     C_1   0.664299 0.666066 0.799624 -0.031065
Cr1   Cr    Cr6+3 0.404720 0.198220 0.499960 1.015749
Cr2   Cr    Cr6+3 0.698290 0.897110 0.500380 1.016127
Cr3   Cr    Cr6+3 0.396970 0.904720 0.499610 1.063155
Cr4   Cr    Cr6+3 0.926180 0.151990 0.028120 1.033240
Cr5   Cr    Cr6+3 0.921330 0.451820 0.027470 0.987519
Cr6   Cr    Cr6+3 0.626260 0.446870 0.028710 1.015564
H1    H     H_    0.865281 0.608341 0.340477 0.130303
H2    H     H_    0.216852 0.557678 0.212449 0.111836
H3    H     H_    0.380453 0.424915 0.297505 0.126169
H4    H     H_    0.405364 0.211131 0.332080 0.158061
H5    H     H_    0.579723 0.339263 0.346188 0.143929
H6    H     H_    0.586537 0.389525 0.226315 0.142537
H7    H     H_    0.883369 0.736703 0.140852 0.119186
H8    H     H_    0.968808 0.693463 0.257009 0.104447
H9    H     H_    0.874321 0.859077 0.345628 0.181087
H10   H     H_    0.415471 0.741335 0.163988 0.161021
H11   H     H_    0.884930 0.553334 0.217690 0.120176
H12   H     H_    0.226935 0.760779 0.228164 0.151071
H13   H     H_    0.254392 0.669393 0.343409 0.132899
H14   H     H_    0.069821 0.492719 0.170033 0.137507
H15   H     H_    0.991125 0.116412 0.222132 0.162752
O1    O     O_R   0.267740 0.231960 0.575440 -0.502882
O2    O     O_R   0.685970 0.784660 0.430010 -0.514550
O3    O     O_R   0.502530 0.767000 0.423990 -0.478163
O4    O     O_R   0.288330 0.026350 0.429250 -0.456369
O5    O     O_3   0.499990 0.000020 0.499980 -0.261959
O6    O     O_R   0.821500 0.119340 0.952830 -0.492151
O7    O     O_R   0.037130 0.162530 0.957360 -0.503638
O8    O     O_R   0.056440 0.344740 0.951340 -0.495407
O9    O     O_R   0.797900 0.560360 0.957470 -0.499362
O10   O     O_R   0.596130 0.579390 0.952730 -0.504457
O11   O     O_R   0.639060 0.321160 0.958670 -0.484871
O12   O     O_R   0.527280 0.186640 0.570530 -0.496095
O13   O     O_R   0.821240 0.124200 0.104370 -0.492826
O14   O     O_R   0.036890 0.167040 0.097840 -0.488812
O15   O     O_R   0.056180 0.349610 0.102880 -0.526816
O16   O     O_R   0.797660 0.564870 0.097950 -0.539525
O17   O     O_R   0.595880 0.584250 0.104270 -0.528034
O18   O     O_R   0.638830 0.325670 0.099150 -0.511315
O19   O     O_3   0.824590 0.350230 0.028100 -0.301111
O20   O     O_R   0.728090 0.003450 0.576380 -0.501305
O21   O     O_R   0.682970 0.789190 0.570490 -0.495524
O22   O     O_R   0.499290 0.771880 0.575530 -0.512091
O23   O     O_R   0.285330 0.030870 0.569730 -0.484477
O24   O     O_R   0.270980 0.227080 0.423890 -0.529729
O25   O     O_R   0.530280 0.182120 0.430050 -0.525601
O26   O     O_R   0.731330 0.998570 0.424830 -0.527499
N1    N     N_2   0.685783 0.976578 0.094306 -0.498920
H16   H     H_    0.595882 0.064696 0.092475 0.248399
C55   C     C_3   0.685239 0.870435 0.054184 -0.261035
H17   H     H_    0.629375 0.911705 0.006349 0.142563
H18   H     H_    0.788339 0.793404 0.038732 0.168051
H19   H     H_    0.634886 0.826035 0.083581 0.166433
N2    N     N_2   0.472665 0.560537 0.417285 -0.506707
H20   H     H_    0.388135 0.567296 0.439516 0.241660
C56   C     C_3   0.598437 0.468825 0.448618 -0.285500
H21   H     H_    0.616771 0.520251 0.492067 0.166736
H22   H     H_    0.684068 0.429059 0.411836 0.141906
H23   H     H_    0.592874 0.382565 0.469094 0.147333
C57   C     C_2   0.063881 0.042240 0.350785 0.580000
O27   O     O_2   0.052159 0.951933 0.324699 -0.567700
O28   O     O_R   0.032960 0.074861 0.420375 -0.689667
H24   H     H_    0.003986 0.015341 0.443662 0.336392

loop_
_geom_bond_atom_site_label_1
_geom_bond_atom_site_label_2
_ccdc_geom_bond_type
C25   C31   A    
Cr2   O20   S    
C22   C48   S    
C26   C32   A    
C41   C42   A    
Cr3   O4    S    
C36   C42   A    
C35   C36   A    
C23   O1    A    
C44   O8    A    
C2    C12   S    
C55   H18   S    
C57   O27   D    
C53   C54   S    
O28   H24   S    
C26   C27   A    
C29   C30   A    
C14   C21   A    
C28   C29   A    
Cr5   O8    S    
Cr2   O26   S    
C44   O7    A    
Cr4   O7    S    
C51   O4    A    
C30   C31   A    
Cr3   O23   S    
C15   C16   A    
C46   C52   S    
N2    H20   S    
Cr2   O21   S    
C18   C19   A    
C1    O12   A    
C56   H21   S    
C38   H6    S    
C8    C9    S    
C40   H7    S    
C37   H5    S    
Cr1   O25   S    
C34   O25   A    
C45   O3    A    
Cr5   O19   S    
C50   O13   A    
C46   O10   A    
Cr6   O18   S    
C25   C32   A    
C28   H14   S    
C17   H10   S    
C48   O15   A    
C30   H3    S    
C18   H12   S    
Cr3   O5    S    
C16   H11   S    
C49   O16   A    
C27   H15   S    
Cr3   O3    S    
C55   H17   S    
C52   C54   T    
C41   H8    S    
C21   C45   S    
Cr6   O17   S    
C51   O24   A    
C3    C44   S    
C34   O26   A    
C34   C43   S    
C47   O11   A    
C14   C20   A    
C19   H13   S    
Cr5   O9    S    
C4    C6    T    
Cr4   O6    S    
C39   C40   A    
Cr6   O11   S    
C33   C50   S    
C42   H9    S    
Cr2   O2    S    
Cr5   O15   S    
C7    C47   S    
C37   C43   A    
C35   C39   A    
C26   C57   S    
C32   C51   S    
C37   C38   A    
C11   C49   S    
C11   C16   A    
C1    O20   A    
Cr3   O22   S    
C17   C18   A    
C15   H1    S    
Cr5   O16   S    
C24   C25   A    
N1    C55   S    
C56   H23   S    
C12   O22   A    
C46   O9    A    
Cr1   O1    S    
C40   C41   A    
C22   C27   A    
C22   C24   A    
C49   O17   A    
C39   N1    S    
C7    C9    T    
C29   H2    S    
C31   H4    S    
C1    C10   S    
C24   C28   A    
C4    C5    S    
C3    C5    T    
C2    C53   T    
Cr4   O13   S    
C57   O28   S    
Cr6   O10   S    
C50   O18   A    
C33   C38   A    
Cr2   O5    S    
C13   C17   A    
C48   O14   A    
C19   C20   A    
Cr4   O19   S    
Cr1   O5    S    
C11   C13   A    
C6    C23   S    
C33   C35   A    
N2    C56   S    
C47   O6    A    
Cr1   O12   S    
N1    H16   S    
Cr4   O14   S    
C56   H22   S    
C15   C21   A    
C23   O23   A    
C8    C10   T    
Cr1   O24   S    
C12   O21   A    
C36   C43   A    
C45   O2    A    
C13   C14   A    
C55   H19   S    
C20   N2    S    
Cr6   O19   S    
