data_mof_unit_39164.cif
_audit_creation_date              2013-03-05T15:40:31-0500
_audit_creation_method            fapswitch 2.2
_symmetry_space_group_name_H-M    P1
_symmetry_Int_Tables_number       1
_space_group_crystal_system       triclinic
_cell_length_a                    12.103977
_cell_length_b                    12.296268
_cell_length_c                    23.055933
_cell_angle_alpha                 90.765586
_cell_angle_beta                  90.41843
_cell_angle_gamma                 90.49797
_cell_volume                      3430.97048097

loop_
_atom_site_label
_atom_site_type_symbol
_atom_site_description
_atom_site_fract_x
_atom_site_fract_y
_atom_site_fract_z
_atom_type_partial_charge
O1    O     O_R   0.621380 0.090460 0.561410 -0.601350
O2    O     O_R   0.378620 0.909540 0.438590 -0.597791
O3    O     O_R   0.617150 0.909540 0.438590 -0.646191
O4    O     O_R   0.382850 0.090460 0.561410 -0.645208
O5    O     O_R   0.619720 0.093230 0.440890 -0.604170
O6    O     O_R   0.380280 0.906770 0.559110 -0.601619
O7    O     O_R   0.618800 0.906770 0.559110 -0.580957
O8    O     O_R   0.381200 0.093230 0.440890 -0.577284
C1    C     C_R   0.655655 0.998097 0.580083 0.955662
C2    C     C_R   0.344237 0.001921 0.419895 0.944453
C3    C     C_R   0.653799 0.001676 0.420334 0.875277
C4    C     C_R   0.346113 0.998315 0.579622 0.876522
Zn1   Zn    Zn3+2 0.501730 0.123520 0.501540 1.018621
Zn2   Zn    Zn3+2 0.498270 0.876480 0.498460 1.017365
C5    C     C_R   0.154892 0.100698 0.302808 -0.286642
C6    C     C_R   0.836529 0.902738 0.701608 -0.279940
C7    C     C_R   0.243699 0.097150 0.341009 0.267958
C8    C     C_R   0.748870 0.906735 0.662565 0.261181
C9    C     C_R   0.835054 0.909087 0.299933 -0.203334
C10   C     C_R   0.170364 0.087383 0.703158 -0.201273
C11   C     C_R   0.755815 0.908148 0.342755 -0.191963
C12   C     C_R   0.249496 0.088787 0.660185 -0.188970
H1    H     H_    0.712391 0.832763 0.351438 0.158013
H2    H     H_    0.297728 0.162300 0.653994 0.153426
C13   C     C_R   0.091070 0.126065 0.176968 -0.283825
C14   C     C_R   0.912183 0.881089 0.828187 -0.279740
C15   C     C_R   0.095316 0.210763 0.138060 0.404617
C16   C     C_R   0.908337 0.798514 0.868538 0.412096
C17   C     C_R   0.900420 0.889218 0.172910 -0.365275
C18   C     C_R   0.097520 0.105919 0.829582 -0.362592
C19   C     C_R   0.895462 0.807352 0.130883 0.477225
C20   C     C_R   0.102912 0.187921 0.871910 0.483308
C21   C     C_R   0.094818 0.851555 0.192367 0.501661
C22   C     C_R   0.907624 0.153818 0.805109 0.501934
C23   C     C_R   0.087826 0.767254 0.151476 -0.399618
C24   C     C_R   0.915617 0.238469 0.845675 -0.410974
H3    H     H_    0.159551 0.717244 0.144108 0.180662
H4    H     H_    0.846147 0.292358 0.851091 0.179782
C25   C     C_R   0.897091 0.157444 0.193191 -0.299225
C26   C     C_R   0.096178 0.827663 0.799822 -0.285079
C27   C     C_R   0.897105 0.236952 0.151067 0.425362
C28   C     C_R   0.092883 0.742844 0.838661 0.414330
C29   C     C_R   0.103324 0.916459 0.327017 -0.153911
C30   C     C_R   0.899883 0.080045 0.670986 -0.154602
C31   C     C_R   0.189222 0.911899 0.366909 0.432744
C32   C     C_R   0.814737 0.084828 0.630656 0.429437
C33   C     C_R   0.871914 0.100160 0.320918 -0.165115
C34   C     C_R   0.121450 0.901787 0.675421 -0.182509
C35   C     C_R   0.792454 0.099158 0.363402 -0.154722
C36   C     C_R   0.201027 0.903100 0.633003 -0.156384
H5    H     H_    0.778367 0.172961 0.388348 0.169498
H6    H     H_    0.210553 0.831767 0.605462 0.165583
C37   C     C_3   0.993921 0.006402 0.248494 0.022946
C38   C     C_3   0.005462 0.992625 0.751753 0.020895
C39   C     C_R   0.088534 0.008197 0.292345 0.100203
C40   C     C_R   0.909668 0.991419 0.708463 0.101467
C41   C     C_R   0.259220 0.003291 0.374847 -0.276804
C42   C     C_R   0.739839 0.996875 0.625443 -0.275002
C43   C     C_R   0.893350 0.005772 0.287730 0.100918
C44   C     C_R   0.106001 0.992941 0.712148 0.107067
C45   C     C_R   0.734982 0.002912 0.374802 -0.010930
C46   C     C_R   0.264534 0.996878 0.624957 -0.001408
C47   C     C_R   0.994660 0.103089 0.207933 0.005912
C48   C     C_R   0.004039 0.895081 0.792063 -0.001529
C49   C     C_R   0.997548 0.266578 0.124440 -0.246927
C50   C     C_R   0.000362 0.730373 0.874672 -0.251354
C51   C     C_R   0.996792 0.908991 0.206459 -0.016490
C52   C     C_R   0.003438 0.090767 0.793645 -0.018705
C53   C     C_R   0.990684 0.746984 0.119813 -0.173946
C54   C     C_R   0.010053 0.253379 0.880053 -0.169589
H7    H     H_    0.140361 0.176112 0.280693 0.176948
H8    H     H_    0.844944 0.830058 0.726896 0.177075
H9    H     H_    0.853639 0.832564 0.278723 0.137710
H10   H     H_    0.156778 0.162435 0.726813 0.134685
H11   H     H_    0.164759 0.079181 0.183997 0.187870
H12   H     H_    0.843388 0.936092 0.825448 0.178199
H13   H     H_    0.828268 0.939334 0.179052 0.166344
H14   H     H_    0.166481 0.051094 0.825155 0.173227
H15   H     H_    0.818756 0.136101 0.212337 0.166338
H16   H     H_    0.172810 0.840415 0.777126 0.184459
H17   H     H_    0.049012 0.846529 0.321961 0.135237
H18   H     H_    0.958298 0.147098 0.673841 0.135988
H19   H     H_    0.919248 0.174224 0.314748 0.152193
H20   H     H_    0.069560 0.829986 0.679040 0.144176
O9    O     O_R   0.087590 0.627480 0.058790 -0.651627
O10   O     O_R   0.912410 0.372520 0.941210 -0.660209
O11   O     O_R   0.905660 0.383870 0.059980 -0.588573
O12   O     O_R   0.094340 0.616130 0.940020 -0.581546
O13   O     O_R   0.092570 0.390420 0.063230 -0.585908
O14   O     O_R   0.907430 0.609580 0.936770 -0.599136
O15   O     O_R   0.900680 0.620930 0.055550 -0.573720
O16   O     O_R   0.099320 0.379070 0.944450 -0.580840
C55   C     C_R   0.992393 0.661909 0.075531 0.939609
C56   C     C_R   0.007732 0.338104 0.924487 0.929444
C57   C     C_R   0.998895 0.351492 0.080822 0.936235
C58   C     C_R   0.000773 0.647795 0.919075 0.935886
Zn3   Zn    Zn3+2 0.125690 0.504390 0.002180 0.979103
Zn4   Zn    Zn3+2 0.874310 0.495610 0.997820 0.955305
N1    N     N_R   0.320169 0.187222 0.342446 0.221357
O17   O     O_R   0.283716 0.286401 0.340836 -0.419263
O18   O     O_R   0.424839 0.170118 0.334014 -0.404400
N2    N     N_R   0.667045 0.821332 0.663378 0.221008
O19   O     O_R   0.697004 0.720874 0.670126 -0.419002
O20   O     O_R   0.562982 0.845515 0.668067 -0.404412
O21   O     O_3   0.194272 0.874393 0.220911 -0.640333
C59   C     C_3   0.284616 0.881490 0.182507 0.057515
H21   H     H_    0.261864 0.921984 0.141156 0.159252
H22   H     H_    0.317294 0.799038 0.172997 0.149613
C60   C     C_3   0.376856 0.947546 0.211673 -0.801067
H23   H     H_    0.401727 0.908980 0.253014 0.251826
H24   H     H_    0.449597 0.951408 0.182666 0.206436
H25   H     H_    0.348650 0.031556 0.221083 0.260202
O22   O     O_3   0.808843 0.134851 0.775226 -0.636625
C61   C     C_3   0.716366 0.132218 0.812438 0.051627
H26   H     H_    0.684991 0.215967 0.819577 0.150535
H27   H     H_    0.735862 0.094839 0.855088 0.151163
C62   C     C_3   0.624525 0.065336 0.783542 -0.797472
H28   H     H_    0.651379 0.979908 0.777428 0.259533
H29   H     H_    0.549786 0.066286 0.811197 0.205530
H30   H     H_    0.603481 0.099780 0.740589 0.255095
O23   O     O_3   0.192973 0.231552 0.109316 -0.573815
C63   C     C_3   0.267223 0.284797 0.148028 0.150631
H31   H     H_    0.293969 0.229278 0.183114 0.143879
H32   H     H_    0.229367 0.358847 0.167735 0.138032
C64   C     C_3   0.369040 0.319994 0.114845 -0.808435
H33   H     H_    0.345555 0.376888 0.079904 0.253678
H34   H     H_    0.428368 0.361562 0.144865 0.208090
H35   H     H_    0.409100 0.247586 0.095227 0.252429
O24   O     O_3   0.820555 0.792421 0.906629 -0.571609
C65   C     C_3   0.724554 0.757716 0.876172 0.138900
H36   H     H_    0.740544 0.683660 0.849131 0.137301
H37   H     H_    0.693070 0.823496 0.848011 0.133556
C66   C     C_3   0.635111 0.729673 0.919622 -0.771277
H38   H     H_    0.616096 0.802116 0.946936 0.255113
H39   H     H_    0.558824 0.702904 0.896280 0.204888
H40   H     H_    0.663401 0.662895 0.947941 0.251592
O25   O     O_3   0.801573 0.793436 0.096746 -0.575257
C67   C     C_3   0.714298 0.753199 0.131002 0.123437
H41   H     H_    0.682793 0.817916 0.160572 0.123471
H42   H     H_    0.740839 0.682045 0.157050 0.136164
C68   C     C_3   0.619780 0.716145 0.091430 -0.797352
H43   H     H_    0.647833 0.649655 0.062106 0.255943
H44   H     H_    0.549988 0.685700 0.117876 0.192186
H45   H     H_    0.590684 0.785237 0.064962 0.250671
O26   O     O_3   0.192398 0.197472 0.909806 -0.572341
C69   C     C_3   0.292714 0.206921 0.879125 0.114626
H46   H     H_    0.284172 0.258527 0.839943 0.117540
H47   H     H_    0.322565 0.125050 0.865991 0.141755
C70   C     C_3   0.379685 0.259210 0.918764 -0.796876
H48   H     H_    0.392264 0.208685 0.957809 0.261779
H49   H     H_    0.459246 0.266377 0.895360 0.188797
H50   H     H_    0.352825 0.341639 0.932618 0.252193
O27   O     O_3   0.799145 0.288382 0.137270 -0.586141
C71   C     C_3   0.727495 0.214560 0.107592 0.143844
H51   H     H_    0.675782 0.170654 0.139510 0.140120
H52   H     H_    0.772382 0.153705 0.080346 0.137038
C72   C     C_3   0.651957 0.277639 0.067418 -0.814922
H53   H     H_    0.700961 0.316557 0.032740 0.262212
H54   H     H_    0.590516 0.221478 0.046815 0.194693
H55   H     H_    0.608121 0.341742 0.092286 0.254487
O28   O     O_3   0.183667 0.675974 0.843355 -0.579237
C73   C     C_3   0.169614 0.587767 0.804065 0.118033
H56   H     H_    0.173725 0.616484 0.758502 0.140407
H57   H     H_    0.089288 0.544755 0.810842 0.108232
C74   C     C_3   0.261637 0.506383 0.813601 -0.799861
H58   H     H_    0.258258 0.475324 0.858571 0.262447
H59   H     H_    0.251719 0.436911 0.782675 0.188694
H60   H     H_    0.343261 0.545798 0.806560 0.258787
O29   O     O_3   0.199487 0.820788 0.401105 -0.596416
C75   C     C_3   0.242500 0.734717 0.367116 0.136819
H61   H     H_    0.319461 0.760148 0.344444 0.144201
H62   H     H_    0.180552 0.705454 0.334453 0.141701
C76   C     C_3   0.270748 0.640396 0.406395 -0.768964
H63   H     H_    0.195448 0.611860 0.429076 0.255920
H64   H     H_    0.304350 0.572062 0.380155 0.223274
H65   H     H_    0.333702 0.666600 0.439102 0.251939
O30   O     O_3   0.810261 0.171559 0.593041 -0.598110
C77   C     C_3   0.774392 0.264902 0.623742 0.143127
H66   H     H_    0.839589 0.294880 0.654405 0.137265
H67   H     H_    0.697128 0.247954 0.648273 0.146567
C78   C     C_3   0.750306 0.354625 0.580809 -0.780842
H68   H     H_    0.684385 0.327678 0.549934 0.255424
H69   H     H_    0.722290 0.428596 0.604415 0.219325
H70   H     H_    0.826117 0.374854 0.556185 0.254476

loop_
_geom_bond_atom_site_label_1
_geom_bond_atom_site_label_2
_geom_bond_distance
_ccdc_geom_bond_type
O12   C58   1.293113 A    
C72   H53   1.110089 S    
C17   H13   1.082285 S    
O29   C75   1.413734 S    
C65   H37   1.112118 S    
C6    H8    1.078709 S    
O26   C69   1.414387 S    
C15   O23   1.382930 S    
C28   O28   1.382617 S    
C70   H48   1.110919 S    
C33   C35   1.377854 A    
C38   C44   1.526746 S    
C78   H68   1.110843 S    
C22   O22   1.391922 S    
C53   C55   1.452333 S    
C31   C41   1.410646 A    
C74   H58   1.110617 S    
C59   H22   1.111177 S    
C8    N2    1.437625 S    
C9    C11   1.381561 A    
C1    C42   1.455120 S    
C30   H18   1.082490 S    
C62   H29   1.110628 S    
C69   H47   1.111515 S    
O6    C4    1.287832 A    
C76   H65   1.110826 S    
O15   C55   1.294235 A    
C75   H61   1.115893 S    
C69   C70   1.521595 S    
O7    C1    1.291341 A    
C16   O24   1.385582 S    
C13   C47   1.401112 A    
O4    Zn1   2.043275 S    
C14   C48   1.404783 A    
C59   C60   1.522194 S    
O10   C56   1.292120 A    
C17   C51   1.412435 A    
O9    C55   1.290935 A    
C8    C42   1.413888 A    
O7    Zn2   2.041885 S    
C24   C54   1.395582 A    
C35   H5    1.083340 S    
O11   C57   1.291500 A    
C66   H40   1.110741 S    
C14   H12   1.079328 S    
C26   H16   1.079583 S    
C33   H19   1.083265 S    
C19   O25   1.385703 S    
O5    Zn1   2.039163 S    
O12   Zn3   2.034579 S    
O9    Zn3   2.043322 S    
O11   Zn4   2.034578 S    
C34   C36   1.377817 A    
O2    Zn2   2.040606 S    
C72   H54   1.110299 S    
C70   H49   1.110714 S    
C32   C42   1.408484 A    
C32   O30   1.384715 S    
C74   H59   1.110509 S    
C37   C51   1.531458 S    
C30   C32   1.385183 A    
O16   Zn3   2.044142 S    
C34   C44   1.410287 A    
C27   O27   1.385615 S    
C63   H31   1.113557 S    
C37   C39   1.521914 S    
C37   C43   1.521953 S    
C38   C40   1.524205 S    
C35   C45   1.396520 A    
C69   H46   1.115599 S    
C62   H28   1.109783 S    
C61   C62   1.521380 S    
C77   H66   1.112779 S    
C9    H9    1.080795 S    
C2    C41   1.457085 S    
O1    C1    1.290720 A    
C71   C72   1.521406 S    
C25   C27   1.387227 A    
C78   H69   1.110572 S    
C22   C52   1.424974 A    
C20   C54   1.400418 A    
C20   O26   1.389813 S    
C9    C43   1.409863 A    
C76   H63   1.110675 S    
C25   H15   1.080571 S    
C34   H20   1.083518 S    
O13   Zn3   2.038889 S    
C61   H27   1.115547 S    
C13   H11   1.078637 S    
C68   H44   1.110707 S    
C5    C39   1.403918 A    
O13   C57   1.296798 A    
O1    Zn1   2.040608 S    
C16   C50   1.407060 A    
C12   C46   1.396877 A    
C6    C40   1.405103 A    
C15   C49   1.408714 A    
C64   H34   1.110355 S    
O6    Zn2   2.039163 S    
C73   C74   1.520558 S    
C4    C46   1.443302 S    
C30   C40   1.405052 A    
C36   H6    1.083434 S    
N1    O17   1.301406 A    
C49   C57   1.459386 S    
C17   C19   1.388474 A    
O16   C56   1.292740 A    
C71   H51   1.111873 S    
C10   H10   1.080119 S    
N2    O20   1.301642 A    
C7    N1    1.437087 S    
O23   C63   1.412590 S    
O22   C61   1.415706 S    
C76   H64   1.110589 S    
C67   H42   1.116014 S    
C70   H50   1.110701 S    
C29   C39   1.403223 A    
N1    O18   1.301635 A    
C10   C12   1.383234 A    
C74   H60   1.110614 S    
C11   H1    1.083325 S    
O5    C3    1.287950 A    
C66   H38   1.110739 S    
C36   C46   1.395477 A    
C12   H2    1.083421 S    
C60   H25   1.109931 S    
C65   C66   1.520887 S    
O4    C4    1.290153 A    
C63   H32   1.115669 S    
C24   H4    1.082000 S    
O2    C2    1.291524 A    
C5    H7    1.079348 S    
C21   C51   1.423448 A    
C50   C58   1.451530 S    
C73   H56   1.114049 S    
O25   C67   1.413521 S    
C78   H70   1.110682 S    
C23   H3    1.081361 S    
C11   C45   1.397198 A    
C5    C7    1.386043 A    
C54   C56   1.451926 S    
C71   H52   1.117695 S    
O8    C2    1.291761 A    
C28   C50   1.407465 A    
O14   Zn4   2.038888 S    
C3    C45   1.443278 S    
C67   C68   1.520999 S    
C31   O29   1.384463 S    
C77   H67   1.115974 S    
O14   C58   1.290879 A    
C68   H45   1.110895 S    
O3    Zn2   2.043276 S    
C72   H55   1.109591 S    
C25   C47   1.403877 A    
O21   C59   1.414901 S    
C14   C16   1.386976 A    
C26   C48   1.407166 A    
C21   O21   1.392373 S    
C63   C64   1.518144 S    
C60   H24   1.110598 S    
C65   H36   1.115808 S    
O24   C65   1.413118 S    
C29   C31   1.385098 A    
C73   H57   1.115764 S    
O28   C73   1.412147 S    
C68   H43   1.110966 S    
C18   C20   1.394626 A    
C37   C47   1.522401 S    
C64   H33   1.111031 S    
C38   C48   1.527216 S    
C64   H35   1.110115 S    
C29   H17   1.082372 S    
C26   C28   1.384197 A    
C21   C23   1.393447 A    
C62   H30   1.111032 S    
C22   C24   1.392298 A    
C61   H26   1.111300 S    
O15   Zn4   2.044141 S    
C27   C49   1.413100 A    
N2    O19   1.301404 A    
O10   Zn4   2.043323 S    
C77   C78   1.520712 S    
O3    C3    1.290039 A    
C67   H41   1.112673 S    
C33   C43   1.408641 A    
C18   H14   1.082032 S    
O8    Zn1   2.041883 S    
C19   C53   1.399525 A    
C38   C52   1.536064 S    
C23   C53   1.398246 A    
C6    C8    1.388046 A    
O30   C77   1.413630 S    
C59   H21   1.115318 S    
C66   H39   1.110549 S    
C75   H62   1.112961 S    
C10   C44   1.411221 A    
C60   H23   1.111038 S    
C75   C76   1.520721 S    
C18   C52   1.412963 A    
C7    C41   1.414792 A    
O27   C71   1.416100 S    
C13   C15   1.384455 A    
