data_mof_unit_11847.cif
_audit_creation_date              2012-12-11T17:08:25-0500
_audit_creation_method            fapswitch 2.2
_symmetry_space_group_name_H-M    P1
_symmetry_Int_Tables_number       1
_space_group_crystal_system       triclinic
_cell_length_a                    6.960376
_cell_length_b                    14.533821
_cell_length_c                    16.071259
_cell_angle_alpha                 90.013333
_cell_angle_beta                  89.986284
_cell_angle_gamma                 90.007745
_cell_volume                      1625.78225822

loop_
_atom_site_label
_atom_site_type_symbol
_atom_type_description
_atom_site_fract_x
_atom_site_fract_y
_atom_site_fract_z
_atom_type_partial_charge
O1    O     O_R   0.505700 0.583890 0.413310 -0.536970
O2    O     O_R   0.175960 0.594920 0.586080 -0.522052
O3    O     O_R   0.005660 0.416110 0.586690 -0.536818
C1    C     C_R   0.344763 0.617562 0.614260 0.717105
O4    O     O_R   0.175980 0.594920 0.413930 -0.547012
O5    O     O_R   0.005680 0.416110 0.413310 -0.540161
C2    C     C_R   0.344870 0.617358 0.385532 0.679343
O6    O     O_R   0.505680 0.583890 0.586690 -0.540182
O7    O     O_3   0.339200 0.441330 0.500000 -0.372173
V1    V     V_3+5 0.064350 0.510880 0.500000 1.407085
O8    O     O_R   0.675960 0.405080 0.413920 -0.539823
C3    C     C_R   0.845031 0.383126 0.385100 0.692430
O9    O     O_R   0.675940 0.405080 0.586070 -0.543299
C4    C     C_R   0.844720 0.383020 0.614785 0.695738
V2    V     V_3+5 0.564340 0.489120 0.500000 1.391552
O10   O     O_3   0.839360 0.558670 0.500000 -0.367007
C5    C     C_R   0.007448 0.316943 0.741160 0.100365
C6    C     C_R   0.852740 0.317446 0.685373 -0.113530
C7    C     C_R   0.701095 0.255651 0.701042 -0.178995
H1    H     H_    0.578523 0.253521 0.659876 0.133832
C8    C     C_R   0.712311 0.191439 0.766549 -0.178651
H2    H     H_    0.597392 0.142069 0.774060 0.126858
C9    C     C_R   0.875851 0.186838 0.818166 -0.111541
C10   C     C_R   0.019012 0.253121 0.805738 0.102393
C11   C     C_3   0.229466 0.240377 0.793436 -0.410170
C12   C     C_3   0.217014 0.310307 0.723419 -0.397818
H3    H     H_    0.264721 0.169836 0.771519 0.164882
H4    H     H_    0.314337 0.265031 0.847615 0.175472
H5    H     H_    0.245895 0.280558 0.660926 0.170464
H6    H     H_    0.293914 0.375587 0.737265 0.168647
C13   C     C_R   0.728265 0.182158 0.241973 0.099711
C14   C     C_R   0.882074 0.182211 0.185669 -0.112116
C15   C     C_R   0.033464 0.244221 0.201135 -0.178342
H7    H     H_    0.155751 0.246568 0.159780 0.132724
C16   C     C_R   0.022238 0.308443 0.266651 -0.178239
H8    H     H_    0.136789 0.358058 0.273925 0.127144
C17   C     C_R   0.859002 0.312800 0.318504 -0.111153
C18   C     C_R   0.716736 0.245949 0.306575 0.102156
C19   C     C_3   0.505672 0.257513 0.295319 -0.408144
C20   C     C_3   0.518111 0.187593 0.225224 -0.397957
H9    H     H_    0.468199 0.327838 0.273597 0.166492
H10   H     H_    0.422745 0.232408 0.349902 0.175341
H11   H     H_    0.487030 0.217111 0.162868 0.170844
H12   H     H_    0.443153 0.121900 0.239454 0.168398
C21   C     C_R   0.492624 0.678289 0.745377 0.025227
C22   C     C_R   0.352707 0.685555 0.683027 -0.206187
C23   C     C_R   0.214474 0.756996 0.691084 0.415613
C24   C     C_R   0.223603 0.818685 0.758964 -0.251519
H13   H     H_    0.117062 0.872784 0.763436 0.133321
C25   C     C_R   0.376112 0.815229 0.816701 -0.164378
C26   C     C_R   0.505577 0.742049 0.809669 0.091570
C27   C     C_3   0.719834 0.741643 0.807641 -0.376178
C28   C     C_3   0.705649 0.671206 0.737908 -0.353175
H14   H     H_    0.782894 0.713151 0.865702 0.163590
H15   H     H_    0.780593 0.808640 0.787106 0.180887
C29   C     C_R   0.508174 0.684022 0.259643 0.101857
C30   C     C_R   0.353236 0.683387 0.315327 -0.109192
C31   C     C_R   0.201829 0.745346 0.299850 -0.183424
H16   H     H_    0.079338 0.747509 0.341087 0.127171
C32   C     C_R   0.212973 0.809468 0.234257 -0.175733
H17   H     H_    0.098126 0.858867 0.226776 0.127144
C33   C     C_R   0.376207 0.813801 0.182380 -0.110904
C34   C     C_R   0.519651 0.747728 0.194967 0.101557
C35   C     C_3   0.729918 0.760961 0.207522 -0.409267
C36   C     C_3   0.717541 0.691220 0.277673 -0.398461
H18   H     H_    0.764490 0.831631 0.229323 0.165853
H19   H     H_    0.815432 0.736332 0.153510 0.176024
H20   H     H_    0.745676 0.721230 0.340137 0.169058
H21   H     H_    0.795219 0.626093 0.264091 0.168137
O11   O     O_R   0.229000 0.916070 0.913330 -0.538795
O12   O     O_R   0.558770 0.905070 0.086080 -0.539114
O13   O     O_R   0.729000 0.083900 0.086690 -0.536699
C37   C     C_R   0.389775 0.883491 0.115226 0.696385
O14   O     O_R   0.558720 0.905070 0.913930 -0.540469
O15   O     O_R   0.728960 0.083900 0.913310 -0.540081
C38   C     C_R   0.389774 0.883684 0.884731 0.718113
O16   O     O_R   0.229050 0.916070 0.086710 -0.539184
O17   O     O_3   0.395460 0.058650 0.000020 -0.371571
V3    V     V_3+5 0.670340 0.989120 0.000000 1.393153
O18   O     O_R   0.058670 0.094960 0.913900 -0.540746
C39   C     C_R   0.889641 0.116744 0.884962 0.692303
O19   O     O_R   0.058720 0.094960 0.086050 -0.543545
C40   C     C_R   0.889943 0.116866 0.114890 0.694144
V4    V     V_3+5 0.170330 0.010930 0.999970 1.387624
O20   O     O_3   0.895340 0.941350 0.999980 -0.368002
O21   O     O_3   0.069402 0.768178 0.633130 -0.581549
C41   C     C_3   0.142221 0.809805 0.559900 0.097664
H22   H     H_    0.070666 0.776414 0.505967 0.137961
H23   H     H_    0.300054 0.800365 0.550523 0.079312
C42   C     C_3   0.093174 0.912408 0.559233 -0.325403
H24   H     H_    0.935754 0.921348 0.567702 0.198994
H25   H     H_    0.168006 0.947228 0.611576 0.184950
C43   C     C_3   0.153759 0.957404 0.477496 -0.841162
H26   H     H_    0.311309 0.950480 0.468340 0.232128
H27   H     H_    0.116721 0.031704 0.478916 0.231020
H28   H     H_    0.077817 0.924816 0.424294 0.227082
H29   H     H_    0.759509 0.602013 0.755903 0.157441
H30   H     H_    0.757708 0.696817 0.676923 0.222636

loop_
_geom_bond_atom_site_label_1
_geom_bond_atom_site_label_2
_ccdc_geom_bond_type
C41   H22   S    
C43   H26   S    
C4    C6    S    
C7    H1    S    
O18   V4    S    
O12   V3    S    
C30   C31   A    
C19   H9    S    
C1    C22   S    
C21   C22   A    
C29   C30   A    
C11   H4    S    
C17   C18   A    
O14   C38   A    
C5    C12   S    
C7    C8    A    
O13   V3    S    
O5    C3    A    
C18   C19   S    
C21   C26   A    
C31   C32   A    
V2    O10   S    
C13   C20   S    
C32   C33   A    
C6    C7    A    
C3    C17   S    
O8    V2    S    
C20   H11   S    
C16   H8    S    
C9    C10   A    
C33   C37   S    
O1    V2    S    
O11   V4    S    
O7    V1    S    
C27   H15   S    
C1    O6    A    
C24   C25   A    
C21   C28   S    
C43   H27   S    
O1    C2    A    
O9    C4    A    
C27   H14   S    
C5    C6    A    
C19   H10   S    
C8    C9    A    
C5    C10   A    
C26   C27   S    
C35   H19   S    
C10   C11   S    
C19   C20   S    
O12   C37   A    
O17   V3    S    
O15   C39   A    
O6    V2    S    
O16   V4    S    
C25   C26   A    
C31   H16   S    
C32   H17   S    
C35   H18   S    
O2    C1    A    
C23   O21   S    
C33   C34   A    
C25   C38   S    
C42   H25   S    
C23   C24   A    
C36   H20   S    
C15   H7    S    
C29   C34   A    
V4    O20   S    
O3    C4    A    
C24   H13   S    
C12   H6    S    
C43   H28   S    
O19   V4    S    
O14   V3    S    
O9    V2    S    
O11   C38   A    
O2    V1    S    
V3    O20   S    
C27   C28   S    
C42   C43   S    
O4    C2    A    
C14   C40   S    
C22   C23   A    
C9    C39   S    
C16   C17   A    
O21   C41   S    
C13   C14   A    
O18   C39   A    
O5    V1    S    
O8    C3    A    
C28   H30   S    
C11   H3    S    
C13   C18   A    
C28   H29   S    
C14   C15   A    
C41   H23   S    
C11   C12   S    
O4    V1    S    
O3    V1    S    
V1    O10   S    
C35   C36   S    
C42   H24   S    
C36   H21   S    
C15   C16   A    
O7    V2    S    
O13   C40   A    
C34   C35   S    
O17   V4    S    
C20   H12   S    
C12   H5    S    
O19   C40   A    
C41   C42   S    
C37   O16   A    
C8    H2    S    
O15   V3    S    
C2    C30   S    
C29   C36   S    
