data_mof_unit_9716.cif
_audit_creation_date              2012-12-11T16:52:26-0500
_audit_creation_method            fapswitch 2.2
_symmetry_space_group_name_H-M    P1
_symmetry_Int_Tables_number       1
_space_group_crystal_system       triclinic
_cell_length_a                    7.211757
_cell_length_b                    25.983289
_cell_length_c                    28.681093
_cell_angle_alpha                 90.0
_cell_angle_beta                  90.000155
_cell_angle_gamma                 89.999955
_cell_volume                      5374.41138227

loop_
_atom_site_label
_atom_site_type_symbol
_atom_type_description
_atom_site_fract_x
_atom_site_fract_y
_atom_site_fract_z
_atom_type_partial_charge
O1    O     O_R   0.601030 0.796770 0.202460 -0.533444
O2    O     O_R   0.398970 0.203230 0.797540 -0.536956
O3    O     O_R   0.398970 0.203230 0.702460 -0.533444
O4    O     O_R   0.601030 0.796770 0.297540 -0.536956
O5    O     O_R   0.101030 0.703230 0.297540 -0.533445
O6    O     O_R   0.898970 0.296770 0.702460 -0.536956
O7    O     O_R   0.898970 0.296770 0.797540 -0.533443
O8    O     O_R   0.101030 0.703230 0.202460 -0.536955
O9    O     O_R   0.271290 0.802910 0.297210 -0.538375
O10   O     O_R   0.728710 0.197090 0.702790 -0.533090
O11   O     O_R   0.728710 0.197090 0.797210 -0.538376
O12   O     O_R   0.271290 0.802910 0.202790 -0.533090
O13   O     O_R   0.771290 0.697090 0.202790 -0.538376
O14   O     O_R   0.228710 0.302910 0.797210 -0.533090
O15   O     O_R   0.228710 0.302910 0.702790 -0.538376
O16   O     O_R   0.771290 0.697090 0.297210 -0.533090
C1    C     C_R   0.439964 0.815360 0.312502 0.704300
C2    C     C_R   0.560106 0.184941 0.687532 0.698690
C3    C     C_R   0.560036 0.184640 0.812502 0.704302
C4    C     C_R   0.439893 0.815059 0.187532 0.698689
C5    C     C_R   0.939964 0.684640 0.187498 0.704304
C6    C     C_R   0.060106 0.315059 0.812468 0.698686
C7    C     C_R   0.060035 0.315360 0.687498 0.704302
C8    C     C_R   0.939894 0.684941 0.312468 0.698688
O17   O     O_3   0.434520 0.717290 0.250000 -0.373633
O18   O     O_3   0.565480 0.282710 0.750000 -0.373632
O19   O     O_3   0.934520 0.782710 0.250000 -0.373632
O20   O     O_3   0.065480 0.217290 0.750000 -0.373633
V1    V     V_3+5 0.159680 0.756060 0.250000 1.445809
V2    V     V_3+5 0.840320 0.243940 0.750000 1.445801
V3    V     V_3+5 0.659680 0.743940 0.250000 1.445806
V4    V     V_3+5 0.340320 0.256060 0.750000 1.445801
C9    C     C_R   0.900213 0.389047 0.647825 -0.218361
C10   C     C_R   0.990638 0.664368 0.396273 -0.207674
C11   C     C_R   0.099784 0.610952 0.147826 -0.218355
C12   C     C_R   0.009398 0.335631 0.896275 -0.207678
C13   C     C_R   0.400214 0.110953 0.852175 -0.218360
C14   C     C_R   0.490626 0.835632 0.103727 -0.207669
C15   C     C_R   0.599776 0.889051 0.352172 -0.218358
C16   C     C_R   0.509328 0.164368 0.603728 -0.207671
H1    H     H_    0.794897 0.388339 0.674761 0.160860
H2    H     H_    0.010136 0.705063 0.402952 0.138360
H3    H     H_    0.205096 0.611659 0.174763 0.160858
H4    H     H_    0.989927 0.294935 0.902955 0.138358
H5    H     H_    0.294898 0.111661 0.825239 0.160861
H6    H     H_    0.510116 0.794937 0.097047 0.138365
H7    H     H_    0.705082 0.888345 0.325233 0.160857
H8    H     H_    0.489805 0.205063 0.597051 0.138361
C17   C     C_R   0.887868 0.425896 0.612203 0.469701
C18   C     C_R   0.002442 0.629245 0.433302 0.455264
C19   C     C_R   0.112131 0.574103 0.112204 0.469709
C20   C     C_R   0.997591 0.370754 0.933303 0.455253
C21   C     C_R   0.387870 0.074104 0.887796 0.469700
C22   C     C_R   0.502432 0.870756 0.066698 0.455261
C23   C     C_R   0.612121 0.925900 0.387793 0.469705
C24   C     C_R   0.497526 0.129245 0.566699 0.455263
C25   C     C_R   0.022883 0.427321 0.576431 0.048861
C26   C     C_R   0.979350 0.575983 0.424995 0.073124
C27   C     C_R   0.977120 0.572679 0.076431 0.048913
C28   C     C_R   0.020651 0.424017 0.924995 0.073131
C29   C     C_R   0.522886 0.072679 0.923569 0.048853
C30   C     C_R   0.479350 0.924018 0.075006 0.073123
C31   C     C_R   0.477118 0.927321 0.423568 0.048875
C32   C     C_R   0.520649 0.075984 0.575004 0.073121
C33   C     C_R   0.173269 0.392877 0.578871 -0.178008
C34   C     C_R   0.936188 0.559504 0.379522 -0.183782
C35   C     C_R   0.826736 0.607124 0.078870 -0.177974
C36   C     C_R   0.063778 0.440498 0.879520 -0.183787
C37   C     C_R   0.673272 0.107123 0.921129 -0.178012
C38   C     C_R   0.436199 0.940497 0.120479 -0.183777
C39   C     C_R   0.326742 0.892874 0.421131 -0.178002
C40   C     C_R   0.563845 0.059506 0.620475 -0.183784
H9    H     H_    0.279570 0.393283 0.552183 0.161834
H10   H     H_    0.915849 0.518974 0.372312 0.140876
H11   H     H_    0.720437 0.606718 0.052180 0.161819
H12   H     H_    0.084089 0.481029 0.872309 0.140867
H13   H     H_    0.779573 0.106717 0.947817 0.161835
H14   H     H_    0.415870 0.981027 0.127690 0.140878
H15   H     H_    0.220450 0.893277 0.447822 0.161814
H16   H     H_    0.584210 0.018976 0.627684 0.140874
C41   C     C_R   0.187467 0.357213 0.615322 -0.126092
C42   C     C_R   0.920615 0.594968 0.342909 -0.150661
C43   C     C_R   0.812536 0.642787 0.115320 -0.126087
C44   C     C_R   0.079348 0.405033 0.842907 -0.150661
C45   C     C_R   0.687469 0.142786 0.884678 -0.126093
C46   C     C_R   0.420625 0.905033 0.157092 -0.150660
C47   C     C_R   0.312544 0.857210 0.384681 -0.126094
C48   C     C_R   0.579420 0.094969 0.657089 -0.150658
H17   H     H_    0.304218 0.330994 0.615951 0.136858
H18   H     H_    0.888501 0.581347 0.308139 0.128100
H19   H     H_    0.695787 0.669008 0.115949 0.136860
H20   H     H_    0.111430 0.418655 0.808135 0.128094
H21   H     H_    0.804220 0.169006 0.884049 0.136857
H22   H     H_    0.388522 0.918653 0.191862 0.128100
H23   H     H_    0.195801 0.830987 0.384054 0.136853
H24   H     H_    0.611560 0.081349 0.691857 0.128102
C49   C     C_R   0.049624 0.354409 0.649792 -0.113519
C50   C     C_R   0.949853 0.647513 0.351003 -0.088008
C51   C     C_R   0.950375 0.645590 0.149792 -0.113522
C52   C     C_R   0.050148 0.352487 0.851003 -0.088002
C53   C     C_R   0.549626 0.145590 0.850208 -0.113520
C54   C     C_R   0.449851 0.852487 0.148997 -0.088010
C55   C     C_R   0.450375 0.854410 0.350207 -0.113515
C56   C     C_R   0.550147 0.147514 0.648997 -0.088012
C57   C     C_R   0.165806 0.495805 0.526366 -0.311209
C58   C     C_R   0.844717 0.504704 0.472592 -0.334371
C59   C     C_R   0.834197 0.504194 0.026366 -0.311244
C60   C     C_R   0.155286 0.495295 0.972593 -0.334424
C61   C     C_R   0.665809 0.004195 0.973635 -0.311200
C62   C     C_R   0.344718 0.995297 0.027408 -0.334356
C63   C     C_R   0.334188 0.995802 0.473636 -0.311214
C64   C     C_R   0.655292 0.004709 0.527403 -0.334394
H25   H     H_    0.290490 0.490868 0.546826 0.187616
H26   H     H_    0.719215 0.507818 0.452002 0.175831
H27   H     H_    0.709512 0.509131 0.046826 0.187615
H28   H     H_    0.280790 0.492180 0.952003 0.175809
H29   H     H_    0.790493 0.009132 0.953175 0.187616
H30   H     H_    0.219216 0.992184 0.047998 0.175834
H31   H     H_    0.209498 0.990862 0.453179 0.187621
H32   H     H_    0.780800 0.007826 0.547991 0.175831
C65   C     C_R   0.159685 0.532486 0.489720 0.519788
C66   C     C_R   0.853098 0.467887 0.508298 0.524158
C67   C     C_R   0.840318 0.467513 0.989720 0.519777
C68   C     C_R   0.146905 0.532113 0.008299 0.524165
C69   C     C_R   0.659686 0.967515 0.010282 0.519786
C70   C     C_R   0.353099 0.032114 0.991702 0.524156
C71   C     C_R   0.340309 0.032483 0.510282 0.519778
C72   C     C_R   0.646912 0.967892 0.491698 0.524157
C73   C     C_R   0.995347 0.537287 0.463224 -0.011043
C74   C     C_R   0.011950 0.464677 0.536892 -0.020684
C75   C     C_R   0.004655 0.462713 0.963224 -0.011012
C76   C     C_R   0.988053 0.535322 0.036893 -0.020655
C77   C     C_R   0.495348 0.962715 0.036776 -0.011049
C78   C     C_R   0.511952 0.035323 0.963108 -0.020691
C79   C     C_R   0.504653 0.037287 0.536774 -0.011032
C80   C     C_R   0.488052 0.964678 0.463106 -0.020678
Cl1   Cl    Cl    0.707887 0.471636 0.615695 -0.626428
Cl2   Cl    Cl    0.034888 0.653888 0.489910 -0.644291
Cl3   Cl    Cl    0.292105 0.528362 0.115698 -0.626416
Cl4   Cl    Cl    0.965173 0.346112 0.989912 -0.644293
Cl5   Cl    Cl    0.207890 0.028364 0.884305 -0.626422
Cl6   Cl    Cl    0.534869 0.846114 0.010090 -0.644288
Cl7   Cl    Cl    0.792084 0.971645 0.384297 -0.626404
Cl8   Cl    Cl    0.465049 0.153889 0.510093 -0.644300
O21   O     O_3   0.314040 0.560940 0.475773 -0.555024
C81   C     C_3   0.426160 0.576184 0.513697 -0.103389
H33   H     H_    0.520064 0.544440 0.524335 0.165902
H34   H     H_    0.342530 0.590086 0.543822 0.173971
H35   H     H_    0.515130 0.608616 0.502192 0.187371
O22   O     O_3   0.702143 0.436282 0.516068 -0.537174
C82   C     C_3   0.717289 0.393053 0.486667 -0.223424
H36   H     H_    0.711768 0.404388 0.449264 0.137989
H37   H     H_    0.597915 0.367198 0.493483 0.174839
H38   H     H_    0.846211 0.370895 0.494008 0.138545
O23   O     O_3   0.685964 0.439058 0.975774 -0.555030
C83   C     C_3   0.573853 0.423812 0.013699 -0.103396
H39   H     H_    0.479943 0.455555 0.024337 0.165903
H40   H     H_    0.657489 0.409911 0.043822 0.173971
H41   H     H_    0.484888 0.391378 0.002194 0.187375
O24   O     O_3   0.297854 0.563719 0.016073 -0.537170
C84   C     C_3   0.282875 0.606909 0.986619 -0.223453
H42   H     H_    0.288622 0.595522 0.949231 0.137989
H43   H     H_    0.402201 0.632775 0.993452 0.174839
H44   H     H_    0.153902 0.629074 0.993887 0.138547
O25   O     O_3   0.814041 0.939061 0.024228 -0.555024
C85   C     C_3   0.926157 0.923814 0.986304 -0.103389
H45   H     H_    0.020064 0.955558 0.975666 0.165901
H46   H     H_    0.842524 0.909913 0.956180 0.173970
H47   H     H_    0.015125 0.891382 0.997809 0.187372
O26   O     O_3   0.202143 0.063719 0.983932 -0.537174
C86   C     C_3   0.217313 0.106954 0.013324 -0.223419
H48   H     H_    0.211809 0.095627 0.050730 0.137993
H49   H     H_    0.097942 0.132810 0.006507 0.174838
H50   H     H_    0.346237 0.129109 0.005976 0.138539
O27   O     O_3   0.185946 0.060932 0.524231 -0.555027
C87   C     C_3   0.073834 0.076182 0.486307 -0.103395
H51   H     H_    0.979932 0.044439 0.475665 0.165903
H52   H     H_    0.157469 0.090088 0.456185 0.173985
H53   H     H_    0.984862 0.108613 0.497815 0.187367
O28   O     O_3   0.797874 0.936290 0.483924 -0.537174
C88   C     C_3   0.782795 0.893070 0.513337 -0.223434
H54   H     H_    0.788384 0.904418 0.550737 0.137992
H55   H     H_    0.902161 0.867215 0.506514 0.174831
H56   H     H_    0.653863 0.870907 0.506018 0.138545

loop_
_geom_bond_atom_site_label_1
_geom_bond_atom_site_label_2
_ccdc_geom_bond_type
O17   V3    S    
C58   C73   A    
C13   C53   A    
C86   H48   S    
C48   H24   S    
O18   V4    S    
O25   C85   S    
C17   Cl1   S    
O12   V1    S    
O19   V1    S    
C37   H13   S    
C10   H2    S    
C59   C67   A    
C62   H30   S    
C39   H15   S    
O21   C81   S    
C61   H29   S    
O15   V4    S    
C7    C49   S    
C67   O23   S    
C88   H54   S    
O16   V3    S    
C35   C43   A    
C86   H49   S    
O11   C3    A    
C84   H43   S    
C58   H26   S    
C8    C50   S    
O8    V1    S    
C66   O22   S    
C30   C77   S    
C63   H31   S    
C83   H39   S    
C71   C79   A    
C72   C80   A    
C5    C51   S    
C63   C80   A    
C38   H14   S    
O26   C86   S    
C26   C73   S    
C9    C17   A    
C34   H10   S    
O1    V3    S    
C33   H9    S    
C30   C38   A    
O3    C2    A    
O2    V4    S    
C82   H38   S    
C60   C75   A    
C20   C28   A    
C27   C35   A    
C21   C29   A    
C26   C34   A    
C87   H53   S    
C15   C23   A    
O11   V2    S    
C16   C24   A    
C23   C31   A    
C82   H36   S    
C24   C32   A    
C72   O28   S    
C21   Cl5   S    
C11   H3    S    
C81   H34   S    
C12   C20   A    
O9    V1    S    
C41   H17   S    
O15   C7    A    
C61   C78   A    
C32   C79   S    
O16   C8    A    
O7    V2    S    
C43   C51   A    
C82   H37   S    
C85   H46   S    
C42   C50   A    
O12   C4    A    
C45   H21   S    
C60   C68   A    
C11   C51   A    
C28   C75   S    
C40   C48   A    
C68   C76   A    
C29   C78   S    
C84   H42   S    
C19   C27   A    
O5    V1    S    
C88   H55   S    
C46   H22   S    
C86   H50   S    
C27   C76   S    
C10   C18   A    
C6    C52   S    
O13   C5    A    
C44   C52   A    
C25   C74   S    
C23   Cl7   S    
C65   C73   A    
C64   H32   S    
C64   C72   A    
C22   C30   A    
C47   H23   S    
C36   C44   A    
C69   O25   S    
C13   C21   A    
C70   O26   S    
C34   C42   A    
C81   H35   S    
O10   V2    S    
C33   C41   A    
O27   C87   S    
C14   C22   A    
C20   Cl4   S    
C69   C77   A    
C58   C66   A    
O8    C5    A    
C18   C26   A    
C57   C65   A    
C12   C52   A    
C2    C56   S    
O9    C1    A    
C59   H27   S    
C62   C70   A    
C39   C47   A    
O4    C1    A    
C22   Cl6   S    
C61   C69   A    
C87   H51   S    
O6    V2    S    
C31   C39   A    
C11   C19   A    
C85   H45   S    
C47   C55   A    
C12   H4    S    
C35   H11   S    
C64   C79   A    
C13   H5    S    
C38   C46   A    
C84   H44   S    
C37   C45   A    
O28   C88   S    
C15   H7    S    
C81   H33   S    
C88   H56   S    
C57   H25   S    
C16   H8    S    
O1    C4    A    
C67   C75   A    
O2    C3    A    
O13   V3    S    
C83   H41   S    
C70   C78   A    
O14   V4    S    
C59   C76   A    
C71   O27   S    
C17   C25   A    
C18   Cl2   S    
C15   C55   A    
C57   C74   A    
C36   H12   S    
O7    C6    A    
C43   H19   S    
C42   H18   S    
C29   C37   A    
O24   C84   S    
O14   C6    A    
O20   V2    S    
C16   C56   A    
C1    C55   S    
C9    H1    S    
C14   C54   A    
C31   C80   S    
C63   C71   A    
C3    C53   S    
C60   H28   S    
O5    C8    A    
C41   C49   A    
O10   C2    A    
O6    C7    A    
C68   O24   S    
C83   H40   S    
C10   C50   A    
C65   O21   S    
C32   C40   A    
O3    V4    S    
C14   H6    S    
O4    V3    S    
C45   C53   A    
C24   Cl8   S    
C4    C54   S    
C28   C36   A    
C85   H47   S    
C40   H16   S    
O23   C83   S    
O22   C82   S    
C62   C77   A    
C44   H20   S    
C9    C49   A    
C48   C56   A    
C66   C74   A    
C19   Cl3   S    
C87   H52   S    
C25   C33   A    
C46   C54   A    
