data_mof_unit_20193.cif
_audit_creation_date              2012-10-26T20:51:08-0400
_audit_creation_method            fapswitch 2.2
_symmetry_space_group_name_H-M    P1
_symmetry_Int_Tables_number       1
_space_group_crystal_system       triclinic
_cell_length_a                    12.97131
_cell_length_b                    10.824988
_cell_length_c                    9.541369
_cell_angle_alpha                 90.107262
_cell_angle_beta                  96.005814
_cell_angle_gamma                 90.087359
_cell_volume                      1332.38660531

loop_
_atom_site_label
_atom_site_type_symbol
_atom_type_description
_atom_site_fract_x
_atom_site_fract_y
_atom_site_fract_z
_atom_type_partial_charge
C1    C     C_R   0.498148 0.262377 0.499609 0.572786
C2    C     C_R   0.483316 0.935436 0.369161 -0.143000
C3    C     C_R   0.488192 0.870690 0.497428 0.021665
C4    C     C_R   0.300696 0.497391 0.473835 0.563574
C5    C     C_R   0.477747 0.936588 0.620880 0.010475
C6    C     C_3   0.535176 0.928480 0.764786 -0.262246
C7    C     C_3   0.534985 0.069524 0.766425 -0.062670
C8    C     C_R   0.551174 0.590338 0.081048 0.155839
C9    C     C_R   0.442586 0.417127 0.066132 0.011586
C10   C     C_R   0.442934 0.416837 0.917362 0.039737
C11   C     C_R   0.550948 0.590538 0.933476 0.152502
C12   C     C_R   0.027879 0.467481 0.565033 0.045922
C13   C     C_3   0.664196 0.617501 0.943420 -0.267379
C14   C     C_3   0.664612 0.616427 0.102192 -0.275076
C15   C     C_R   0.498314 0.737674 0.499744 0.548152
C16   C     C_R   0.699430 0.499557 0.526421 0.560504
C17   C     C_R   0.812109 0.494593 0.543204 -0.015179
C18   C     C_R   0.188079 0.499339 0.459511 0.013099
C19   C     C_R   0.028549 0.578455 0.341421 -0.118150
C20   C     C_R   0.135383 0.567551 0.350223 -0.143533
C21   C     C_R   0.133509 0.439554 0.559789 0.112826
C22   C     C_2   0.641556 0.126936 0.774604 0.594547
C23   C     C_R   0.974547 0.529772 0.448112 0.013670
C24   C     C_2   0.024201 0.407359 0.823078 0.596009
C25   C     C_R   0.867413 0.541576 0.437812 -0.122640
C26   C     C_R   0.864604 0.444644 0.665484 -0.127974
C27   C     C_R   0.972593 0.434413 0.680285 0.068351
C28   C     C_R   0.478374 0.063560 0.621078 0.018131
C29   C     C_R   0.488172 0.129386 0.497344 0.036113
C30   C     C_R   0.483117 0.064234 0.369107 -0.135914
Cu1   Cu    Cu3+1 0.499990 0.499980 0.640670 0.998951
Cu2   Cu    Cu3+1 0.500010 0.500020 0.359330 0.962383
H1    H     H_    0.826988 0.587373 0.347441 0.115270
H2    H     H_    0.821398 0.416468 0.751221 0.145605
H3    H     H_    0.988444 0.628086 0.253424 0.130180
H4    H     H_    0.176926 0.612062 0.271359 0.141952
H5    H     H_    0.484375 0.112000 0.269644 0.140195
H6    H     H_    0.484867 0.887369 0.269731 0.137417
H7    H     H_    0.486776 0.887463 0.842288 0.126632
H8    H     H_    0.742370 0.248064 0.874293 0.350474
H9    H     H_    0.141544 0.446182 0.972834 0.340993
H10   H     H_    0.612885 0.885610 0.763160 0.157129
H11   H     H_    0.485789 0.108583 0.844341 0.117255
H12   H     H_    0.397646 0.348528 0.115442 0.121038
H13   H     H_    0.398931 0.347501 0.855368 0.146341
H14   H     H_    0.709873 0.540554 0.903889 0.165838
H15   H     H_    0.680880 0.709994 0.900988 0.125703
H16   H     H_    0.709732 0.537864 0.151562 0.164667
H17   H     H_    0.682003 0.708120 0.151831 0.128518
I1    I     I_    0.201925 0.277100 0.660082 -0.331035
N1    N     N_R   0.500660 0.500930 0.148010 -0.233563
N2    N     N_R   0.500660 0.500890 0.852110 -0.225025
O1    O     O_R   0.500000 0.319640 0.618810 -0.488467
O2    O     O_R   0.668897 0.216926 0.876985 -0.691018
O3    O     O_2   0.985838 0.332839 0.898812 -0.505609
O4    O     O_R   0.114326 0.471404 0.873525 -0.682361
O5    O     O_R   0.500010 0.319680 0.381230 -0.511224
O6    O     O_R   0.348990 0.499960 0.599490 -0.472994
O7    O     O_R   0.349000 0.500000 0.361910 -0.512530
O8    O     O_R   0.499990 0.680320 0.618770 -0.502238
O9    O     O_R   0.500000 0.680360 0.381190 -0.512107
O10   O     O_R   0.651000 0.500000 0.638090 -0.506184
O11   O     O_R   0.651010 0.500040 0.400510 -0.501800
O12   O     O_2   0.703375 0.095496 0.692873 -0.502112

loop_
_geom_bond_atom_site_label_1
_geom_bond_atom_site_label_2
_ccdc_geom_bond_type
Cu1   O8    S    
C10   N2    A    
C19   C23   A    
Cu2   N1    S    
C6    C7    S    
C6    H7    S    
C16   O11   A    
C7    H11   S    
C24   O4    S    
C5    C28   A    
C9    C10   A    
C2    H6    S    
H8    O2    S    
C19   C20   A    
C8    N1    A    
C24   C27   S    
Cu1   N2    S    
C2    C30   A    
C4    C18   S    
C9    N1    A    
C10   H13   S    
C1    C29   S    
C2    C3    A    
C15   O9    A    
C17   C25   A    
C22   O2    S    
C19   H3    S    
C1    O5    A    
Cu1   O1    S    
C24   O3    D    
C11   C13   S    
C12   C23   A    
Cu1   O10   S    
C26   C27   A    
C29   C30   A    
C16   O10   A    
Cu2   O5    S    
C8    C11   A    
C17   C26   A    
C4    O7    A    
C28   C29   A    
Cu2   O9    S    
H9    O4    S    
C18   C20   A    
C23   C25   A    
Cu2   O11   S    
C5    C6    S    
C14   H17   S    
C12   C27   A    
C22   O12   D    
C7    C22   S    
C3    C15   S    
Cu1   O6    S    
C6    H10   S    
C4    O6    A    
C13   H15   S    
C14   H16   S    
C1    O1    A    
C13   H14   S    
C18   C21   A    
C9    H12   S    
C8    C14   S    
C11   N2    A    
C21   I1    S    
Cu2   O7    S    
C13   C14   S    
C12   C21   A    
C26   H2    S    
C15   O8    A    
C7    C28   S    
Cu1   Cu2   S    
C30   H5    S    
C25   H1    S    
C16   C17   S    
C3    C5    A    
C20   H4    S    
