data_mof_unit_50816.cif
_audit_creation_date              2013-03-05T15:44:40-0500
_audit_creation_method            fapswitch 2.2
_symmetry_space_group_name_H-M    P1
_symmetry_Int_Tables_number       1
_space_group_crystal_system       triclinic
_cell_length_a                    24.876678
_cell_length_b                    7.222819
_cell_length_c                    14.561369
_cell_angle_alpha                 89.739064
_cell_angle_beta                  102.599066
_cell_angle_gamma                 90.217062
_cell_volume                      2553.34440913

loop_
_atom_site_label
_atom_site_type_symbol
_atom_site_description
_atom_site_fract_x
_atom_site_fract_y
_atom_site_fract_z
_atom_type_partial_charge
O1    O     O_R   0.319150 0.364170 0.330530 -0.600283
O2    O     O_R   0.680850 0.635830 0.669470 -0.565507
O3    O     O_R   0.180850 0.864170 0.169470 -0.603447
O4    O     O_R   0.819150 0.135830 0.830530 -0.590328
O5    O     O_R   0.210330 0.696850 0.354180 -0.539918
O6    O     O_R   0.789670 0.303150 0.645820 -0.570755
O7    O     O_R   0.289670 0.196850 0.145820 -0.540595
O8    O     O_R   0.710330 0.803150 0.854180 -0.543596
C1    C     C_R   0.196766 0.524678 0.377698 0.930283
C2    C     C_R   0.802400 0.474981 0.621300 0.926957
C3    C     C_R   0.302730 0.025316 0.121740 0.933200
C4    C     C_R   0.696743 0.973414 0.877526 0.923823
O9    O     O_R   0.320550 0.694110 0.341970 -0.569705
O10   O     O_R   0.679450 0.305890 0.658030 -0.601974
O11   O     O_R   0.179450 0.194110 0.158030 -0.569677
O12   O     O_R   0.820550 0.805890 0.841970 -0.584224
O13   O     O_R   0.291860 0.861000 0.157170 -0.582085
O14   O     O_R   0.708140 0.139000 0.842830 -0.578774
O15   O     O_R   0.208140 0.361000 0.342830 -0.580523
O16   O     O_R   0.791860 0.639000 0.657170 -0.540561
C5    C     C_R   0.341648 0.526021 0.361596 1.012577
C6    C     C_R   0.658385 0.475040 0.638295 1.005335
C7    C     C_R   0.158522 0.025736 0.138001 1.014396
C8    C     C_R   0.841835 0.975078 0.861086 1.011400
O17   O     O_3   0.240460 0.529330 0.189380 -0.277709
O18   O     O_3   0.759540 0.470670 0.810620 -0.277663
O19   O     O_3   0.259540 0.029330 0.310620 -0.276416
O20   O     O_3   0.740460 0.970670 0.689380 -0.261891
V1    V     V_3+5 0.251770 0.805510 0.261240 1.282505
V2    V     V_3+5 0.748230 0.194490 0.738760 1.271721
V3    V     V_3+5 0.248230 0.305510 0.238760 1.284443
V4    V     V_3+5 0.751770 0.694490 0.761240 1.305233
C9    C     C_R   0.102801 0.018330 0.076444 -0.199762
C10   C     C_R   0.897942 0.987890 0.921514 -0.210893
C11   C     C_R   0.397631 0.519924 0.422611 -0.202344
C12   C     C_R   0.602571 0.487572 0.576989 -0.205470
C13   C     C_R   0.953241 0.009804 0.080475 -0.017173
C14   C     C_R   0.047618 0.977308 0.918449 -0.018334
C15   C     C_R   0.547179 0.496807 0.417545 -0.006007
C16   C     C_R   0.453151 0.494033 0.581242 -0.010766
C17   C     C_R   0.902758 0.984433 0.018592 -0.146904
C18   C     C_R   0.098390 0.975777 0.981825 -0.110019
C19   C     C_R   0.597703 0.471416 0.480109 -0.130191
C20   C     C_R   0.402196 0.489230 0.518534 -0.112170
C21   C     C_R   0.946000 0.014248 0.884835 -0.232137
C22   C     C_R   0.054403 0.052370 0.110340 -0.237056
C23   C     C_R   0.554840 0.525030 0.612635 -0.241395
C24   C     C_R   0.446073 0.547382 0.387369 -0.238369
C25   C     C_R   0.998597 0.010174 0.948985 0.121339
C26   C     C_R   0.002030 0.028083 0.047402 0.105110
C27   C     C_R   0.502170 0.518088 0.549113 0.116058
C28   C     C_R   0.498563 0.524477 0.450344 0.103438
H1    H     H_    0.134930 0.943710 0.956706 0.133862
H2    H     H_    0.866758 0.966689 0.047087 0.168370
H3    H     H_    0.365642 0.464921 0.545240 0.137243
H4    H     H_    0.633879 0.444014 0.452649 0.142792
H5    H     H_    0.953599 0.002514 0.154668 0.196888
H6    H     H_    0.047128 0.940444 0.846491 0.185314
H7    H     H_    0.546354 0.482175 0.343477 0.194550
H8    H     H_    0.453716 0.466797 0.654456 0.182953
C29   C     C_R   0.665308 0.977804 0.952632 -0.178327
C30   C     C_R   0.333852 0.015892 0.046260 -0.176632
C31   C     C_R   0.832738 0.485785 0.544768 -0.174708
C32   C     C_R   0.165053 0.513783 0.452681 -0.175742
C33   C     C_R   0.660090 0.014852 0.116205 0.304759
C34   C     C_R   0.339355 0.987769 0.882320 0.314709
C35   C     C_R   0.839019 0.559746 0.384121 0.322347
C36   C     C_R   0.159036 0.483407 0.616482 0.314360
C37   C     C_R   0.691585 0.996050 0.047386 -0.207141
C38   C     C_R   0.307485 0.013531 0.950655 -0.226450
C39   C     C_R   0.807380 0.546140 0.453628 -0.224823
C40   C     C_R   0.191052 0.511983 0.548402 -0.224338
C41   C     C_R   0.608124 0.967266 0.927963 -0.136077
C42   C     C_R   0.390791 0.995069 0.071621 -0.140455
C43   C     C_R   0.889020 0.446833 0.565954 -0.131508
C44   C     C_R   0.108008 0.493225 0.426928 -0.142698
C45   C     C_R   0.574801 0.002877 0.993433 0.122791
C46   C     C_R   0.424453 0.011308 0.005083 0.117736
C47   C     C_R   0.923158 0.493472 0.503192 0.116324
C48   C     C_R   0.074045 0.505543 0.493304 0.116145
C49   C     C_R   0.601195 0.015276 0.090346 -0.064818
C50   C     C_R   0.398248 0.000266 0.907902 -0.063209
C51   C     C_R   0.897169 0.528636 0.408111 -0.052319
C52   C     C_R   0.100030 0.491770 0.590535 -0.062921
C53   C     C_R   0.515850 0.019185 0.964524 0.047564
C54   C     C_R   0.483466 0.028578 0.033450 0.039908
C55   C     C_R   0.982225 0.504350 0.533032 0.045324
C56   C     C_R   0.015001 0.522644 0.464664 0.038673
C57   C     C_R   0.511166 0.065229 0.127979 -0.191844
C58   C     C_R   0.488553 0.042798 0.868732 -0.180002
C59   C     C_R   0.987622 0.567338 0.370551 -0.200991
C60   C     C_R   0.009062 0.520499 0.629592 -0.175089
C61   C     C_R   0.568073 0.034515 0.157647 -0.205118
C62   C     C_R   0.431406 0.012820 0.839820 -0.203455
C63   C     C_R   0.930290 0.545721 0.340941 -0.204077
C64   C     C_R   0.066565 0.497281 0.658440 -0.197604
H9    H     H_    0.407874 0.967087 0.144837 0.122467
H10   H     H_    0.590572 0.930425 0.856091 0.121140
H11   H     H_    0.091096 0.468154 0.353515 0.123345
H12   H     H_    0.906111 0.388602 0.634444 0.124139
C65   C     C_2   0.058611 0.117011 0.209311 1.038604
O21   O     O_2   0.099058 0.080119 0.270983 -0.610300
O22   O     O_R   0.016670 0.223680 0.232002 -0.770070
H13   H     H_    0.021698 0.242104 0.302255 0.331709
C66   C     C_2   0.941079 0.060846 0.782719 1.062919
O23   O     O_2   0.898206 0.031748 0.725103 -0.609999
O24   O     O_R   0.984844 0.144692 0.752256 -0.754275
H14   H     H_    0.977523 0.159284 0.681365 0.332894
C67   C     C_2   0.441771 0.608430 0.287596 1.044587
O25   O     O_2   0.400357 0.575491 0.227225 -0.611847
O26   O     O_R   0.484583 0.708675 0.262730 -0.759899
H15   H     H_    0.478360 0.730015 0.192406 0.333813
C68   C     C_2   0.560017 0.582823 0.713044 1.055573
O27   O     O_2   0.601785 0.549493 0.772514 -0.608097
O28   O     O_R   0.517555 0.680674 0.739617 -0.753050
H16   H     H_    0.523832 0.697342 0.810198 0.333051
C69   C     C_2   0.590831 0.010242 0.259729 1.200203
O29   O     O_2   0.599400 0.854231 0.292350 -0.606410
O30   O     O_R   0.602252 0.164476 0.318209 -0.783381
H17   H     H_    0.617926 0.128413 0.386107 0.333962
C70   C     C_2   0.407536 0.011482 0.737361 1.189162
O31   O     O_2   0.409435 0.870290 0.692192 -0.554555
O32   O     O_R   0.384983 0.173051 0.692319 -0.803457
H18   H     H_    0.370287 0.154146 0.622391 0.333695
C71   C     C_2   0.906541 0.520546 0.239230 1.209732
O33   O     O_2   0.889955 0.367653 0.210298 -0.609176
O34   O     O_R   0.902861 0.669853 0.176993 -0.772382
H19   H     H_    0.885810 0.633244 0.109794 0.344940
C72   C     C_2   0.090541 0.496368 0.760907 1.182307
O35   O     O_2   0.089455 0.354341 0.806522 -0.550130
O36   O     O_R   0.112553 0.659020 0.805337 -0.804737
H20   H     H_    0.127551 0.640227 0.875254 0.332962
C73   C     C_2   0.246656 0.031861 0.921727 1.079521
O37   O     O_2   0.223049 0.152223 0.956519 -0.627956
O38   O     O_R   0.216527 0.915169 0.852935 -0.684046
H21   H     H_    0.176566 0.953081 0.832225 0.369178
C74   C     C_2   0.752202 0.985833 0.076211 1.078646
O39   O     O_2   0.776140 0.852304 0.053077 -0.634065
O40   O     O_R   0.781509 0.124840 0.132479 -0.682041
H22   H     H_    0.822189 0.096657 0.152725 0.369588
C75   C     C_2   0.251764 0.534585 0.577822 1.078306
O41   O     O_2   0.274916 0.657812 0.543292 -0.624728
O42   O     O_R   0.282266 0.418837 0.646864 -0.684291
H23   H     H_    0.321967 0.460015 0.667924 0.370043
C76   C     C_2   0.748201 0.599293 0.430398 1.061204
O43   O     O_2   0.730023 0.705718 0.481099 -0.622987
O44   O     O_R   0.713476 0.530530 0.349205 -0.673174
H24   H     H_    0.674806 0.582172 0.338507 0.365829
N1    N     N_R   0.688854 0.045888 0.211226 0.231270
O45   O     O_R   0.712277 0.908324 0.262277 -0.324541
O46   O     O_R   0.699381 0.214322 0.240865 -0.268620
N2    N     N_R   0.311563 0.941860 0.788396 0.243263
O47   O     O_R   0.313065 0.772714 0.759094 -0.328826
O48   O     O_R   0.281405 0.063747 0.734852 -0.268269
N3    N     N_R   0.814075 0.642343 0.295478 0.238532
O49   O     O_R   0.783371 0.544081 0.229469 -0.251642
O50   O     O_R   0.824769 0.814264 0.279200 -0.344481
N4    N     N_R   0.186967 0.439805 0.710785 0.242544
O51   O     O_R   0.186698 0.270264 0.740981 -0.326578
O52   O     O_R   0.216652 0.563990 0.763350 -0.269121
C77   C     C_2   0.484198 0.176039 0.190485 0.994055
O53   O     O_2   0.459671 0.316664 0.159406 -0.608692
O54   O     O_R   0.484855 0.117141 0.282350 -0.783365
H25   H     H_    0.462160 0.199197 0.315352 0.313321
C78   C     C_2   0.516373 0.146569 0.803856 0.964477
O55   O     O_2   0.543366 0.283587 0.833219 -0.613185
O56   O     O_R   0.513439 0.086123 0.711766 -0.777671
H26   H     H_    0.536213 0.165192 0.676888 0.313900
C79   C     C_2   0.015496 0.680023 0.309428 1.010171
O57   O     O_2   0.039733 0.820812 0.341207 -0.607194
O58   O     O_R   0.015892 0.622896 0.217960 -0.776601
H27   H     H_    0.039025 0.706269 0.185866 0.314568
C80   C     C_2   0.979880 0.610467 0.696663 0.957684
O59   O     O_2   0.951257 0.745373 0.670279 -0.617213
O60   O     O_R   0.983958 0.541295 0.787797 -0.777270
H28   H     H_    0.961464 0.615196 0.824951 0.315552

loop_
_geom_bond_atom_site_label_1
_geom_bond_atom_site_label_2
_geom_bond_distance
_ccdc_geom_bond_type
O17   V3    1.760385 S    
O58   H27   1.012088 S    
O1    C5    1.331879 A    
C65   O21   1.222923 D    
C16   H8    1.080296 S    
O19   V1    1.765050 S    
C1    C32   1.481634 S    
O13   V1    2.025452 S    
C79   O57   1.220510 D    
O3    C7    1.330150 A    
O44   H24   1.012729 S    
C60   C64   1.410638 A    
C55   C56   1.423188 A    
C3    C30   1.477963 S    
O15   V3    2.029674 S    
C2    C31   1.477604 S    
C47   C55   1.440483 A    
C77   O53   1.220162 D    
O38   H21   1.012269 S    
C14   C25   1.407459 A    
C34   C38   1.414309 A    
C80   O59   1.219259 D    
C44   H11   1.075883 S    
O7    C3    1.349156 A    
C66   O24   1.397190 S    
O5    C1    1.349425 A    
C78   O55   1.219308 D    
C50   C62   1.423654 A    
C9    C18   1.393711 A    
O2    V4    2.012158 S    
C14   C18   1.392304 A    
N1    O46   1.299209 A    
C18   H1    1.077550 S    
C76   O43   1.222247 D    
O4    C8    1.324866 A    
N3    O50   1.300476 A    
O28   H16   1.012978 S    
O1    V3    2.012159 S    
C30   C38   1.403696 A    
C12   C23   1.423044 A    
C35   N3    1.432959 S    
C52   C64   1.425502 A    
O3    V1    2.012413 S    
C46   C50   1.425474 A    
C67   O26   1.396295 S    
C77   O54   1.398565 S    
C14   H6    1.079762 S    
C75   O41   1.222732 D    
C1    O15   1.343932 A    
O26   H15   1.012865 S    
C2    O16   1.346385 A    
C7    C9    1.478368 S    
O2    C6    1.325270 A    
C38   C73   1.485841 S    
O24   H14   1.013412 S    
O14   V2    2.025452 S    
C45   C49   1.423761 A    
C16   C20   1.391685 A    
C13   C26   1.405579 A    
C36   C40   1.414570 A    
C46   C54   1.440800 A    
O11   C7    1.329394 A    
C15   C28   1.409033 A    
C74   O39   1.221921 D    
C51   C63   1.414365 A    
C65   O22   1.396479 S    
C55   C60   1.423963 A    
N4    O52   1.300156 A    
C9    C22   1.419941 A    
C79   O58   1.398241 S    
C78   O56   1.398748 S    
C41   H10   1.076590 S    
C10   C17   1.392500 A    
C61   C69   1.480559 S    
O10   V2    2.020206 S    
C36   N4    1.431461 S    
C11   C24   1.421945 A    
C57   C77   1.481928 S    
C76   O44   1.395440 S    
C21   C66   1.501868 S    
C58   C62   1.408017 A    
C42   H9    1.076609 S    
O5    V1    2.025596 S    
C80   O60   1.398762 S    
C37   C74   1.476473 S    
C40   C75   1.485838 S    
C22   C65   1.498609 S    
O7    V3    2.033381 S    
C59   C79   1.481143 S    
C27   C28   1.421893 A    
O8    V4    2.033383 S    
O32   H18   1.013721 S    
O56   H26   1.012660 S    
O18   V4    1.760386 S    
C15   C19   1.394269 A    
C29   C41   1.391043 A    
C53   C54   1.419405 A    
C59   C63   1.405388 A    
C57   C61   1.405209 A    
C8    C10   1.481519 S    
C75   O42   1.396350 S    
C36   C52   1.435125 A    
N4    O51   1.299712 A    
C34   N2    1.431195 S    
C34   C50   1.433378 A    
C49   C61   1.418805 A    
C63   C71   1.481729 S    
C33   C49   1.430978 A    
O60   H28   1.013756 S    
C56   C59   1.427087 A    
C21   C25   1.432563 A    
O8    C4    1.341367 A    
C15   H7    1.079898 S    
C32   C44   1.394001 A    
O9    C5    1.329420 A    
C10   C21   1.423628 A    
C35   C51   1.430543 A    
O30   H17   1.013717 S    
C11   C20   1.393262 A    
C74   O40   1.397233 S    
C70   O31   1.222648 D    
O6    V2    2.025596 S    
N2    O48   1.299761 A    
C58   C78   1.485931 S    
C71   O33   1.221560 D    
C53   C58   1.421750 A    
O9    V1    2.020206 S    
C4    O14   1.349238 A    
O34   H19   1.013784 S    
N3    O49   1.301080 A    
C73   O38   1.396754 S    
C68   O27   1.222665 D    
O16   V4    2.029674 S    
C29   C37   1.398543 A    
C23   C68   1.500518 S    
C3    O13   1.341895 A    
C39   C76   1.488265 S    
C44   C48   1.418988 A    
C31   C39   1.407416 A    
C54   C57   1.423988 A    
O6    C2    1.345514 A    
C23   C27   1.430417 A    
O40   H22   1.011582 S    
O11   V3    2.019310 S    
C5    C11   1.480256 S    
C60   C80   1.490548 S    
O12   V4    2.019308 S    
C16   C27   1.408042 A    
C6    C12   1.480683 S    
C66   O23   1.222733 D    
C22   C26   1.430709 A    
O10   C6    1.336338 A    
C69   O30   1.395550 S    
C72   O35   1.222978 D    
C48   C56   1.442313 A    
N1    O45   1.299258 A    
C48   C52   1.425565 A    
C47   C51   1.416647 A    
C4    C29   1.477223 S    
C20   H3    1.077669 S    
C73   O37   1.222696 D    
C31   C43   1.395835 A    
C33   C37   1.407503 A    
O20   V2    1.765048 S    
C43   H12   1.079286 S    
C24   C67   1.497773 S    
C35   C39   1.414055 A    
C32   C40   1.402801 A    
C13   C17   1.388818 A    
O36   H20   1.013680 S    
O4    V2    2.012415 S    
C17   H2    1.073017 S    
C70   O32   1.394352 S    
O54   H25   1.012137 S    
C45   C53   1.439865 A    
C62   C70   1.480615 S    
C19   H4    1.080751 S    
C24   C28   1.432202 A    
N2    O47   1.299257 A    
O12   C8    1.336072 A    
C25   C26   1.423367 A    
C42   C46   1.416301 A    
C67   O25   1.222996 D    
O22   H13   1.012490 S    
C71   O34   1.395825 S    
C33   N1    1.430523 S    
C41   C45   1.418028 A    
C30   C42   1.392201 A    
C12   C19   1.394727 A    
C68   O28   1.396967 S    
C69   O29   1.222134 D    
C43   C47   1.415461 A    
C13   H5    1.079495 S    
O42   H23   1.012102 S    
C64   C72   1.481127 S    
C72   O36   1.395019 S    
