data_mof_unit_17325.cif
_audit_creation_date              2012-10-26T19:25:17-0400
_audit_creation_method            fapswitch 2.2
_symmetry_space_group_name_H-M    P1
_symmetry_Int_Tables_number       1
_space_group_crystal_system       triclinic
_cell_length_a                    12.246936
_cell_length_b                    13.031071
_cell_length_c                    19.272011
_cell_angle_alpha                 79.180062
_cell_angle_beta                  100.658039
_cell_angle_gamma                 116.617161
_cell_volume                      2682.9266664

loop_
_atom_site_label
_atom_site_type_symbol
_atom_type_description
_atom_site_fract_x
_atom_site_fract_y
_atom_site_fract_z
_atom_type_partial_charge
C1    C     C_R   0.854709 0.286247 0.503149 0.536352
C2    C     C_R   0.986324 0.484901 0.146477 0.056370
C3    C     C_R   0.268213 0.025036 0.406158 0.004769
C4    C     C_R   0.997463 0.497636 0.632093 0.543777
C5    C     C_R   0.228940 0.836103 0.472343 -0.026195
C6    C     C_R   0.818878 0.080700 0.525281 -0.165521
C7    C     C_R   0.744607 0.963687 0.522540 -0.130758
C8    C     C_R   0.620584 0.924590 0.495101 0.006275
C9    C     C_R   0.568795 0.006226 0.473013 0.044025
C10   C     C_R   0.650369 0.125131 0.463167 0.012462
C11   C     C_R   0.440228 0.975912 0.459973 0.011948
C12   C     C_R   0.991888 0.492075 0.707621 0.028074
C13   C     C_R   0.396524 0.056789 0.420637 0.061703
C14   C     C_R   0.482295 0.167418 0.397315 -0.141291
C15   C     C_R   0.606720 0.201450 0.418927 -0.124701
C16   C     C_R   0.145724 0.714193 0.489502 0.544202
C17   C     C_R   0.354875 0.870682 0.490161 -0.150743
C18   C     C_R   0.185705 0.913567 0.430999 -0.121802
C19   C     C_R   0.773515 0.162976 0.496097 -0.012828
C20   C     C_R   0.363407 0.355732 0.625834 -0.017546
C21   C     C_R   0.739749 0.606266 0.390829 0.018222
C22   C     C_R   0.624818 0.594556 0.357783 -0.152415
C23   C     C_R   0.987814 0.484974 0.070438 0.329365
C24   C     C_R   0.520912 0.532740 0.394390 -0.001007
C25   C     C_R   0.540043 0.509656 0.470120 -0.026638
C26   C     C_R   0.661635 0.528609 0.501589 0.162649
C27   C     C_R   0.446471 0.470688 0.516504 -0.052034
C28   C     C_R   0.000542 0.499351 0.367721 0.539668
C29   C     C_R   0.468118 0.424283 0.587844 0.039773
C30   C     C_R   0.593177 0.463100 0.619306 -0.015318
C31   C     C_R   0.687757 0.532420 0.575378 0.052578
C32   C     C_R   0.337627 0.486994 0.497929 0.018801
C33   C     C_R   0.253696 0.367042 0.600662 0.049236
C34   C     C_R   0.987772 0.487738 0.929624 0.338073
C35   C     C_R   0.940526 0.385133 0.750570 -0.015847
C36   C     C_R   0.938298 0.385135 0.823003 -0.114410
C37   C     C_R   0.988233 0.489232 0.853072 0.017933
C38   C     C_R   0.039602 0.594547 0.809667 -0.131622
C39   C     C_R   0.041122 0.595783 0.737513 -0.163855
C40   C     C_3   0.886498 0.270228 0.721198 -0.262555
C41   C     C_3   0.750200 0.233272 0.693636 -0.300656
C42   C     C_3   0.688827 0.108640 0.676487 -0.452637
C43   C     C_3   0.217404 0.107357 0.364181 -0.419363
C44   C     C_3   0.555782 0.799968 0.480130 -0.409648
C45   C     C_R   0.027034 0.412382 0.197834 -0.016108
C46   C     C_3   0.625940 0.451954 0.699226 -0.399318
C47   C     C_3   0.358198 0.262199 0.687273 -0.265837
C48   C     C_3   0.390791 0.172176 0.666121 -0.293004
C49   C     C_3   0.390528 0.080942 0.728708 -0.456571
C50   C     C_3   0.394793 0.487837 0.350758 -0.248343
C51   C     C_3   0.389502 0.436097 0.283506 -0.296224
C52   C     C_3   0.381305 0.514751 0.214944 -0.438826
C53   C     C_3   0.791067 0.642772 0.600532 -0.357823
C54   C     C_3   0.061620 0.326126 0.176509 -0.396265
C55   C     C_3   0.897420 0.635886 0.117136 -0.249447
C56   C     C_R   0.035714 0.420792 0.270257 -0.125770
C57   C     C_3   0.992331 0.762684 0.110678 -0.289416
C58   C     C_3   0.942256 0.838102 0.057287 -0.448786
C59   C     C_R   0.999502 0.496225 0.292060 -0.014244
C60   C     C_R   0.955584 0.564885 0.241391 -0.129042
C61   C     C_R   0.949157 0.560999 0.168723 -0.010902
Cu1   Cu    Cu3+1 0.098280 0.475420 0.516260 0.911139
Cu2   Cu    Cu3+1 0.901720 0.524580 0.483740 0.906406
H1    H     H_    0.454267 0.230363 0.364407 0.111194
H2    H     H_    0.616549 0.624368 0.301767 0.107138
H3    H     H_    0.078415 0.676184 0.831343 0.133601
H4    H     H_    0.081304 0.677955 0.704827 0.101151
H5    H     H_    0.067562 0.366198 0.309862 0.123354
H6    H     H_    0.926151 0.622272 0.258497 0.111189
H7    H     H_    0.087670 0.886589 0.417233 0.122969
H8    H     H_    0.745509 0.093688 0.644554 0.166703
H9    H     H_    0.676845 0.048106 0.726427 0.148019
H10   H     H_    0.597267 0.090177 0.645777 0.149630
H11   H     H_    0.701532 0.239415 0.734805 0.159946
H12   H     H_    0.385411 0.814165 0.528298 0.137360
H13   H     H_    0.741093 0.291541 0.645043 0.189051
H14   H     H_    0.937712 0.274554 0.677995 0.153150
H15   H     H_    0.896417 0.203237 0.763729 0.134827
H16   H     H_    0.251275 0.185611 0.391598 0.130314
H17   H     H_    0.246622 0.132584 0.309945 0.121854
H18   H     H_    0.115317 0.067808 0.358586 0.123710
H19   H     H_    0.529346 0.741654 0.530192 0.132042
H20   H     H_    0.474318 0.783917 0.439826 0.137913
H21   H     H_    0.618293 0.777406 0.457525 0.136000
H22   H     H_    0.724693 0.500438 0.716613 0.138086
H23   H     H_    0.913081 0.106810 0.549499 0.127143
H24   H     H_    0.574968 0.484174 0.724691 0.131998
H25   H     H_    0.606250 0.361369 0.720122 0.123786
H26   H     H_    0.462105 0.121663 0.772303 0.152769
H27   H     H_    0.299140 0.036843 0.748834 0.152722
H28   H     H_    0.410513 0.015172 0.711349 0.143419
H29   H     H_    0.322358 0.128830 0.622007 0.166018
H30   H     H_    0.482810 0.214172 0.646933 0.171439
H31   H     H_    0.415031 0.299034 0.735848 0.142927
H32   H     H_    0.263460 0.215234 0.703097 0.121326
H33   H     H_    0.298542 0.530957 0.210491 0.168125
H34   H     H_    0.784817 0.902939 0.541060 0.111749
H35   H     H_    0.463403 0.598991 0.213329 0.146967
H36   H     H_    0.374438 0.472315 0.168437 0.141135
H37   H     H_    0.469315 0.415979 0.285852 0.162916
H38   H     H_    0.306280 0.352629 0.280526 0.139231
H39   H     H_    0.326855 0.416288 0.383087 0.128230
H40   H     H_    0.364700 0.558682 0.336332 0.143718
H41   H     H_    0.849437 0.697309 0.557897 0.151319
H42   H     H_    0.750663 0.694829 0.616425 0.096651
H43   H     H_    0.851910 0.626414 0.646617 0.141728
H44   H     H_    0.096769 0.280737 0.223293 0.110146
H45   H     H_    0.667855 0.287235 0.398045 0.157401
H46   H     H_    0.979583 0.259531 0.149368 0.160524
H47   H     H_    0.133990 0.370455 0.140071 0.143152
H48   H     H_    0.919919 0.809049 0.003699 0.162400
H49   H     H_    0.858230 0.833716 0.074264 0.149738
H50   H     H_    0.012569 0.929309 0.054056 0.144791
H51   H     H_    0.016961 0.795530 0.163283 0.152937
H52   H     H_    0.077229 0.769964 0.093070 0.191974
H53   H     H_    0.866808 0.605509 0.063782 0.167297
H54   H     H_    0.813803 0.628746 0.136417 0.129225
H55   H     H_    0.174513 0.321809 0.629948 0.114337
H56   H     H_    0.898338 0.303312 0.856014 0.129125
H57   H     H_    0.327639 0.544083 0.451448 0.124822
H58   H     H_    0.815959 0.644943 0.359396 0.128452
N1    N     N_R   0.055078 0.585279 0.961584 -0.243297
N2    N     N_R   0.055205 0.583884 0.030752 -0.245666
N3    N     N_R   0.920497 0.387350 0.038762 -0.239877
N4    N     N_R   0.920746 0.388682 0.969607 -0.245249
N5    N     N_R   0.246290 0.438200 0.540910 -0.240285
N6    N     N_R   0.754310 0.561190 0.459520 -0.239635
O1    O     O_R   0.972510 0.318130 0.520450 -0.507128
O2    O     O_R   0.806530 0.359650 0.492990 -0.497436
O3    O     O_R   0.083010 0.479220 0.613590 -0.499501
O4    O     O_R   0.917030 0.520740 0.586130 -0.499133
O5    O     O_R   0.193470 0.640350 0.507010 -0.498036
O6    O     O_R   0.027490 0.681870 0.479550 -0.509302
O7    O     O_R   0.082970 0.479260 0.413870 -0.506230
O8    O     O_R   0.916990 0.520780 0.386410 -0.518546

loop_
_geom_bond_atom_site_label_1
_geom_bond_atom_site_label_2
_ccdc_geom_bond_type
C18   H7    S    
C27   C29   A    
C34   C37   S    
C41   C42   S    
Cu1   O3    S    
C35   C36   A    
C1    O1    A    
C49   H27   S    
C44   H20   S    
C7    C8    A    
C57   H52   S    
C6    C19   A    
C3    C43   S    
Cu1   Cu2   S    
C54   H44   S    
C58   H49   S    
Cu2   O6    S    
C36   C37   A    
C49   H28   S    
C1    O2    A    
C10   C15   A    
C30   C31   A    
C5    C17   A    
C55   H53   S    
C53   H41   S    
C43   H16   S    
C28   O8    A    
C54   H47   S    
C3    C18   A    
C26   C31   A    
C32   N5    A    
C36   H56   S    
C33   N5    A    
C5    C16   S    
C41   H11   S    
C53   H43   S    
C38   H3    S    
C45   C56   A    
C8    C9    A    
C58   H50   S    
C50   H40   S    
Cu2   O4    S    
C21   N6    A    
C29   C30   A    
C9    C10   A    
C3    C13   A    
C2    C61   A    
C46   H22   S    
C59   C60   A    
C34   N1    A    
C21   C22   A    
C32   H57   S    
C16   O6    A    
C4    O4    A    
C46   H25   S    
C20   C29   A    
C2    C45   A    
C24   C50   S    
C1    C19   S    
C48   H30   S    
C58   H48   S    
Cu1   O5    S    
C24   C25   A    
Cu1   N5    S    
C4    O3    A    
C5    C18   A    
C25   C26   A    
C56   H5    S    
C51   C52   S    
C54   H46   S    
C60   C61   A    
Cu2   O8    S    
C15   H45   S    
C22   H2    S    
C37   C38   A    
C47   C48   S    
C10   C19   A    
C14   H1    S    
C42   H9    S    
C50   C51   S    
C31   C53   S    
C12   C35   A    
C9    C11   A    
C6    C7    A    
C20   C33   A    
C40   C41   S    
C45   C54   S    
C50   H39   S    
C55   C57   S    
C43   H18   S    
C40   H15   S    
C4    C12   S    
C46   H24   S    
C55   H54   S    
C28   C59   S    
C51   H37   S    
C11   C17   A    
C42   H10   S    
C7    H34   S    
C27   C32   A    
C14   C15   A    
C39   H4    S    
C30   C46   S    
C8    C44   S    
C49   H26   S    
C44   H21   S    
C23   N2    A    
C23   N3    A    
C25   C27   A    
C52   H36   S    
C44   H19   S    
C6    H23   S    
C56   C59   A    
Cu1   O7    S    
C12   C39   A    
C35   C40   S    
C43   H17   S    
C41   H13   S    
Cu1   O1    S    
C11   C13   A    
C57   C58   S    
C38   C39   A    
C57   H51   S    
C60   H6    S    
C34   N4    A    
C48   C49   S    
C55   C61   S    
C52   H35   S    
C42   H8    S    
C47   H31   S    
C52   H33   S    
C22   C24   A    
C26   N6    A    
Cu2   O2    S    
C21   H58   S    
C16   O5    A    
C20   C47   S    
C53   H42   S    
C33   H55   S    
C48   H29   S    
C2    C23   S    
C17   H12   S    
C47   H32   S    
C40   H14   S    
C28   O7    A    
N1    N2    A    
C13   C14   A    
Cu2   N6    S    
C51   H38   S    
N3    N4    A    
