data_mof_unit_49712.cif
_audit_creation_date              2012-10-26T19:02:37-0400
_audit_creation_method            fapswitch 2.2
_symmetry_space_group_name_H-M    P1
_symmetry_Int_Tables_number       1
_space_group_crystal_system       triclinic
_cell_length_a                    17.307683
_cell_length_b                    8.680831
_cell_length_c                    7.496164
_cell_angle_alpha                 103.24646
_cell_angle_beta                  91.176529
_cell_angle_gamma                 93.819232
_cell_volume                      1093.11784877

loop_
_atom_site_label
_atom_site_type_symbol
_atom_type_description
_atom_site_fract_x
_atom_site_fract_y
_atom_site_fract_z
_atom_type_partial_charge
C1    C     C_R   0.497502 0.199726 0.453392 0.545656
C2    C     C_R   0.777989 0.501021 0.621568 -0.144257
C3    C     C_R   0.143099 0.512464 0.388217 -0.144901
C4    C     C_R   0.856882 0.487270 0.611778 -0.144914
C5    C     C_R   0.108006 0.541003 0.558267 0.070471
C6    C     C_R   0.891977 0.458687 0.441730 0.070461
C7    C     C_R   0.153573 0.562475 0.721382 0.119228
C8    C     C_R   0.846415 0.437265 0.278614 0.119243
C9    C     C_R   0.233597 0.547626 0.710086 -0.111320
C10   C     C_R   0.766398 0.452226 0.289912 -0.111325
C11   C     C_2   0.023696 0.547375 0.564470 -0.113546
C12   C     C_R   0.502501 0.800274 0.546608 0.545666
C13   C     C_2   0.976285 0.452275 0.435533 -0.113558
C14   C     C_2   0.496173 0.031447 0.427597 -0.153625
C15   C     C_2   0.503834 0.968552 0.572399 -0.153632
C16   C     C_R   0.351363 0.504064 0.524817 0.542911
C17   C     C_R   0.648636 0.495923 0.475182 0.542901
C18   C     C_R   0.267796 0.515059 0.538790 -0.004567
C19   C     C_R   0.732200 0.484850 0.461208 -0.004568
C20   C     C_R   0.222000 0.498829 0.378428 -0.144258
Cu1   Cu    Cu3+1 0.508700 0.517250 0.683000 0.991571
Cu2   Cu    Cu3+1 0.491300 0.482750 0.317000 0.991561
H1    H     H_    0.246989 0.476066 0.244413 0.127624
H2    H     H_    0.159310 0.595972 0.001053 0.215690
H3    H     H_    0.899840 0.289296 0.080084 0.224712
H4    H     H_    0.840680 0.403772 0.998930 0.215679
H5    H     H_    0.890428 0.498133 0.737992 0.131018
H6    H     H_    0.109548 0.501567 0.261998 0.131034
H7    H     H_    0.369167 0.379819 0.987230 0.212218
H8    H     H_    0.432598 0.238796 0.953236 0.214256
H9    H     H_    0.630871 0.619858 0.013026 0.212184
H10   H     H_    0.567555 0.761124 0.046460 0.214277
H11   H     H_    0.753000 0.523824 0.755583 0.127619
H12   H     H_    0.999673 0.369561 0.321877 0.137582
H13   H     H_    0.000308 0.630094 0.678122 0.137576
H14   H     H_    0.488807 0.959061 0.288469 0.128992
H15   H     H_    0.511203 0.040938 0.711527 0.128913
H16   H     H_    0.730992 0.437335 0.165420 0.119128
H17   H     H_    0.269009 0.562555 0.834578 0.119206
H18   H     H_    0.100117 0.710368 0.919917 0.224709
N1    N     N_2   0.478180 0.456750 0.041980 -0.025312
N2    N     N_2   0.521820 0.543250 0.958020 -0.025291
N3    N     N_3   0.118224 0.595170 0.896627 -0.634524
N4    N     N_3   0.881762 0.404523 0.103366 -0.634509
N5    N     N_3   0.423018 0.351428 0.933748 -0.446996
N6    N     N_3   0.576999 0.648530 0.066244 -0.446990
O1    O     O_R   0.505650 0.286040 0.618880 -0.479042
O2    O     O_R   0.494350 0.713960 0.381120 -0.478974
O3    O     O_R   0.490960 0.256910 0.309800 -0.514639
O4    O     O_R   0.509040 0.743090 0.690200 -0.514642
O5    O     O_R   0.394600 0.516230 0.672450 -0.485916
O6    O     O_R   0.605400 0.483770 0.327550 -0.485996
O7    O     O_R   0.379910 0.487100 0.363380 -0.522398
O8    O     O_R   0.620090 0.512900 0.636620 -0.522384

loop_
_geom_bond_atom_site_label_1
_geom_bond_atom_site_label_2
_ccdc_geom_bond_type
C2    C4    A    
C12   C15   S    
H7    N5    S    
C7    N3    S    
N1    N2    D    
H8    N5    S    
C12   O4    A    
C12   O2    A    
C16   O5    A    
C9    H17   S    
C10   C19   A    
C10   H16   S    
C11   H13   S    
H4    N4    S    
C13   H12   S    
Cu1   Cu2   S    
C6    C13   S    
C11   C13   D    
C1    O3    A    
Cu2   O3    S    
C17   O6    A    
Cu2   O6    S    
Cu1   O4    S    
C17   C19   S    
Cu2   O2    S    
C5    C11   S    
Cu2   O7    S    
C18   C20   A    
Cu1   O5    S    
C14   H14   S    
Cu1   O8    S    
C8    C10   A    
Cu2   N1    S    
Cu1   N2    S    
C7    C9    A    
C9    C18   A    
C3    C20   A    
C4    H5    S    
C2    H11   S    
C16   C18   S    
C4    C6    A    
N2    N6    S    
H3    N4    S    
C5    C7    A    
H2    N3    S    
N1    N5    S    
C14   C15   D    
C3    H6    S    
C6    C8    A    
C1    C14   S    
Cu1   O1    S    
C2    C19   A    
C16   O7    A    
C20   H1    S    
H10   N6    S    
C17   O8    A    
H18   N3    S    
C15   H15   S    
C8    N4    S    
C1    O1    A    
C3    C5    A    
H9    N6    S    
