data_mof_unit_9596.cif
_audit_creation_date              2012-10-26T19:42:14-0400
_audit_creation_method            fapswitch 2.2
_symmetry_space_group_name_H-M    P1
_symmetry_Int_Tables_number       1
_space_group_crystal_system       triclinic
_cell_length_a                    9.571966
_cell_length_b                    10.864397
_cell_length_c                    17.274784
_cell_angle_alpha                 92.585014
_cell_angle_beta                  86.436789
_cell_angle_gamma                 90.333292
_cell_volume                      1791.16205192

loop_
_atom_site_label
_atom_site_type_symbol
_atom_type_description
_atom_site_fract_x
_atom_site_fract_y
_atom_site_fract_z
_atom_type_partial_charge
C1    C     C_R   0.500289 0.736924 0.493787 0.551933
C2    C     C_R   0.523739 0.489791 0.264969 0.012076
C3    C     C_R   0.249824 0.877749 0.450453 -0.097916
C4    C     C_R   0.482331 0.503566 0.649965 0.554602
C5    C     C_R   0.120122 0.935723 0.460075 -0.136875
C6    C     C_R   0.109060 0.050536 0.498454 -0.128383
C7    C     C_R   0.229496 0.112600 0.519935 -0.099567
C8    C     C_R   0.364210 0.060552 0.502555 0.023263
C9    C     C_R   0.371049 0.934720 0.479244 0.026487
C10   C     C_R   0.498178 0.870731 0.486802 -0.006664
C11   C     C_R   0.621558 0.936902 0.498310 -0.160686
C12   C     C_R   0.352327 0.487076 0.778185 -0.137611
C13   C     C_R   0.619416 0.064083 0.504914 -0.161889
C14   C     C_R   0.492246 0.127701 0.507217 -0.005959
C15   C     C_R   0.866530 0.335334 0.397137 -0.123991
C16   C     C_R   0.498009 0.262388 0.504257 0.539560
C17   C     C_R   0.943840 0.254577 0.347064 -0.159607
C18   C     C_R   0.088680 0.254264 0.346705 0.071444
C19   C     C_R   0.155056 0.335993 0.396930 -0.062234
C20   C     C_R   0.080060 0.419135 0.449379 0.115482
C21   C     C_R   0.930418 0.419004 0.449457 0.145089
C22   C     C_R   0.921157 0.577269 0.547921 -0.006173
C23   C     C_R   0.401541 0.478901 0.146398 -0.065775
C24   C     C_R   0.069248 0.577225 0.547902 -0.005495
C25   C     C_R   0.517538 0.497378 0.349920 0.535154
C26   C     C_R   0.474673 0.517964 0.734605 -0.048586
C27   C     C_R   0.589525 0.567489 0.771891 -0.091765
C28   C     C_R   0.583983 0.585078 0.852148 0.051014
C29   C     C_R   0.462038 0.550998 0.896218 0.081151
C30   C     C_R   0.345409 0.502468 0.859408 0.233233
C31   C     C_R   0.398389 0.484852 0.226742 -0.123231
C32   C     C_R   0.652555 0.484971 0.221347 -0.132580
C33   C     C_R   0.655406 0.478861 0.140432 -0.121278
C34   C     C_R   0.529871 0.479107 0.102998 0.060591
C35   C     C_2   0.458148 0.560153 0.981221 0.131481
C36   C     C_2   0.532805 0.479514 0.018312 -0.078497
Cu1   Cu    Cu3+1 0.359340 0.500010 0.500010 0.910825
Cu2   Cu    Cu3+1 0.640660 0.499990 0.499990 0.924548
H1    H     H_    0.683586 0.594405 0.738578 0.155061
H2    H     H_    0.757043 0.327848 0.391847 0.188338
H3    H     H_    0.889885 0.192138 0.308275 0.118084
H4    H     H_    0.297394 0.485965 0.258729 0.138467
H5    H     H_    0.265655 0.329461 0.392437 0.200970
H6    H     H_    0.120761 0.640532 0.587097 0.126445
H7    H     H_    0.750518 0.486699 0.249571 0.131917
H8    H     H_    0.600212 0.413298 0.985242 0.090353
H9    H     H_    0.303698 0.474701 0.118035 0.150543
H10   H     H_    0.263357 0.449361 0.749206 0.119772
H11   H     H_    0.106430 0.117870 0.260727 0.234480
H12   H     H_    0.755103 0.477031 0.107086 0.111660
H13   H     H_    0.222504 0.111736 0.329228 0.240255
H14   H     H_    0.156052 0.436245 0.869177 0.322792
H15   H     H_    0.415251 0.740541 0.002772 0.224825
H16   H     H_    0.274130 0.647107 0.008926 0.268638
H17   H     H_    0.743617 0.575962 0.923621 0.233068
H18   H     H_    0.669074 0.716965 0.921411 0.239268
H19   H     H_    0.720540 0.890431 0.502270 0.134157
H20   H     H_    0.253873 0.789571 0.418889 0.148986
H21   H     H_    0.027656 0.889981 0.439688 0.113561
H22   H     H_    0.007388 0.092969 0.510063 0.114763
H23   H     H_    0.213567 0.198865 0.552546 0.152813
H24   H     H_    0.718009 0.112532 0.509559 0.136096
H25   H     H_    0.861719 0.640538 0.587160 0.113271
N1    N     N_R   0.852190 0.498790 0.499250 -0.239593
N2    N     N_R   0.148060 0.498710 0.499220 -0.253141
N3    N     N_3   0.171118 0.172087 0.295134 -0.632180
N4    N     N_3   0.378452 0.656261 0.022855 -0.620548
N5    N     N_3   0.702623 0.639356 0.887469 -0.636198
O1    O     O_R   0.381190 0.680360 0.500010 -0.509085
O2    O     O_R   0.618760 0.680340 0.500000 -0.503948
O3    O     O_R   0.367440 0.500030 0.613600 -0.500281
O4    O     O_R   0.605010 0.500010 0.613590 -0.501723
O5    O     O_R   0.381240 0.319660 0.500000 -0.538083
O6    O     O_R   0.618810 0.319640 0.499990 -0.521121
O7    O     O_R   0.394990 0.499990 0.386410 -0.531264
O8    O     O_R   0.632560 0.499970 0.386400 -0.521532
O9    O     O_3   0.227709 0.468569 0.903931 -0.713056

loop_
_geom_bond_atom_site_label_1
_geom_bond_atom_site_label_2
_ccdc_geom_bond_type
Cu2   O2    S    
C31   H4    S    
Cu1   O1    S    
C32   H7    S    
C35   C36   D    
C12   H10   S    
H17   N5    S    
C7    C8    A    
Cu2   O8    S    
C26   C27   A    
C29   C30   A    
C16   O6    A    
C28   C29   A    
C28   N5    S    
C5    C6    A    
C2    C32   A    
C18   C19   A    
C7    H23   S    
C21   N1    A    
C22   H25   S    
C30   O9    S    
C13   H24   S    
C19   C20   A    
C27   H1    S    
C8    C9    A    
Cu1   N2    S    
C36   H8    S    
C14   C16   S    
C9    C10   A    
Cu1   O7    S    
C13   C14   A    
C19   H5    S    
C33   C34   A    
Cu2   N1    S    
Cu2   O4    S    
C23   H9    S    
H11   N3    S    
C5    H21   S    
C16   O5    A    
C6    H22   S    
C20   N2    A    
H16   N4    S    
C33   H12   S    
H18   N5    S    
C1    O1    A    
C12   C26   A    
C2    C31   A    
C25   O7    A    
H13   N3    S    
C23   C31   A    
Cu1   Cu2   S    
C3    C9    A    
C35   N4    S    
C23   C34   A    
C17   C18   A    
C24   N2    A    
Cu1   O3    S    
C24   H6    S    
C22   C24   A    
H14   O9    S    
C4    O4    A    
Cu2   O6    S    
C15   C17   A    
Cu1   O5    S    
C8    C14   A    
C12   C30   A    
C1    C10   S    
C3    C5    A    
C4    C26   S    
C6    C7    A    
C18   N3    S    
C29   C35   S    
C1    O2    A    
C25   O8    A    
C32   C33   A    
C11   C13   A    
C2    C25   S    
C34   C36   S    
H15   N4    S    
C17   H3    S    
C15   H2    S    
C10   C11   A    
C22   N1    A    
C3    H20   S    
C15   C21   A    
C20   C21   A    
C27   C28   A    
C11   H19   S    
C4    O3    A    
