data_mof_unit_62325.cif
_audit_creation_date              2012-12-10T18:06:49-0500
_audit_creation_method            fapswitch 2.2
_symmetry_space_group_name_H-M    P1
_symmetry_Int_Tables_number       1
_space_group_crystal_system       triclinic
_cell_length_a                    28.434861
_cell_length_b                    18.390604
_cell_length_c                    21.775139
_cell_angle_alpha                 90.287069
_cell_angle_beta                  139.779502
_cell_angle_gamma                 89.807617
_cell_volume                      7352.82183248

loop_
_atom_site_label
_atom_site_type_symbol
_atom_type_description
_atom_site_fract_x
_atom_site_fract_y
_atom_site_fract_z
_atom_type_partial_charge
C1    C     C_R   0.860120 0.499986 0.860003 0.828064
C2    C     C_R   0.139880 0.500013 0.139988 0.829131
C3    C     C_R   0.360119 0.999986 0.860024 0.827102
C4    C     C_R   0.639881 0.000014 0.139984 0.826179
C5    C     C_R   0.044672 0.458699 0.827127 -0.230656
C6    C     C_R   0.953242 0.539559 0.170762 -0.233939
C7    C     C_R   0.549240 0.963113 0.831841 -0.233934
C8    C     C_R   0.450597 0.036124 0.167810 -0.233228
C9    C     C_R   0.046881 0.460405 0.765819 -0.052411
C10   C     C_R   0.951430 0.537827 0.232468 -0.055500
C11   C     C_R   0.550856 0.964819 0.769937 -0.050294
C12   C     C_R   0.448622 0.034476 0.229348 -0.052027
C13   C     C_R   0.999440 0.506970 0.685877 -0.129802
C14   C     C_R   0.000569 0.492805 0.314007 -0.130614
C15   C     C_R   0.499562 0.007484 0.686198 -0.132252
C16   C     C_R   0.500305 0.992568 0.313678 -0.130761
C17   C     C_1   0.782574 0.499987 0.782304 -0.167611
C18   C     C_1   0.217426 0.500011 0.217697 -0.168650
C19   C     C_1   0.282574 0.999990 0.782303 -0.167922
C20   C     C_1   0.717427 0.000011 0.217702 -0.166885
C21   C     C_1   0.717260 0.500019 0.716985 -0.154059
C22   C     C_1   0.282739 0.499977 0.283019 -0.152902
C23   C     C_1   0.217260 0.000026 0.716977 -0.150249
C24   C     C_1   0.782740 0.999975 0.283025 -0.149491
C25   C     C_R   0.000031 0.639938 0.499575 0.861943
C26   C     C_R   0.999975 0.360061 0.500329 0.863726
C27   C     C_R   0.500020 0.139940 0.499770 0.860377
C28   C     C_R   0.499979 0.860061 0.500237 0.861887
C29   C     C_R   0.999872 0.503175 0.618935 0.842658
C30   C     C_R   0.000148 0.496540 0.381048 0.845744
C31   C     C_R   0.499866 0.003649 0.618990 0.839003
C32   C     C_R   0.500093 0.996661 0.380962 0.839661
C33   C     C_R   0.500031 0.639712 0.500151 0.835827
C34   C     C_R   0.499968 0.360288 0.499848 0.836479
C35   C     C_R   0.000035 0.139712 0.500158 0.835515
C36   C     C_R   0.999970 0.860288 0.499844 0.836612
C37   C     C_R   0.639703 0.500032 0.639625 0.836368
C38   C     C_R   0.360297 0.499964 0.360376 0.837341
C39   C     C_R   0.139703 0.000040 0.639623 0.836885
C40   C     C_R   0.860297 0.999960 0.360377 0.837979
C41   C     C_1   0.000040 0.717470 0.499568 -0.165121
C42   C     C_1   0.999974 0.282530 0.500376 -0.166228
C43   C     C_1   0.500020 0.217469 0.499688 -0.163478
C44   C     C_1   0.499980 0.782531 0.500316 -0.162672
C45   C     C_R   0.997858 0.499756 0.879138 0.792574
C46   C     C_R   0.001447 0.500297 0.120145 0.794859
C47   C     C_R   0.498936 0.999687 0.880260 0.792583
C48   C     C_R   0.501664 0.000258 0.120338 0.792593
C49   C     C_1   0.499983 0.282743 0.499653 -0.157064
C50   C     C_1   0.500016 0.717257 0.500348 -0.157036
C51   C     C_1   0.999996 0.782744 0.499615 -0.157187
C52   C     C_1   0.000016 0.217257 0.500371 -0.160038
C53   C     C_R   0.882962 0.574326 0.698465 -0.235597
C54   C     C_R   0.119300 0.431125 0.303229 -0.265403
C55   C     C_R   0.377639 0.062238 0.693762 -0.233155
C56   C     C_R   0.623272 0.937940 0.307929 -0.237663
C57   C     C_R   0.833437 0.618860 0.618951 -0.037274
C58   C     C_R   0.170461 0.388187 0.383867 0.017872
C59   C     C_R   0.324141 0.102208 0.610756 -0.025993
C60   C     C_R   0.678138 0.900417 0.393149 -0.018129
C61   C     C_R   0.844535 0.635962 0.568051 0.108014
C62   C     C_R   0.159716 0.368754 0.434462 0.110234
C63   C     C_R   0.334688 0.123355 0.560110 0.107643
C64   C     C_R   0.668473 0.881143 0.445564 0.125076
C65   C     C_R   0.903539 0.605145 0.594652 0.157668
C66   C     C_R   0.099486 0.397283 0.407389 0.106199
C67   C     C_R   0.396377 0.098536 0.588957 0.159459
C68   C     C_R   0.604616 0.903373 0.412975 0.138170
C69   C     C_R   0.948129 0.551286 0.667373 0.043584
C70   C     C_R   0.053304 0.450309 0.333648 0.067810
C71   C     C_R   0.444988 0.047488 0.664826 0.043523
C72   C     C_R   0.555404 0.953130 0.335856 0.050139
C73   C     C_R   0.941684 0.542022 0.725256 0.036099
C74   C     C_R   0.059310 0.460379 0.275418 0.037842
C75   C     C_R   0.439323 0.036727 0.723325 0.033855
C76   C     C_R   0.561249 0.963420 0.277567 0.032602
C77   C     C_R   0.993487 0.499498 0.808206 -0.075162
C78   C     C_R   0.005804 0.500759 0.190982 -0.072448
C79   C     C_R   0.494777 0.999148 0.809673 -0.069987
C80   C     C_R   0.505608 0.000596 0.190739 -0.070025
Cu1   Cu    Cu3+1 0.000000 0.427490 0.000000 0.976538
Cu2   Cu    Cu3+1 0.000000 0.572510 0.000000 0.975670
Cu3   Cu    Cu3+1 0.500000 0.927490 0.000000 0.978832
Cu4   Cu    Cu3+1 0.500000 0.072510 0.000000 0.977073
Cu5   Cu    Cu3+1 0.072520 0.500000 0.572540 0.981751
Cu6   Cu    Cu3+1 0.927480 0.500000 0.427460 0.987745
Cu7   Cu    Cu3+1 0.572520 0.000000 0.572540 0.979074
Cu8   Cu    Cu3+1 0.427480 0.000000 0.427460 0.986949
Cu9   Cu    Cu3+1 0.500000 0.500000 0.438200 0.990359
Cu10  Cu    Cu3+1 0.500000 0.500000 0.561800 0.993125
Cu11  Cu    Cu3+1 1.000000 0.000000 0.438200 0.993100
Cu12  Cu    Cu3+1 0.000000 0.000000 0.561800 0.994407
H1    H     H_    0.083138 0.425025 0.890323 0.157598
H2    H     H_    0.913523 0.571825 0.106373 0.156559
H3    H     H_    0.590469 0.932829 0.897781 0.154143
H4    H     H_    0.409187 0.065965 0.101518 0.154027
H5    H     H_    0.873886 0.563426 0.737650 0.154515
H6    H     H_    0.128028 0.443290 0.263862 0.151502
H7    H     H_    0.369480 0.049168 0.733604 0.148884
H8    H     H_    0.630931 0.949793 0.267296 0.149637
O1    O     O_R   0.894200 0.438770 0.894190 -0.577914
O2    O     O_R   0.105800 0.561230 0.105810 -0.577383
O3    O     O_R   0.105800 0.438770 0.105810 -0.583702
O4    O     O_R   0.894200 0.561230 0.894190 -0.584838
O5    O     O_R   0.394200 0.938770 0.894190 -0.577946
O6    O     O_R   0.605800 0.061230 0.105810 -0.578564
O7    O     O_R   0.605800 0.938770 0.105810 -0.582538
O8    O     O_R   0.394200 0.061230 0.894190 -0.583280
O9    O     O_R   0.999990 0.438770 0.909810 -0.584187
O10   O     O_R   0.000010 0.561230 0.090190 -0.584505
O11   O     O_R   0.000010 0.438770 0.090190 -0.581424
O12   O     O_R   0.999990 0.561230 0.909810 -0.582655
O13   O     O_R   0.499990 0.938770 0.909810 -0.584172
O14   O     O_R   0.500010 0.061230 0.090190 -0.584292
O15   O     O_R   0.500010 0.938770 0.090190 -0.580195
O16   O     O_R   0.499990 0.061230 0.909810 -0.580656
O17   O     O_R   0.061240 0.605830 0.561270 -0.583488
O18   O     O_R   0.938760 0.394170 0.438730 -0.583179
O19   O     O_R   0.938760 0.605830 0.438730 -0.580086
O20   O     O_R   0.061240 0.394170 0.561270 -0.581528
O21   O     O_R   0.561240 0.105830 0.561270 -0.584191
O22   O     O_R   0.438760 0.894170 0.438730 -0.583092
O23   O     O_R   0.438760 0.105830 0.438730 -0.579047
O24   O     O_R   0.561240 0.894170 0.561270 -0.582115
O25   O     O_R   0.061260 0.500000 0.651450 -0.581122
O26   O     O_R   0.938740 0.500000 0.348550 -0.581746
O27   O     O_R   0.561260 0.000000 0.651450 -0.581440
O28   O     O_R   0.438740 0.000000 0.348550 -0.580800
O29   O     O_R   0.938780 0.500000 0.528960 -0.578683
O30   O     O_R   0.061220 0.500000 0.471040 -0.577566
O31   O     O_R   0.438780 0.000000 0.528960 -0.578192
O32   O     O_R   0.561220 0.000000 0.471040 -0.582385
O33   O     O_R   0.500010 0.605810 0.447830 -0.578385
O34   O     O_R   0.499990 0.394190 0.552170 -0.577331
O35   O     O_R   0.499990 0.605810 0.552170 -0.581257
O36   O     O_R   0.500010 0.394190 0.447830 -0.581575
O37   O     O_R   0.000010 0.105810 0.447830 -0.578717
O38   O     O_R   0.999990 0.894190 0.552170 -0.577344
O39   O     O_R   0.999990 0.105810 0.552170 -0.580960
O40   O     O_R   0.000010 0.894190 0.447830 -0.581365
O41   O     O_R   0.605800 0.500000 0.553630 -0.578018
O42   O     O_R   0.394200 0.500000 0.446370 -0.576261
O43   O     O_R   0.105800 0.000000 0.553630 -0.573179
O44   O     O_R   0.894200 0.000000 0.446370 -0.572537
O45   O     O_R   0.605820 0.500000 0.658030 -0.581763
O46   O     O_R   0.394180 0.500000 0.341970 -0.582116
O47   O     O_R   0.105820 0.000000 0.658030 -0.583418
O48   O     O_R   0.894180 0.000000 0.341970 -0.583427
C81   C     C_1   0.772531 0.648213 0.592147 0.238795
N1    N     N_1   0.723669 0.671499 0.570711 -0.258636
C82   C     C_1   0.233120 0.362980 0.412347 0.282781
N2    N     N_1   0.283354 0.343221 0.434942 -0.274497
C83   C     C_1   0.259428 0.122143 0.579947 0.234819
N3    N     N_1   0.207539 0.137373 0.555533 -0.294979
C84   C     C_1   0.742884 0.881545 0.423501 0.219471
N4    N     N_1   0.794700 0.866830 0.447517 -0.272665
N5    N     N_3   0.796848 0.685200 0.489308 -0.590233
H9    H     H_    0.743662 0.665149 0.439079 0.232723
H10   H     H_    0.799009 0.735135 0.514224 0.233578
N6    N     N_3   0.210162 0.319818 0.513148 -0.609035
H11   H     H_    0.233689 0.345936 0.574452 0.225606
H12   H     H_    0.181528 0.274351 0.499890 0.240064
N7    N     N_3   0.283750 0.170716 0.479704 -0.588378
H13   H     H_    0.232742 0.145417 0.428620 0.227213
H14   H     H_    0.279772 0.218280 0.501942 0.256706
N8    N     N_3   0.721670 0.838931 0.531488 -0.577582
H15   H     H_    0.743528 0.872355 0.587615 0.215241
H16   H     H_    0.765518 0.824187 0.547532 0.217240
N9    N     N_3   0.921523 0.633962 0.553524 -0.576145
H17   H     H_    0.933697 0.689199 0.570941 0.229412
H18   H     H_    0.875509 0.629707 0.479560 0.267753
N10   N     N_3   0.081507 0.367050 0.448059 -0.586965
H19   H     H_    0.126846 0.371467 0.522043 0.243346
H20   H     H_    0.069362 0.311924 0.430017 0.215548
N11   N     N_3   0.412702 0.130733 0.547044 -0.573004
H21   H     H_    0.420325 0.186561 0.561373 0.234184
H22   H     H_    0.367578 0.123831 0.473301 0.265828
N12   N     N_3   0.586487 0.869235 0.451956 -0.575733
H23   H     H_    0.629461 0.877211 0.525577 0.254822
H24   H     H_    0.581474 0.813311 0.439130 0.239620
C85   C     C_1   0.097461 0.411772 0.785887 0.271039
N13   N     N_1   0.137880 0.372795 0.801972 -0.265592
C86   C     C_1   0.899402 0.584911 0.210956 0.274577
N14   N     N_1   0.857816 0.622661 0.193687 -0.263786
C87   C     C_1   0.604996 0.920011 0.793736 0.277366
N15   N     N_1   0.648286 0.884069 0.812875 -0.264743
C88   C     C_1   0.393787 0.078635 0.204630 0.277330
N16   N     N_1   0.349935 0.114060 0.184750 -0.264040

loop_
_geom_bond_atom_site_label_1
_geom_bond_atom_site_label_2
_ccdc_geom_bond_type
C58   C62   A    
C73   C77   A    
Cu7   Cu8   S    
C30   O26   A    
N5    H9    S    
C56   C76   A    
C55   C59   A    
C2    C18   S    
N9    H18   S    
N9    H17   S    
Cu3   O13   S    
Cu5   O25   S    
N7    H13   S    
C8    H4    S    
C31   O27   A    
C72   C76   A    
Cu12  O38   S    
C16   C72   A    
Cu7   O27   S    
Cu1   Cu2   S    
C27   O21   A    
C45   O12   A    
N11   H22   S    
Cu1   O1    S    
C85   N13   T    
C3    O5    A    
C7    C11   A    
C64   N8    S    
Cu2   O10   S    
C13   C29   S    
N7    H14   S    
C26   O20   A    
Cu3   O7    S    
Cu10  O45   S    
C29   O25   A    
C64   C68   A    
C54   C58   A    
Cu7   O24   S    
Cu10  O34   S    
C45   O9    A    
C6    C78   A    
Cu3   O15   S    
Cu6   O26   S    
C2    O2    A    
C22   C38   S    
C15   C31   S    
C47   O13   A    
C9    C13   A    
C38   O46   A    
C31   O31   A    
C35   O39   A    
C54   C74   A    
C48   O14   A    
C11   C15   A    
Cu9   O41   S    
C29   O29   A    
Cu1   O11   S    
C67   N11   S    
C6    H2    S    
C57   C81   S    
C70   C74   A    
Cu4   O6    S    
C82   N2    T    
C69   C73   A    
Cu6   O19   S    
C47   C79   S    
C8    C12   A    
C55   C75   A    
N5    H10   S    
Cu9   O36   S    
Cu11  O37   S    
C46   O11   A    
Cu12  O47   S    
N8    H16   S    
C10   C86   S    
C38   O42   A    
C55   H7    S    
C14   C70   A    
C14   C30   S    
Cu8   O23   S    
C12   C16   A    
C25   O19   A    
Cu11  O48   S    
N10   H20   S    
N12   H23   S    
Cu11  O43   S    
C59   C83   S    
C47   O16   A    
C4    O7    A    
C63   C67   A    
C84   N4    T    
Cu9   O33   S    
C62   C66   A    
C20   C24   T    
Cu8   O22   S    
C10   C14   A    
C25   C41   S    
Cu11  Cu12  S    
Cu7   O21   S    
C27   O23   A    
C19   C23   T    
C43   C49   T    
C53   H5    S    
C33   C50   S    
Cu5   Cu6   S    
C12   C88   S    
C4    O6    A    
C46   C78   S    
C28   C44   S    
C17   C21   T    
C56   C60   A    
Cu2   O4    S    
C65   N9    S    
Cu2   O12   S    
Cu7   O32   S    
C66   N10   S    
Cu5   O20   S    
C63   N7    S    
C86   N14   T    
C5    C9    A    
C61   N5    S    
Cu5   O30   S    
C33   O35   A    
C5    H1    S    
Cu3   Cu4   S    
C34   O36   A    
C68   C72   A    
Cu4   O14   S    
Cu2   O2    S    
Cu6   O18   S    
C3    C19   S    
Cu9   O46   S    
C36   O40   A    
C1    O4    A    
Cu10  O42   S    
C36   C51   S    
C37   O41   A    
C48   O15   A    
C39   O43   A    
C40   O44   A    
N8    H15   S    
C62   N6    S    
Cu5   O17   S    
C75   C79   A    
C56   H8    S    
C5    C77   A    
N10   H19   S    
C1    O1    A    
C32   O32   A    
C15   C71   A    
C58   C82   S    
C26   C42   S    
C7    C79   A    
Cu1   O3    S    
C28   O22   A    
C44   C50   T    
C65   C69   A    
C42   C52   T    
C40   O48   A    
C53   C57   A    
C18   C22   T    
C59   C63   A    
C33   O33   A    
C53   C73   A    
C76   C80   A    
Cu1   O9    S    
C25   O17   A    
C6    C10   A    
N12   H24   S    
C28   O24   A    
Cu6   O29   S    
C57   C61   A    
C3    O8    A    
C16   C32   S    
C7    H3    S    
C1    C17   S    
C26   O18   A    
C60   C64   A    
N6    H11   S    
C32   O28   A    
C46   O10   A    
Cu9   Cu10  S    
C60   C84   S    
C88   N16   T    
Cu8   O28   S    
N11   H21   S    
C30   O30   A    
C81   N1    T    
C35   O37   A    
C71   C75   A    
Cu10  O35   S    
C48   C80   S    
C87   N15   T    
C66   C70   A    
C13   C69   A    
C2    O3    A    
C23   C39   S    
C68   N12   S    
C24   C40   S    
C11   C87   S    
C67   C71   A    
C61   C65   A    
Cu12  O44   S    
C9    C85   S    
Cu11  O40   S    
C4    C20   S    
C27   C43   S    
Cu4   O8    S    
C21   C37   S    
C34   C49   S    
Cu4   O16   S    
C74   C78   A    
C39   O47   A    
C35   C52   S    
C8    C80   A    
C34   O34   A    
C54   H6    S    
C45   C77   S    
Cu3   O5    S    
Cu8   O31   S    
C37   O45   A    
C83   N3    T    
Cu12  O39   S    
C36   O38   A    
C41   C51   T    
N6    H12   S    
