data_mof_unit_48288.cif
_audit_creation_date              2012-12-11T17:43:40-0500
_audit_creation_method            fapswitch 2.2
_symmetry_space_group_name_H-M    P1
_symmetry_Int_Tables_number       1
_space_group_crystal_system       triclinic
_cell_length_a                    15.057333
_cell_length_b                    15.207574
_cell_length_c                    16.920857
_cell_angle_alpha                 108.715568
_cell_angle_beta                  106.09838
_cell_angle_gamma                 109.430721
_cell_volume                      3124.52343831

loop_
_atom_site_label
_atom_site_type_symbol
_atom_type_description
_atom_site_fract_x
_atom_site_fract_y
_atom_site_fract_z
_atom_type_partial_charge
C1    C     C_R   0.090513 0.277464 0.037500 -0.141523
C2    C     C_R   0.076321 0.058707 0.946374 -0.235398
C3    C     C_R   0.995489 0.889679 0.940104 0.061206
C4    C     C_R   0.998858 0.079535 0.965863 0.066329
C5    C     C_R   0.075372 0.962861 0.932518 0.023347
C6    C     C_R   0.916713 0.003175 0.968844 0.016445
C7    C     C_R   0.729620 0.958959 0.930104 -0.187173
C8    C     C_R   0.262028 0.014241 0.959287 -0.169600
C9    C     C_R   0.678590 0.046344 0.042745 -0.097570
C10   C     C_R   0.308126 0.896278 0.864481 -0.091687
C11   C     C_R   0.494107 0.698460 0.352246 -0.227438
C12   C     C_R   0.912792 0.708782 0.920829 -0.155988
C13   C     C_R   0.496057 0.388073 0.725515 -0.229564
C14   C     C_R   0.504776 0.683772 0.270238 -0.129168
C15   C     C_R   0.511569 0.419683 0.817379 -0.121473
C16   C     C_R   0.935673 0.450723 0.735101 -0.117736
C17   C     C_R   0.064264 0.483917 0.254843 -0.134769
C18   C     C_R   0.528286 0.604108 0.227681 0.099358
C19   C     C_R   0.543790 0.524787 0.875142 0.097370
C20   C     C_R   0.542580 0.540562 0.269634 -0.376388
C21   C     C_R   0.559989 0.597838 0.839877 -0.401904
C22   C     C_R   0.532223 0.555564 0.352631 0.600447
C23   C     C_R   0.027870 0.464341 0.726025 0.056540
C24   C     C_R   0.546503 0.566345 0.747649 0.586595
C25   C     C_R   0.507727 0.634627 0.393199 -0.127828
C26   C     C_R   0.514325 0.461058 0.690977 -0.121501
C27   C     C_R   0.619130 0.572254 0.126596 -0.242820
C28   C     C_R   0.474531 0.575790 0.984598 -0.231827
C29   C     C_R   0.625603 0.554752 0.042385 0.051655
C30   C     C_R   0.461492 0.583045 0.064353 0.042391
C31   C     C_R   0.552582 0.556901 0.970630 0.053276
C32   C     C_R   0.536024 0.586287 0.138672 0.059420
C33   C     C_R   0.651859 0.972814 0.954111 -0.120336
C34   C     C_R   0.972850 0.426562 0.257849 0.067583
C35   C     C_R   0.337629 0.992108 0.937288 -0.111077
C36   C     C_R   0.964185 0.388710 0.326184 0.125538
C37   C     C_R   0.036237 0.419194 0.639398 0.125771
C38   C     C_R   0.139931 0.436622 0.553380 -0.204731
C39   C     C_R   0.859235 0.318773 0.397707 -0.211294
C40   C     C_R   0.721418 0.214625 0.822894 -0.140497
C41   C     C_R   0.222236 0.796065 0.187380 -0.128139
C42   C     C_R   0.133930 0.450357 0.636742 -0.172071
C43   C     C_R   0.866276 0.339754 0.325176 -0.201175
C44   C     C_R   0.945137 0.358850 0.556525 -0.268391
C45   C     C_R   0.665744 0.215791 0.743421 0.109910
C46   C     C_R   0.054471 0.409348 0.397601 -0.268209
C47   C     C_R   0.950377 0.353132 0.474708 0.187788
C48   C     C_R   0.048656 0.396093 0.473838 0.179919
C49   C     C_R   0.557915 0.140173 0.675590 0.070138
C50   C     C_R   0.278221 0.896187 0.360032 0.065739
C51   C     C_R   0.383092 0.085105 0.444240 0.532151
C52   C     C_R   0.409610 0.967734 0.607062 0.540261
C53   C     C_R   0.312140 0.994648 0.361378 -0.346146
C54   C     C_R   0.503288 0.049396 0.681484 -0.352054
C55   C     C_R   0.297966 0.889908 0.443332 -0.218767
C56   C     C_R   0.238061 0.801400 0.273977 0.095387
C57   C     C_R   0.512259 0.154731 0.600008 -0.260086
C58   C     C_R   0.372923 0.977728 0.525964 0.009394
C59   C     C_R   0.420755 0.074281 0.524635 0.014465
C60   C     C_R   0.783070 0.105957 0.107365 -0.120589
C61   C     C_R   0.202916 0.822476 0.813288 -0.094599
C62   C     C_R   0.861298 0.093328 0.083446 -0.120163
C63   C     C_R   0.127016 0.844383 0.834773 -0.133185
C64   C     C_R   0.300885 0.597778 0.005880 -0.157267
C65   C     C_R   0.736117 0.461501 0.046738 -0.139686
C66   C     C_R   0.835009 0.019978 0.994357 0.112261
C67   C     C_R   0.359026 0.565503 0.056007 0.059818
C68   C     C_R   0.155901 0.940265 0.908539 0.113314
C69   C     C_R   0.726603 0.309113 0.746221 -0.152890
C70   C     C_R   0.216935 0.701512 0.265127 -0.140907
C71   C     C_R   0.295554 0.499678 0.079394 -0.117198
C72   C     C_R   0.751623 0.562983 0.974790 -0.104050
C73   C     C_R   0.109748 0.535488 0.812599 -0.135708
C74   C     C_R   0.891323 0.400235 0.177624 -0.137317
C75   C     C_R   0.916277 0.194386 0.954436 -0.108722
C76   C     C_R   0.085447 0.796080 0.000247 -0.129839
C77   C     C_R   0.003215 0.179923 0.981054 0.050189
C78   C     C_R   0.707350 0.533291 0.028678 0.053950
C79   C     C_R   0.999313 0.800297 0.949666 0.057076
C80   C     C_R   0.915344 0.908629 0.953962 -0.220115
H1    H     H_    0.170331 0.294177 0.073130 0.101211
H2    H     H_    0.496572 0.362109 0.843059 0.125622
H3    H     H_    0.559820 0.478403 0.237006 0.123099
H4    H     H_    0.583512 0.678796 0.884300 0.136028
H5    H     H_    0.678036 0.573753 0.181907 0.139088
H6    H     H_    0.415785 0.571098 0.926749 0.134289
H7    H     H_    0.130453 0.444886 0.398917 0.124370
H8    H     H_    0.869137 0.328466 0.556304 0.122177
H9    H     H_    0.795020 0.321942 0.270928 0.114637
H10   H     H_    0.205835 0.492420 0.699175 0.120957
H11   H     H_    0.215931 0.467809 0.553281 0.144306
H12   H     H_    0.834501 0.681832 0.871209 0.111134
H13   H     H_    0.783323 0.285409 0.397536 0.133516
H14   H     H_    0.856744 0.401598 0.682427 0.101043
H15   H     H_    0.142793 0.504679 0.298906 0.094930
H16   H     H_    0.570923 0.926271 0.904160 0.101642
H17   H     H_    0.419199 0.049153 0.976930 0.101736
H18   H     H_    0.552037 0.225250 0.595571 0.180117
H19   H     H_    0.265233 0.814866 0.443094 0.179594
H20   H     H_    0.535487 0.038738 0.741182 0.122537
H21   H     H_    0.290706 0.001361 0.297934 0.124086
H22   H     H_    0.618340 0.056667 0.061547 0.096696
H23   H     H_    0.708086 0.901578 0.861301 0.120238
H24   H     H_    0.366771 0.879251 0.847689 0.094348
H25   H     H_    0.803339 0.161293 0.176213 0.122358
H26   H     H_    0.180106 0.748267 0.756850 0.121766
H27   H     H_    0.941953 0.139951 0.134228 0.115790
H28   H     H_    0.045769 0.786544 0.793937 0.121356
H29   H     H_    0.692060 0.162475 0.850669 0.095608
H30   H     H_    0.231875 0.858759 0.168623 0.096585
H31   H     H_    0.329032 0.658330 0.985493 0.098031
H32   H     H_    0.712431 0.420607 0.084882 0.098896
H33   H     H_    0.702530 0.344437 0.703914 0.100360
H34   H     H_    0.286430 0.088382 0.016662 0.109553
H35   H     H_    0.222077 0.676456 0.318258 0.103534
H36   H     H_    0.318119 0.466500 0.124448 0.104455
H37   H     H_    0.746427 0.618660 0.949662 0.109949
H38   H     H_    0.192153 0.564151 0.831397 0.095036
H39   H     H_    0.810922 0.342850 0.149987 0.086903
H40   H     H_    0.836195 0.135839 0.910747 0.113436
H41   H     H_    0.166343 0.850939 0.025680 0.104119
H42   H     H_    0.855239 0.852684 0.961436 0.131918
H43   H     H_    0.136492 0.116776 0.940900 0.132943
H44   H     H_    0.561803 0.442287 0.358211 0.308307
H45   H     H_    0.499225 0.646633 0.456765 0.154271
H46   H     H_    0.584606 0.706453 0.759318 0.302549
H47   H     H_    0.388503 0.175511 0.384152 0.317578
H48   H     H_    0.393896 0.881851 0.671439 0.310798
H49   H     H_    0.502382 0.435490 0.619639 0.169290
H50   H     H_    0.475158 0.759436 0.384099 0.152019
H51   H     H_    0.468206 0.306560 0.680689 0.166368
H52   H     H_    0.494281 0.734325 0.239716 0.125771
N1    N     N_R   0.055660 0.348550 0.045620 -0.040722
N2    N     N_R   0.185200 0.638170 0.176300 -0.040302
N3    N     N_R   0.201680 0.494570 0.045620 -0.040392
N4    N     N_R   0.798320 0.505430 0.954380 -0.042697
N5    N     N_R   0.068420 0.560530 0.871650 -0.039853
N6    N     N_R   0.931580 0.439470 0.128350 -0.037520
N7    N     N_R   0.948070 0.295860 0.997670 -0.043500
N8    N     N_R   0.051930 0.704140 0.002330 -0.040263
N9    N     N_R   0.944340 0.651450 0.954380 -0.039094
N10   N     N_R   0.960830 0.507850 0.823700 -0.041606
N11   N     N_R   0.039170 0.492150 0.176300 -0.039872
N12   N     N_R   0.811290 0.303410 0.871650 -0.042223
N13   N     N_R   0.188710 0.696590 0.128350 -0.043683
N14   N     N_R   0.205200 0.552990 0.997670 -0.037955
N15   N     N_R   0.794800 0.447010 0.002330 -0.041143
N16   N     N_R   0.814800 0.361830 0.823700 -0.040016
Ni1   Ni    Ni4+2 0.119340 0.493420 0.109960 0.216915
Ni2   Ni    Ni4+2 0.880660 0.506580 0.890040 0.221290
Ni3   Ni    Ni4+2 0.872590 0.372590 0.000000 0.215372
Ni4   Ni    Ni4+2 0.127410 0.627410 0.000000 0.214289
O1    O     O_3   0.544896 0.494145 0.395201 -0.752694
O2    O     O_3   0.562898 0.635914 0.710883 -0.760657
O3    O     O_3   0.423198 0.182427 0.446499 -0.775812
O4    O     O_3   0.357573 0.875448 0.609652 -0.773283

loop_
_geom_bond_atom_site_label_1
_geom_bond_atom_site_label_2
_ccdc_geom_bond_type
N5    N10   A    
C11   H50   S    
C27   C29   A    
C1    C77   A    
C14   C18   A    
C16   N10   A    
C76   C79   A    
N12   N16   A    
C19   C31   S    
C41   C56   A    
C80   H42   S    
C2    H43   S    
C15   C19   A    
C74   H39   S    
C74   N6    A    
C69   H33   S    
C43   H9    S    
C76   H41   S    
C53   H21   S    
C19   C21   A    
N16   Ni2   S    
C38   C42   A    
N12   Ni3   S    
N6    N11   A    
C71   N3    A    
C11   C14   A    
C57   C59   A    
C11   C25   A    
C1    H1    S    
C49   C54   A    
C12   C79   A    
C49   C57   A    
C12   N9    A    
C60   C62   A    
N7    Ni3   S    
C37   C42   A    
C27   H5    S    
C25   H45   S    
C39   H13   S    
C72   C78   A    
C29   C78   S    
C52   C54   A    
C9    H22   S    
C22   C25   A    
C72   H37   S    
N11   Ni1   S    
N5    Ni4   S    
C36   C46   A    
C10   C35   A    
C17   H15   S    
C65   N15   A    
N8    Ni4   S    
C67   C71   A    
C30   C67   S    
C44   C47   A    
C8    H34   S    
C3    C79   S    
C7    H23   S    
H44   O1    S    
C9    C33   A    
C7    C33   A    
C54   H20   S    
C23   C73   A    
C5    C68   S    
C1    N1    A    
C3    C80   A    
C24   O2    S    
N9    Ni2   S    
C15   H2    S    
C76   N8    A    
C51   C59   A    
C40   C45   A    
C46   C48   A    
C50   C53   A    
C62   C66   A    
C45   C69   A    
N4    N15   A    
C64   C67   A    
N1    Ni1   S    
N8    N9    A    
C4    C6    A    
H47   O3    S    
C64   H31   S    
C39   C43   A    
C62   H27   S    
C44   H8    S    
C58   C59   A    
N3    Ni1   S    
N2    Ni1   S    
C38   H11   S    
C50   C56   S    
C42   H10   S    
C8    C35   A    
C2    C4    A    
C65   H32   S    
C6    C80   A    
C47   C48   A    
C21   H4    S    
C45   C49   S    
N3    N14   A    
C51   O3    S    
C61   C63   A    
C13   H51   S    
C61   H26   S    
C75   C77   A    
C26   H49   S    
C52   C58   A    
C34   C74   A    
N14   Ni4   S    
H46   O2    S    
C20   C22   A    
C8    C68   A    
C16   C23   A    
C56   C70   A    
C41   H30   S    
C40   N12   A    
C28   H6    S    
C73   H38   S    
C13   C26   A    
C55   C58   A    
C10   C61   A    
C18   C32   S    
C17   C34   A    
C21   C24   A    
C33   H16   S    
C39   C47   A    
C46   H7    S    
N2    N13   A    
C63   C68   A    
C65   C78   A    
C64   N14   A    
C27   C32   A    
C38   C48   A    
C12   H12   S    
C28   C31   A    
C75   H40   S    
C70   H35   S    
C24   C26   A    
C3    C5    A    
N4    Ni2   S    
N1    N7    A    
C40   H29   S    
N6    Ni3   S    
C52   O4    S    
C16   H14   S    
C50   C55   A    
C17   N11   A    
C9    C60   A    
N10   Ni2   S    
C37   C44   A    
C13   C15   A    
C4    C77   S    
C29   C31   A    
C23   C37   S    
C7    C66   A    
C30   C32   A    
C73   N5    A    
C14   H52   S    
N15   Ni3   S    
C10   H24   S    
C34   C36   S    
C28   C30   A    
C71   H36   S    
C18   C20   A    
C57   H18   S    
N13   Ni4   S    
C72   N4    A    
H48   O4    S    
C2    C5    A    
C6    C66   S    
C41   N13   A    
C20   H3    S    
C55   H19   S    
C70   N2    A    
C69   N16   A    
C36   C43   A    
C75   N7    A    
C51   C53   A    
C63   H28   S    
C35   H17   S    
C60   H25   S    
C22   O1    S    
