data_mof_unit_12802.cif
_audit_creation_date              2013-03-05T15:40:15-0500
_audit_creation_method            fapswitch 2.2
_symmetry_space_group_name_H-M    P1
_symmetry_Int_Tables_number       1
_space_group_crystal_system       triclinic
_cell_length_a                    29.320701
_cell_length_b                    17.532161
_cell_length_c                    18.927266
_cell_angle_alpha                 90.000092
_cell_angle_beta                  139.567663
_cell_angle_gamma                 89.99999
_cell_volume                      6310.16740566

loop_
_atom_site_label
_atom_site_type_symbol
_atom_site_description
_atom_site_fract_x
_atom_site_fract_y
_atom_site_fract_z
_atom_type_partial_charge
C1    C     C_R   0.188021 0.399585 0.797890 -0.110510
C2    C     C_R   0.825979 0.419914 0.187265 -0.073160
C3    C     C_R   0.674022 0.919913 0.812735 -0.073182
C4    C     C_R   0.311979 0.899585 0.202111 -0.110508
H1    H     H_    0.238551 0.426825 0.850694 0.152082
H2    H     H_    0.779366 0.454202 0.124726 0.117504
H3    H     H_    0.720635 0.954201 0.875274 0.117501
H4    H     H_    0.261449 0.926825 0.149306 0.152076
N1    N     N_R   0.126390 0.429310 0.705280 -0.056211
N2    N     N_R   0.873610 0.429310 0.294720 -0.047703
N3    N     N_R   0.626390 0.929310 0.705280 -0.047707
N4    N     N_R   0.373610 0.929310 0.294720 -0.056208
C5    C     C_R   0.857490 0.582221 0.477935 -0.083030
C6    C     C_R   0.140687 0.580829 0.518569 -0.056597
C7    C     C_R   0.359312 0.080830 0.481431 -0.056601
C8    C     C_R   0.642513 0.082220 0.522070 -0.083089
H5    H     H_    0.810634 0.554016 0.440244 0.171639
H6    H     H_    0.182040 0.546074 0.547917 0.175608
H7    H     H_    0.317959 0.046075 0.452082 0.175609
H8    H     H_    0.689369 0.054015 0.559763 0.171646
N5    N     N_R   0.889410 0.573560 0.453390 -0.046115
N6    N     N_R   0.110590 0.573560 0.546610 -0.039649
N7    N     N_R   0.389410 0.073560 0.453390 -0.039649
N8    N     N_R   0.610590 0.073560 0.546610 -0.046117
C9    C     C_R   0.931820 0.323078 0.551049 0.307423
C10   C     C_R   0.086919 0.307138 0.498121 0.264499
C11   C     C_R   0.413081 0.807139 0.501880 0.264501
C12   C     C_R   0.568172 0.823077 0.448942 0.307407
N9    N     N_R   0.940610 0.372370 0.507810 -0.110823
N10   N     N_R   0.059390 0.372370 0.492190 -0.117967
N11   N     N_R   0.440610 0.872370 0.507810 -0.117966
N12   N     N_R   0.559390 0.872370 0.492190 -0.110828
C13   C     C_R   0.103342 0.688000 0.721666 0.174348
C14   C     C_R   0.892968 0.696282 0.294238 0.161289
C15   C     C_R   0.607032 0.196283 0.705762 0.161299
C16   C     C_R   0.396658 0.188000 0.278334 0.174345
N13   N     N_R   0.075190 0.630500 0.650860 -0.074493
N14   N     N_R   0.924810 0.630500 0.349140 -0.077090
N15   N     N_R   0.575190 0.130500 0.650860 -0.077091
N16   N     N_R   0.424810 0.130500 0.349140 -0.074496
C17   C     C_R   0.845492 0.408364 0.453398 0.254735
C18   C     C_R   0.168368 0.395640 0.585955 0.282647
C19   C     C_R   0.331632 0.895640 0.414046 0.282656
C20   C     C_R   0.654501 0.908360 0.546587 0.254777
N17   N     N_R   0.889410 0.427540 0.453390 -0.107444
N18   N     N_R   0.110590 0.427540 0.546610 -0.116463
N19   N     N_R   0.389410 0.927540 0.453390 -0.116461
N20   N     N_R   0.610590 0.927540 0.546610 -0.107443
C21   C     C_R   0.181070 0.592253 0.810301 -0.103814
C22   C     C_R   0.811500 0.605924 0.204488 -0.133615
C23   C     C_R   0.688500 0.105924 0.795512 -0.133647
C24   C     C_R   0.318929 0.092254 0.189699 -0.103820
H9    H     H_    0.228831 0.559159 0.870965 0.133684
H10   H     H_    0.761545 0.578622 0.155731 0.138916
H11   H     H_    0.738455 0.078622 0.844269 0.138887
H12   H     H_    0.271169 0.059159 0.129035 0.133680
N21   N     N_R   0.126390 0.575330 0.705280 -0.056174
N22   N     N_R   0.873610 0.575330 0.294720 -0.062155
N23   N     N_R   0.626390 0.075330 0.705280 -0.062152
N24   N     N_R   0.373610 0.075330 0.294720 -0.056173
C25   C     C_R   0.939789 0.671731 0.565688 -0.087936
C26   C     C_R   0.057563 0.669396 0.429418 -0.061049
C27   C     C_R   0.442437 0.169396 0.570582 -0.061059
C28   C     C_R   0.560213 0.171729 0.434312 -0.087900
H13   H     H_    0.969465 0.722439 0.610608 0.154021
H14   H     H_    0.020970 0.714238 0.374362 0.128913
H15   H     H_    0.479029 0.214238 0.625638 0.128908
H16   H     H_    0.530531 0.222431 0.389378 0.153991
N25   N     N_R   0.940610 0.629500 0.507810 -0.046473
N26   N     N_R   0.059390 0.629500 0.492190 -0.046185
N27   N     N_R   0.440610 0.129500 0.507810 -0.046188
N28   N     N_R   0.559390 0.129500 0.492190 -0.046467
C29   C     C_R   0.106322 0.309364 0.709026 -0.061784
C30   C     C_R   0.908463 0.329696 0.274521 -0.057775
C31   C     C_R   0.591538 0.829694 0.725479 -0.057768
C32   C     C_R   0.393678 0.809363 0.290974 -0.061807
H17   H     H_    0.082439 0.253856 0.678395 0.182429
H18   H     H_    0.935523 0.279400 0.290288 0.181006
H19   H     H_    0.564479 0.779397 0.709712 0.181007
H20   H     H_    0.417561 0.753856 0.321606 0.182419
N29   N     N_R   0.075190 0.373370 0.650860 -0.069872
N30   N     N_R   0.924810 0.373370 0.349140 -0.048810
N31   N     N_R   0.575190 0.873370 0.650860 -0.048811
N32   N     N_R   0.424810 0.873370 0.349140 -0.069876
C33   C     C_R   0.176890 0.324148 0.800755 0.075873
C34   C     C_R   0.847920 0.358646 0.172815 0.066822
C35   C     C_R   0.652082 0.858644 0.827185 0.066854
C36   C     C_R   0.323110 0.824147 0.199246 0.075894
C37   C     C_R   0.890074 0.640939 0.551320 -0.014675
C38   C     C_R   0.108130 0.639728 0.443735 -0.002993
C39   C     C_R   0.391869 0.139729 0.556265 -0.002985
C40   C     C_R   0.609930 0.140935 0.448684 -0.014614
C41   C     C_R   0.874580 0.346851 0.522527 -0.232715
C42   C     C_R   0.157454 0.317590 0.561470 -0.163585
C43   C     C_R   0.342546 0.817590 0.438530 -0.163578
C44   C     C_R   0.625408 0.846845 0.477458 -0.232777
C45   C     C_R   0.166771 0.662026 0.822990 0.047349
C46   C     C_R   0.822082 0.682165 0.202752 0.049008
C47   C     C_R   0.677918 0.182165 0.797248 0.049034
C48   C     C_R   0.333229 0.162027 0.177011 0.047352
Ni1   Ni    Ni4+2 0.118300 0.501760 0.624810 0.281679
Ni2   Ni    Ni4+2 0.881700 0.501760 0.375190 0.278331
Ni3   Ni    Ni4+2 0.618300 0.001760 0.624810 0.278299
Ni4   Ni    Ni4+2 0.381700 0.001760 0.375190 0.281677
Ni5   Ni    Ni4+2 0.000000 0.373470 0.500000 0.295714
Ni6   Ni    Ni4+2 0.500000 0.873470 0.500000 0.295712
Ni7   Ni    Ni4+2 1.000000 0.628290 0.500000 0.268545
Ni8   Ni    Ni4+2 0.500000 0.128290 0.500000 0.268555
C49   C     C_2   0.839712 0.273973 0.061116 -0.076040
C50   C     C_2   0.214704 0.198889 0.883062 -0.070689
C51   C     C_2   0.285295 0.698889 0.116939 -0.070683
C52   C     C_2   0.660289 0.773972 0.938884 -0.076012
C53   C     C_2   0.809665 0.325421 0.068918 -0.172761
C54   C     C_2   0.231311 0.269734 0.882548 -0.190749
C55   C     C_2   0.268688 0.769733 0.117453 -0.190767
C56   C     C_2   0.690337 0.825419 0.931081 -0.172811
H21   H     H_    0.895268 0.260739 0.131059 0.159642
H22   H     H_    0.164417 0.173136 0.811267 0.161736
H23   H     H_    0.335583 0.673136 0.188733 0.161742
H24   H     H_    0.604733 0.760738 0.868941 0.159656
H25   H     H_    0.753951 0.338269 0.001043 0.146814
H26   H     H_    0.283877 0.292187 0.953391 0.154076
H27   H     H_    0.216123 0.792186 0.046610 0.154069
H28   H     H_    0.746051 0.838266 0.998957 0.146812
C57   C     C_2   0.242155 0.660021 0.013890 -0.116187
C58   C     C_2   0.703160 0.721852 0.031943 -0.077095
C59   C     C_2   0.796840 0.221852 0.968056 -0.077255
C60   C     C_2   0.257845 0.160022 0.986110 -0.116171
C61   C     C_2   0.210016 0.700266 0.925177 -0.138908
C62   C     C_2   0.768525 0.740311 0.128280 -0.109072
C63   C     C_2   0.731476 0.240311 0.871721 -0.109064
C64   C     C_2   0.289984 0.200266 0.074824 -0.138919
H29   H     H_    0.816065 0.163885 0.985392 0.141886
H30   H     H_    0.258975 0.098062 0.987241 0.144477
H31   H     H_    0.241024 0.598062 0.012759 0.144476
H32   H     H_    0.683935 0.663885 0.014608 0.141877
H33   H     H_    0.212242 0.762095 0.925965 0.167237
H34   H     H_    0.785785 0.799160 0.146418 0.166637
H35   H     H_    0.714215 0.299160 0.853581 0.166659
H36   H     H_    0.287758 0.262095 0.074036 0.167234
C65   C     C_R   0.210601 0.258064 0.601977 0.085024
C66   C     C_R   0.840684 0.306515 0.538558 0.186297
C67   C     C_R   0.659308 0.806479 0.461456 0.186348
C68   C     C_R   0.289399 0.758064 0.398024 0.085031
C69   C     C_R   0.857057 0.678908 0.570258 0.086435
C70   C     C_R   0.126369 0.666541 0.393384 0.094099
C71   C     C_R   0.373630 0.166542 0.606615 0.094096
C72   C     C_R   0.642934 0.178878 0.429705 0.086421
C73   C     C_R   0.800952 0.665249 0.617051 -0.105321
C74   C     C_R   0.122190 0.765838 0.299308 -0.100436
C75   C     C_R   0.377810 0.265839 0.700692 -0.100411
C76   C     C_R   0.699205 0.165094 0.383202 -0.105469
C77   C     C_R   0.851471 0.641702 0.628601 -0.137994
C78   C     C_R   0.094925 0.732287 0.327985 -0.123198
C79   C     C_R   0.405074 0.232288 0.672014 -0.123190
C80   C     C_R   0.648656 0.141559 0.371587 -0.138005
C81   C     C_R   0.813624 0.739746 0.501579 -0.132497
C82   C     C_R   0.180094 0.630030 0.418345 -0.141524
C83   C     C_R   0.319906 0.130031 0.581654 -0.141518
C84   C     C_R   0.686255 0.239827 0.498203 -0.132488
C85   C     C_R   0.759084 0.760122 0.482118 -0.006660
C86   C     C_R   0.209173 0.664342 0.392588 0.001507
C87   C     C_R   0.290827 0.164342 0.607412 0.001508
C88   C     C_R   0.740830 0.260199 0.517745 -0.006615
C89   C     C_R   0.317679 0.235139 0.661705 0.097179
C90   C     C_R   0.746108 0.223158 0.457320 0.110682
C91   C     C_R   0.753948 0.723205 0.542780 0.110753
C92   C     C_R   0.182320 0.735138 0.338295 0.097184
C93   C     C_R   0.280100 0.277959 0.666606 -0.173274
C94   C     C_R   0.796958 0.246130 0.469590 -0.126463
C95   C     C_R   0.703135 0.746194 0.530584 -0.126360
C96   C     C_R   0.219900 0.777959 0.333395 -0.173291
C97   C     C_R   0.192155 0.180998 0.570198 -0.199274
C98   C     C_R   0.838911 0.340595 0.602985 -0.210808
C99   C     C_R   0.660949 0.840437 0.396818 -0.210803
C100  C     C_R   0.307845 0.680998 0.429803 -0.199271
C101  C     C_R   0.231778 0.133344 0.572675 0.294096
C102  C     C_R   0.789923 0.316923 0.595081 0.339380
C103  C     C_R   0.709893 0.816735 0.404639 0.339263
C104  C     C_R   0.268222 0.633344 0.427325 0.294096
H37   H     H_    0.304956 0.327681 0.717026 0.193501
H38   H     H_    0.798874 0.221612 0.419216 0.151349
H39   H     H_    0.701317 0.721772 0.581117 0.151255
H40   H     H_    0.195043 0.827680 0.282975 0.193498
H41   H     H_    0.148453 0.155971 0.545785 0.222793
H42   H     H_    0.873804 0.387832 0.655921 0.160698
H43   H     H_    0.625976 0.887596 0.343757 0.160758
H44   H     H_    0.351547 0.655972 0.454217 0.222793
H45   H     H_    0.399895 0.319329 0.744960 0.160977
H46   H     H_    0.703404 0.136188 0.337705 0.156417
H47   H     H_    0.796861 0.636437 0.662730 0.156385
H48   H     H_    0.100105 0.819328 0.255040 0.160970
H49   H     H_    0.883939 0.592553 0.678775 0.144903
H50   H     H_    0.052014 0.760652 0.304071 0.137467
H51   H     H_    0.447985 0.260654 0.695928 0.137468
H52   H     H_    0.616276 0.092331 0.321559 0.144948
H53   H     H_    0.819798 0.766647 0.457748 0.183202
H54   H     H_    0.203652 0.578516 0.466124 0.177127
H55   H     H_    0.296348 0.078516 0.533875 0.177125
H56   H     H_    0.679980 0.266815 0.541863 0.183213
N33   N     N_R   0.709686 0.851541 0.335634 0.240122
O1    O     O_R   0.708151 0.809079 0.277447 -0.375376
O2    O     O_R   0.697693 0.924315 0.315291 -0.373655
N34   N     N_R   0.289908 0.555507 0.463343 0.247299
O3    O     O_R   0.243229 0.501352 0.411807 -0.363442
O4    O     O_R   0.356118 0.537185 0.537483 -0.316052
N35   N     N_R   0.210092 0.055507 0.536657 0.247299
O5    O     O_R   0.256771 0.001352 0.588194 -0.363417
O6    O     O_R   0.143883 0.037184 0.462518 -0.316064
N36   N     N_R   0.789980 0.351878 0.663843 0.240123
O7    O     O_R   0.791496 0.309542 0.722089 -0.375420
O8    O     O_R   0.801851 0.424687 0.683922 -0.373597
N37   N     N_R   0.962162 0.248833 0.591023 0.222859
O9    O     O_R   0.980259 0.221525 0.673614 -0.380646
O10   O     O_R   0.955475 0.202490 0.530013 -0.333251
N38   N     N_R   0.051448 0.235606 0.459746 0.208815
O11   O     O_R   0.035753 0.200021 0.382926 -0.399627
O12   O     O_R   0.022480 0.213907 0.484319 -0.365958
N39   N     N_R   0.448552 0.735607 0.540258 0.208813
O13   O     O_R   0.464247 0.700025 0.617079 -0.399610
O14   O     O_R   0.477515 0.713901 0.515677 -0.365949
N40   N     N_R   0.537840 0.748826 0.408994 0.222891
O15   O     O_R   0.519737 0.721505 0.326403 -0.380591
O16   O     O_R   0.544542 0.702493 0.470027 -0.333170
I1    I     I_    0.078302 0.805457 0.682107 -0.318219
I2    I     I_    0.935941 0.805875 0.364456 -0.312460
I3    I     I_    0.564059 0.305875 0.635544 -0.312341
I4    I     I_    0.421701 0.305457 0.317895 -0.318183
N41   N     N_R   0.772269 0.428459 0.366988 0.234379
O17   O     O_R   0.732642 0.415000 0.374869 -0.384696
O18   O     O_R   0.744828 0.460824 0.279239 -0.400597
N42   N     N_R   0.234528 0.434405 0.661770 0.207895
O19   O     O_R   0.264743 0.445937 0.636539 -0.404677
O20   O     O_R   0.254197 0.475260 0.738777 -0.426573
N43   N     N_R   0.265472 0.934405 0.338230 0.207892
O21   O     O_R   0.235257 0.945938 0.363461 -0.404682
O22   O     O_R   0.245803 0.975259 0.261222 -0.426592
N44   N     N_R   0.727723 0.928457 0.632975 0.234339
O23   O     O_R   0.767320 0.915047 0.625026 -0.384791
O24   O     O_R   0.755186 0.960798 0.720751 -0.400628

loop_
_geom_bond_atom_site_label_1
_geom_bond_atom_site_label_2
_geom_bond_distance
_ccdc_geom_bond_type
C10   C42   1.404782 A    
C65   C97   1.408764 A    
C11   N39   1.425494 S    
N16   N24   1.377023 A    
C81   C85   1.387021 A    
C40   C72   1.427305 S    
N43   O22   1.300153 A    
N33   O1    1.301414 A    
C6    H6    1.060501 S    
C11   C43   1.404782 A    
C73   C91   1.399509 A    
C67   C99   1.393968 A    
C4    H4    1.080653 S    
C71   C83   1.407617 A    
C32   N32   1.332168 A    
C89   C93   1.393508 A    
C39   C71   1.480210 S    
N33   O2    1.301417 A    
C49   H21   1.084880 S    
C84   H56   1.082627 S    
C76   C90   1.399495 A    
N37   O9    1.300656 A    
C9    C41   1.379334 A    
C97   H41   1.070777 S    
C22   H10   1.080923 S    
N6    Ni1   1.821284 S    
C34   C53   1.451412 S    
C1    H1    1.080655 S    
C28   H16   1.069638 S    
C95   H39   1.085606 S    
C33   C54   1.446489 S    
C87   C89   1.408840 A    
N38   O12   1.297637 A    
C7    H7    1.060499 S    
C3    H3    1.080569 S    
N26   Ni7   1.856474 S    
N36   O7    1.301407 A    
C72   C84   1.388925 A    
C15   N15   1.343379 A    
C99   H43   1.084400 S    
C81   H53   1.082635 S    
C58   C62   1.335144 D    
C25   N25   1.337520 A    
C21   N21   1.325938 A    
C26   N26   1.344175 A    
C10   N38   1.425498 S    
C18   N18   1.347876 A    
N30   Ni5   1.852111 S    
N14   Ni7   1.852515 S    
C73   C77   1.385381 A    
C6    C38   1.387591 A    
C76   H46   1.083950 S    
C24   N24   1.325937 A    
C59   H29   1.084751 S    
C14   C46   1.378623 A    
C4    C36   1.373173 A    
N14   N22   1.377022 A    
C24   H12   1.080865 S    
C49   C59   1.465242 S    
C17   C41   1.379726 A    
C76   C80   1.385380 A    
C5    C37   1.371720 A    
C87   C101  1.411487 A    
C19   C43   1.401384 A    
N43   O21   1.303016 A    
N22   Ni2   1.868084 S    
C83   C87   1.399739 A    
C75   C79   1.392934 A    
C4    N4    1.336976 A    
C71   C79   1.404824 A    
C98   C102  1.389473 A    
C52   C58   1.465242 S    
C49   C53   1.345223 D    
C66   C94   1.385913 A    
C69   C77   1.395389 A    
C7    N7    1.337802 A    
C57   H31   1.086507 S    
C83   H55   1.076887 S    
C58   H32   1.084752 S    
C43   C68   1.512110 S    
C16   I4    2.122125 S    
C18   C42   1.401387 A    
N27   Ni8   1.856476 S    
C94   H38   1.085602 S    
C1    C33   1.373171 A    
N12   N20   1.377023 A    
N9    Ni5   1.856455 S    
C2    H2    1.080570 S    
C30   N30   1.334235 A    
C15   C47   1.378622 A    
C60   C64   1.340312 D    
C29   N29   1.332169 A    
C102  N36   1.437409 S    
C25   C37   1.373590 A    
C100  H44   1.070779 S    
C23   N23   1.336458 A    
N44   O24   1.301317 A    
N37   O10   1.298984 A    
C9    N9    1.343187 A    
N15   Ni8   1.852514 S    
N18   Ni1   1.850857 S    
N29   Ni5   1.852110 S    
C73   H47   1.083958 S    
C55   H27   1.087310 S    
C26   H14   1.073811 S    
C3    C35   1.382144 A    
N35   O5    1.301447 A    
C22   N22   1.336458 A    
C74   H48   1.083893 S    
C103  N33   1.437418 S    
C16   N16   1.345217 A    
C1    N1    1.336977 A    
N38   O11   1.302489 A    
C66   C98   1.393993 A    
C22   C46   1.378257 A    
N39   O13   1.302487 A    
C52   H24   1.084879 S    
C63   H35   1.083501 S    
C91   C95   1.382722 A    
C38   C70   1.480212 S    
N4    N32   1.386542 A    
N3    N31   1.386539 A    
C75   C89   1.400735 A    
N20   Ni3   1.850857 S    
C11   N11   1.354294 A    
N2    N30   1.386542 A    
N12   Ni6   1.856453 S    
C13   N13   1.345219 A    
C101  N35   1.439253 S    
N9    N17   1.377025 A    
C78   H50   1.080859 S    
C37   C69   1.427257 S    
C27   H15   1.073811 S    
C51   C57   1.453513 S    
N41   O17   1.300692 A    
C20   C44   1.379729 A    
C60   H30   1.086507 S    
N39   O14   1.297638 A    
C23   C47   1.378258 A    
C69   C81   1.388925 A    
C96   H40   1.069095 S    
C100  C104  1.402497 A    
N32   Ni6   1.852111 S    
N7    Ni4   1.821280 S    
C70   C78   1.404824 A    
C12   N12   1.343156 A    
C8    H8    1.071843 S    
N15   N23   1.377024 A    
C46   C62   1.456833 S    
N42   O20   1.300156 A    
C5    N5    1.332951 A    
C68   C100  1.408764 A    
C16   C48   1.383605 A    
N4    Ni4   1.854574 S    
C30   C34   1.382871 A    
N40   O16   1.298984 A    
C50   H22   1.083631 S    
C93   H37   1.069095 S    
C35   C56   1.451412 S    
C85   C91   1.422349 A    
C14   I2    2.120471 S    
N5    Ni2   1.821280 S    
C51   H23   1.083633 S    
N1    Ni1   1.854579 S    
N34   O4    1.301497 A    
C10   N10   1.354295 A    
N36   O8    1.301419 A    
N10   Ni5   1.856453 S    
C30   H18   1.065679 S    
N11   Ni6   1.856455 S    
C15   I3    2.120471 S    
C8    C40   1.371702 A    
C85   C103  1.412813 A    
C28   C40   1.373617 A    
C27   C39   1.389483 A    
C2    N2    1.337898 A    
C84   C88   1.387052 A    
C50   C54   1.336824 D    
C52   C56   1.345223 D    
C88   C102  1.412804 A    
N8    N28   1.386540 A    
C29   C33   1.376200 A    
C92   C96   1.393508 A    
C31   C35   1.382870 A    
C32   C36   1.376202 A    
N44   O23   1.300698 A    
C17   N17   1.330986 A    
N19   Ni4   1.850860 S    
C56   H28   1.083913 S    
C45   C61   1.436879 S    
C80   H52   1.083666 S    
C65   C93   1.405622 A    
C14   N14   1.343380 A    
C42   C65   1.512107 S    
C86   C104  1.411486 A    
N10   N18   1.377023 A    
C12   N40   1.426034 S    
C32   H20   1.074941 S    
C17   N41   1.436278 S    
C104  N34   1.439252 S    
C20   N44   1.436258 S    
C99   C103  1.389475 A    
C48   C64   1.436880 S    
N13   Ni7   1.852514 S    
N11   N19   1.377025 A    
C70   C82   1.407616 A    
C47   C63   1.456833 S    
C64   H36   1.085381 S    
C53   H25   1.083914 S    
N21   Ni1   1.868082 S    
C68   C96   1.405622 A    
C13   I1    2.122126 S    
N31   Ni6   1.852110 S    
C5    H5    1.071855 S    
C12   C44   1.379291 A    
N8    Ni3   1.821284 S    
N23   Ni3   1.868082 S    
C6    N6    1.337803 A    
C36   C55   1.446488 S    
C88   C90   1.422352 A    
C67   C95   1.385916 A    
N41   O18   1.301322 A    
C19   N43   1.430529 S    
C98   H42   1.084402 S    
C44   C67   1.427873 S    
C51   C55   1.336825 D    
C31   N31   1.334235 A    
C31   H19   1.065680 S    
C21   H9    1.080864 S    
C74   C92   1.400737 A    
C26   C38   1.389481 A    
N2    Ni2   1.854574 S    
C9    N37   1.426034 S    
N42   O19   1.303013 A    
C82   H54   1.076888 S    
C90   C94   1.382743 A    
C24   C48   1.372282 A    
C62   H34   1.083501 S    
C2    C34   1.382143 A    
C77   H49   1.083663 S    
C23   H11   1.080923 S    
C28   N28   1.337537 A    
N28   Ni8   1.856474 S    
N40   O15   1.300658 A    
N25   Ni7   1.856476 S    
C59   C63   1.335143 D    
C21   C45   1.372280 A    
C3    N3    1.337899 A    
N17   Ni2   1.850860 S    
C82   C86   1.399739 A    
C7    C39   1.387591 A    
C54   H26   1.087310 S    
C25   H13   1.069638 S    
N16   Ni8   1.852515 S    
C75   H45   1.083893 S    
C61   H33   1.085381 S    
N34   O3    1.301445 A    
N7    N27   1.386538 A    
C8    N8    1.332940 A    
C57   C61   1.340312 D    
C74   C78   1.392933 A    
N5    N25   1.386538 A    
N1    N29   1.386539 A    
N35   O6    1.301495 A    
C29   H17   1.074938 S    
C86   C92   1.408840 A    
N3    Ni3   1.854579 S    
C72   C80   1.395410 A    
C13   C45   1.383606 A    
C97   C101  1.402497 A    
N24   Ni4   1.868084 S    
C19   N19   1.347877 A    
C27   N27   1.344174 A    
N6    N26   1.386540 A    
C79   H51   1.080860 S    
N13   N21   1.377024 A    
C41   C66   1.427916 S    
C20   N20   1.331014 A    
C50   C60   1.453514 S    
C18   N42   1.430528 S    
