data_mof_unit_64526.cif
_audit_creation_date              2012-12-10T16:56:47-0500
_audit_creation_method            fapswitch 2.2
_symmetry_space_group_name_H-M    P1
_symmetry_Int_Tables_number       1
_space_group_crystal_system       triclinic
_cell_length_a                    21.70383
_cell_length_b                    21.748678
_cell_length_c                    22.226366
_cell_angle_alpha                 118.747976
_cell_angle_beta                  120.152215
_cell_angle_gamma                 89.734883
_cell_volume                      7555.26357771

loop_
_atom_site_label
_atom_site_type_symbol
_atom_type_description
_atom_site_fract_x
_atom_site_fract_y
_atom_site_fract_z
_atom_type_partial_charge
C1    C     C_R   0.496214 0.115818 0.493399 0.830702
C2    C     C_3   0.201359 0.706688 0.916945 0.131302
C3    C     C_3   0.845297 0.252196 0.050178 0.280290
C4    C     C_3   0.154980 0.748691 0.949789 0.282803
C5    C     C_3   0.796090 0.206160 0.951577 0.207627
C6    C     C_3   0.204216 0.794933 0.048405 0.203943
C7    C     C_1   0.842006 0.339236 0.175217 0.010518
C8    C     C_1   0.157967 0.660781 0.824781 0.010569
C9    C     C_1   0.665949 0.164583 0.825011 0.007002
C10   C     C_1   0.334026 0.835457 0.174988 0.009047
C11   C     C_1   0.626557 0.126696 0.749618 -0.064571
C12   C     C_R   0.503809 0.884201 0.506637 0.835165
C13   C     C_1   0.373433 0.873326 0.250381 -0.065634
C14   C     C_R   0.350605 0.155937 0.416508 0.410428
C15   C     C_R   0.649380 0.843909 0.583199 0.369810
C16   C     C_R   0.580377 0.081273 0.659865 0.864870
C17   C     C_R   0.419621 0.918731 0.340134 0.862915
C18   C     C_R   0.294861 0.188407 0.417390 -0.192120
C19   C     C_R   0.705169 0.811441 0.582531 -0.185529
C20   C     C_R   0.307687 0.263293 0.449474 -0.186632
C21   C     C_R   0.692326 0.736571 0.550516 -0.202123
C22   C     C_R   0.374735 0.305555 0.476505 -0.164619
C23   C     C_1   0.877411 0.376491 0.250512 -0.118008
C24   C     C_R   0.625227 0.694342 0.523418 -0.166757
C25   C     C_R   0.433052 0.274958 0.480183 0.052120
C26   C     C_R   0.566924 0.724979 0.519724 0.049374
C27   C     C_R   0.424806 0.201783 0.460507 -0.011350
C28   C     C_R   0.575188 0.798141 0.539347 -0.016228
C29   C     C_R   0.490763 0.179049 0.484393 -0.077556
C30   C     C_R   0.509271 0.820955 0.515617 -0.073575
C31   C     C_R   0.557056 0.223129 0.510133 -0.177643
C32   C     C_R   0.443008 0.776939 0.490001 -0.182273
C33   C     C_R   0.560244 0.289467 0.515974 -0.207005
C34   C     C_1   0.122574 0.623511 0.749487 -0.117542
C35   C     C_R   0.439800 0.710594 0.484139 -0.208724
C36   C     C_R   0.499052 0.315667 0.501877 -0.050444
C37   C     C_R   0.500944 0.684330 0.498122 -0.051220
C38   C     C_R   0.757193 0.512536 0.451822 -0.198094
C39   C     C_R   0.242755 0.487337 0.548072 -0.198734
C40   C     C_R   0.745574 0.469717 0.613091 -0.172645
C41   C     C_R   0.254553 0.530515 0.387114 -0.172078
C42   C     C_R   0.819048 0.504113 0.508671 -0.085974
C43   C     C_R   0.180948 0.495886 0.491314 -0.085887
C44   C     C_R   0.883093 0.501674 0.503211 0.783183
C45   C     C_3   0.714612 0.210771 0.917352 0.144213
C46   C     C_R   0.116900 0.498321 0.496775 0.782984
C47   C     C_R   0.920432 0.420465 0.340141 0.811373
C48   C     C_R   0.079566 0.579535 0.659859 0.811359
C49   C     C_R   0.619494 0.497781 0.500772 0.771211
C50   C     C_R   0.380508 0.502209 0.499230 0.771261
C51   C     C_R   0.501751 0.381541 0.500767 0.779469
C52   C     C_R   0.498230 0.618458 0.499233 0.778181
C53   C     C_R   0.749506 0.486959 0.561032 0.102294
C54   C     C_R   0.250554 0.513158 0.439065 0.102297
C55   C     C_R   0.880707 0.490951 0.628612 -0.109888
C56   C     C_3   0.285345 0.789294 0.082645 0.145414
C57   C     C_R   0.119402 0.509323 0.371565 -0.109677
C58   C     C_R   0.876232 0.476890 0.681438 -0.091270
C59   C     C_R   0.123945 0.523519 0.318857 -0.090433
C60   C     C_R   0.808525 0.465002 0.672705 -0.134249
C61   C     C_R   0.191660 0.535381 0.327601 -0.133450
C62   C     C_R   0.692233 0.508862 0.449220 -0.207312
C63   C     C_R   0.307721 0.491011 0.550686 -0.207938
C64   C     C_R   0.687730 0.496385 0.503182 -0.092233
C65   C     C_R   0.312276 0.503606 0.496821 -0.091633
C66   C     C_R   0.816990 0.493731 0.565921 0.085418
C67   C     C_3   0.729943 0.233610 0.048685 -0.477948
C68   C     C_R   0.183064 0.506398 0.434165 0.085205
C69   C     C_3   0.682288 0.183860 0.951934 -0.457676
C70   C     C_3   0.318386 0.815403 0.048083 -0.455354
C71   C     C_3   0.717523 0.292606 0.950443 -0.360158
C72   C     C_3   0.281363 0.707244 0.049552 -0.359612
C73   C     C_3   0.767845 0.341081 0.047321 -0.353506
C74   C     C_3   0.231209 0.658806 0.952670 -0.352899
C75   C     C_3   0.270610 0.765739 0.951329 -0.478687
C76   C     C_3   0.798601 0.293362 0.083052 0.132394
Cl1   Cl    Cl    0.834038 0.229820 0.906779 -0.464754
Cl2   Cl    Cl    0.165614 0.772588 0.093452 -0.477426
Cu1   Cu    Cu3+1 0.438180 0.999990 0.500010 1.060225
Cu2   Cu    Cu3+1 0.561820 0.000010 0.499990 1.065255
Cu3   Cu    Cu3+1 0.000200 0.561800 0.499990 0.976275
Cu4   Cu    Cu3+1 0.999800 0.438200 0.500010 0.974352
Cu5   Cu    Cu3+1 0.541330 0.541310 0.582630 0.976109
Cu6   Cu    Cu3+1 0.458670 0.458690 0.417370 0.984955
H1    H     H_    0.804830 0.452476 0.712621 0.148750
H2    H     H_    0.392708 0.793325 0.473332 0.171601
H3    H     H_    0.239045 0.154494 0.386862 0.161884
H4    H     H_    0.761058 0.845418 0.613329 0.194925
H5    H     H_    0.263536 0.287435 0.447646 0.171767
H6    H     H_    0.736504 0.712426 0.552486 0.175135
H7    H     H_    0.381024 0.362503 0.495549 0.136312
H8    H     H_    0.618921 0.637405 0.504421 0.138168
H9    H     H_    0.694036 0.458718 0.607850 0.145897
H10   H     H_    0.306102 0.541487 0.392366 0.145674
H11   H     H_    0.611085 0.321094 0.532825 0.132528
H12   H     H_    0.195406 0.548002 0.287772 0.148757
H13   H     H_    0.388982 0.679016 0.467376 0.132706
H14   H     H_    0.645332 0.516545 0.405266 0.155822
H15   H     H_    0.354585 0.483236 0.594570 0.155144
H16   H     H_    0.758765 0.520731 0.408149 0.153104
H17   H     H_    0.241144 0.479048 0.591671 0.152819
H18   H     H_    0.934701 0.500555 0.638323 0.157683
H19   H     H_    0.065395 0.499726 0.361827 0.157952
H20   H     H_    0.925355 0.474547 0.728834 0.148032
H21   H     H_    0.074866 0.525984 0.271540 0.147693
H22   H     H_    0.694363 0.260377 0.069301 0.202393
H23   H     H_    0.856584 0.211405 0.067936 0.062891
H24   H     H_    0.305902 0.738355 0.930606 0.202138
H25   H     H_    0.623329 0.184577 0.926653 0.201283
H26   H     H_    0.377090 0.813830 0.073269 0.200759
H27   H     H_    0.739168 0.314082 0.926005 0.220950
H28   H     H_    0.259009 0.686295 0.073843 0.221925
H29   H     H_    0.659854 0.296864 0.927739 0.165013
H30   H     H_    0.338794 0.702255 0.072408 0.164685
H31   H     H_    0.734281 0.369595 0.070239 0.162093
H32   H     H_    0.264671 0.629804 0.929897 0.162040
H33   H     H_    0.814428 0.385083 0.069813 0.234421
H34   H     H_    0.144203 0.789380 0.931852 0.065091
H35   H     H_    0.184178 0.615177 0.930021 0.234309
H36   H     H_    0.793215 0.147384 0.928668 0.120753
H37   H     H_    0.207866 0.853821 0.071158 0.122245
H38   H     H_    0.986594 0.404262 0.111516 0.373096
H39   H     H_    0.012455 0.598028 0.888894 0.372919
H40   H     H_    0.197190 0.037343 0.247604 0.360752
H41   H     H_    0.742142 0.920036 0.763995 0.347720
H42   H     H_    0.681350 0.125789 0.931245 0.190426
H43   H     H_    0.320223 0.873660 0.068892 0.195473
H44   H     H_    0.748944 0.198813 0.074196 0.184151
H45   H     H_    0.252252 0.800686 0.925926 0.185984
H46   H     H_    0.607389 0.206797 0.526913 0.171622
O1    O     O_R   0.447780 0.090160 0.499990 -0.565752
O2    O     O_R   0.447800 0.909820 0.500020 -0.599627
O3    O     O_R   0.508070 0.060270 0.620570 -0.605216
O4    O     O_R   0.491930 0.939730 0.379430 -0.604413
O5    O     O_R   0.612490 0.060290 0.620560 -0.504656
O6    O     O_R   0.387510 0.939710 0.379440 -0.503785
O7    O     O_R   0.910000 0.552200 0.500000 -0.575298
O8    O     O_R   0.090000 0.447800 0.500000 -0.575942
O9    O     O_R   0.909970 0.447830 0.500020 -0.591772
O10   O     O_R   0.090030 0.552170 0.499980 -0.591799
O11   O     O_R   0.939920 0.491910 0.379430 -0.590251
O12   O     O_R   0.552220 0.909840 0.500010 -0.564083
O13   O     O_R   0.060080 0.508090 0.620570 -0.590658
O14   O     O_R   0.939890 0.387530 0.379440 -0.568567
O15   O     O_R   0.060110 0.612470 0.620560 -0.567543
O16   O     O_R   0.625100 0.534890 0.569750 -0.582424
O17   O     O_R   0.374900 0.465110 0.430250 -0.580359
O18   O     O_2   0.983382 0.343677 0.193250 -0.320653
O19   O     O_2   0.977764 0.262418 0.066604 -0.204482
O20   O     O_3   0.933762 0.377346 0.083260 -0.513714
O21   O     O_2   0.022423 0.740024 0.933226 -0.209682
O22   O     O_2   0.016718 0.657505 0.806802 -0.320271
O23   O     O_R   0.555310 0.465120 0.430190 -0.581696
O24   O     O_3   0.065441 0.624783 0.917503 -0.512678
O25   O     O_2   0.373985 0.038147 0.318380 -0.312529
O26   O     O_2   0.292268 0.015829 0.357384 -0.283047
O27   O     O_3   0.240989 0.048916 0.247160 -0.493514
O28   O     O_2   0.707372 0.983496 0.641357 -0.224390
O29   O     O_2   0.626627 0.962196 0.681975 -0.351537
O30   O     O_3   0.760185 0.951513 0.751847 -0.487846
O31   O     O_R   0.444690 0.534880 0.569810 -0.582939
O32   O     O_R   0.534910 0.444720 0.569790 -0.595654
O33   O     O_R   0.465090 0.555280 0.430210 -0.593818
O34   O     O_R   0.465120 0.374940 0.430230 -0.561787
O35   O     O_R   0.534880 0.625060 0.569770 -0.567469
O36   O     O_R   0.552200 0.090180 0.499980 -0.598065
S1    S     S_3+6 0.938338 0.309783 0.100704 0.041932
S2    S     S_3+6 0.061608 0.691892 0.899439 0.040930
S3    S     S_3+6 0.316208 0.061815 0.335075 0.017492
S4    S     S_3+6 0.683878 0.938097 0.664451 0.017241

loop_
_geom_bond_atom_site_label_1
_geom_bond_atom_site_label_2
_ccdc_geom_bond_type
C50   O17   A    
C70   H43   S    
Cu3   O10   S    
C63   C65   A    
C9    C45   S    
C44   O7    A    
C40   C60   A    
O29   S4    D    
C27   C29   A    
C50   C65   S    
C14   C18   A    
C2    C4    S    
O19   S1    D    
C41   C61   A    
C40   H9    S    
O24   S2    S    
C72   H28   S    
Cu3   Cu4   S    
C61   H12   S    
C3    S1    S    
C54   C65   A    
C15   C19   A    
C74   H35   S    
Cu5   O35   S    
C55   H18   S    
C59   H21   S    
Cu2   O5    S    
H38   O20   S    
C49   O23   A    
C19   C21   A    
C24   C26   A    
C38   C42   A    
C31   H46   S    
C35   H13   S    
C53   C64   A    
C57   C59   A    
C54   C68   A    
Cu1   O2    S    
C58   C60   A    
O21   S2    D    
C72   H30   S    
O26   S3    D    
C33   C36   A    
Cu2   O4    S    
C71   H29   S    
C51   O32   A    
C11   C16   S    
C63   H15   S    
C70   H26   S    
O27   S3    S    
C62   H14   S    
C69   H25   S    
Cu5   Cu6   S    
C43   C68   A    
C56   C72   S    
C22   C25   A    
C71   H27   S    
C62   C64   A    
C22   H7    S    
C31   C33   A    
C14   C27   A    
C10   C56   S    
C2    C74   S    
C46   O8    A    
Cu3   O15   S    
Cu3   O11   S    
Cu5   O31   S    
Cu1   O1    S    
C75   H24   S    
C49   C64   S    
H40   O27   S    
C50   O31   A    
C4    H34   S    
C42   C44   S    
C14   S3    S    
Cu1   O3    S    
C16   O3    A    
C33   H11   S    
Cu2   O36   S    
O22   S2    D    
C39   H17   S    
C21   H6    S    
C57   H19   S    
C59   C61   A    
C73   H33   S    
C5    H36   S    
C45   C69   S    
C32   C35   A    
C23   C47   S    
C72   C74   S    
C19   H4    S    
C71   C73   S    
C37   C52   S    
O28   S4    D    
C39   C43   A    
C52   O33   A    
C3    C5    S    
C5    C45   S    
C47   O14   A    
C4    S2    S    
C15   S4    S    
C67   C69   S    
Cu3   O7    S    
Cu4   O9    S    
Cu1   O6    S    
C52   O35   A    
Cu5   O16   S    
Cu6   O23   S    
O25   S3    D    
H41   O30   S    
C41   H10   S    
C32   H2    S    
C48   O15   A    
C17   O6    A    
C1    C29   S    
C51   O34   A    
C26   C37   A    
C8    C34   T    
C3    C76   S    
C9    C11   T    
Cu6   O33   S    
Cu4   O14   S    
Cu5   O32   S    
C20   C22   A    
C69   H42   S    
C44   O9    A    
Cu2   O12   S    
C24   H8    S    
C73   C76   S    
C21   C24   A    
C4    C6    S    
C58   H20   S    
C57   C68   A    
C5    Cl1   S    
C36   C51   S    
C55   C66   A    
C45   C71   S    
C35   C37   A    
C46   O10   A    
Cu6   O17   S    
C12   O2    A    
C12   C30   S    
C26   C28   A    
C2    C8    S    
C6    C56   S    
Cu4   O13   S    
C1    O1    A    
C10   C13   T    
Cu6   O34   S    
C60   H1    S    
C67   H22   S    
C7    C76   S    
C25   C27   A    
C39   C63   A    
C20   H5    S    
C47   O11   A    
C56   C70   S    
C18   H3    S    
C73   H31   S    
C13   C17   S    
C3    H23   S    
C28   C30   A    
Cu4   O8    S    
C53   C66   A    
C74   H32   S    
C30   C32   A    
C38   H16   S    
C15   C28   A    
C1    O36   A    
C7    C23   T    
O20   S1    S    
C12   O12   A    
C49   O16   A    
C18   C20   A    
C43   C46   S    
C41   C54   A    
C6    Cl2   S    
C25   C36   A    
Cu1   Cu2   S    
C34   C48   S    
C48   O13   A    
C29   C31   A    
C40   C53   A    
C55   C58   A    
C17   O4    A    
C42   C66   A    
O18   S1    D    
O30   S4    S    
C70   C75   S    
C67   C76   S    
C6    H37   S    
C67   H44   S    
C16   O5    A    
C2    C75   S    
C75   H45   S    
C38   C62   A    
H39   O24   S    
