data_mof_unit_47393.cif
_audit_creation_date              2012-12-10T17:55:05-0500
_audit_creation_method            fapswitch 2.2
_symmetry_space_group_name_H-M    P1
_symmetry_Int_Tables_number       1
_space_group_crystal_system       triclinic
_cell_length_a                    8.729372
_cell_length_b                    10.833438
_cell_length_c                    9.587676
_cell_angle_alpha                 89.481904
_cell_angle_beta                  97.373265
_cell_angle_gamma                 91.432095
_cell_volume                      898.904204627

loop_
_atom_site_label
_atom_site_type_symbol
_atom_type_description
_atom_site_fract_x
_atom_site_fract_y
_atom_site_fract_z
_atom_type_partial_charge
C1    C     C_R   0.499745 0.262270 0.500297 0.790133
C2    C     C_R   0.500255 0.737730 0.499703 0.790133
C3    C     C_R   0.204147 0.499878 0.464184 0.882962
C4    C     C_R   0.795853 0.500122 0.535816 0.882962
C5    C     C_2   0.038521 0.500061 0.444372 -0.359435
C6    C     C_2   0.961479 0.499939 0.555628 -0.359435
C7    C     C_R   0.497932 0.064916 0.373239 -0.177047
C8    C     C_R   0.502068 0.935084 0.626761 -0.177046
C9    C     C_R   0.498210 0.937188 0.372866 -0.161985
C10   C     C_R   0.501790 0.062812 0.627134 -0.161985
C11   C     C_R   0.500250 0.871699 0.499605 -0.025623
C12   C     C_R   0.499750 0.128301 0.500394 -0.025623
C13   C     C_R   0.423821 0.409539 0.067878 -0.081356
C14   C     C_R   0.576179 0.590461 0.932122 -0.081356
C15   C     C_R   0.421679 0.409244 0.920192 0.475087
C16   C     C_R   0.578320 0.590756 0.079808 0.475087
Cu1   Cu    Cu3+1 0.500000 0.500020 0.640660 0.950709
Cu2   Cu    Cu3+1 0.500000 0.499980 0.359340 0.950709
H1    H     H_    0.496241 0.113713 0.273958 0.160397
H2    H     H_    0.503759 0.886287 0.726041 0.160397
H3    H     H_    0.361633 0.337622 0.117926 0.166557
H4    H     H_    0.638367 0.662378 0.882074 0.166557
N1    N     N_R   0.500040 0.500030 0.852080 -0.246568
N2    N     N_R   0.499960 0.499970 0.147920 -0.246567
O1    O     O_R   0.499990 0.319660 0.618740 -0.579438
O2    O     O_R   0.500010 0.680340 0.381260 -0.579437
O3    O     O_R   0.499990 0.319630 0.381170 -0.595689
O4    O     O_R   0.500010 0.680370 0.618830 -0.595689
O5    O     O_R   0.274840 0.500010 0.591370 -0.602714
O6    O     O_R   0.725160 0.499990 0.408630 -0.602714
O7    O     O_R   0.274830 0.499980 0.353800 -0.578082
O8    O     O_R   0.725170 0.500020 0.646200 -0.578082
H5    H     H_    0.979672 0.500378 0.337298 0.181586
H6    H     H_    0.020328 0.499622 0.662702 0.181586
H7    H     H_    0.496669 0.890058 0.273525 0.187066
H8    H     H_    0.503331 0.109942 0.726475 0.187065
O9    O     O_3   0.338620 0.314464 0.849665 -0.754196
H9    H     H_    0.298948 0.344285 0.755382 0.367633
O10   O     O_3   0.661378 0.685536 0.150335 -0.754194
H10   H     H_    0.701053 0.655715 0.244618 0.367632

loop_
_geom_bond_atom_site_label_1
_geom_bond_atom_site_label_2
_ccdc_geom_bond_type
C14   N1    A    
C3    O7    A    
O9    H9    S    
Cu2   O6    S    
Cu1   O5    S    
Cu2   O2    S    
Cu1   O1    S    
C14   H4    S    
C15   N1    A    
Cu1   Cu2   S    
C13   H3    S    
C16   N2    A    
Cu1   N1    S    
C1    O1    A    
C9    C11   A    
C1    O3    A    
C4    O8    A    
C1    C12   S    
C10   C12   A    
C8    H2    S    
C8    C11   A    
Cu2   N2    S    
C2    C11   S    
C8    C10   A    
C10   H8    S    
C7    H1    S    
C13   C15   A    
C5    C6    D    
C14   C16   A    
C7    C12   A    
C4    C6    S    
C16   O10   S    
C9    H7    S    
C7    C9    A    
C2    O2    A    
O10   H10   S    
C3    O5    A    
Cu1   O8    S    
C15   O9    S    
C2    O4    A    
Cu2   O7    S    
Cu1   O4    S    
C4    O6    A    
Cu2   O3    S    
C6    H6    S    
C13   N2    A    
C3    C5    S    
C5    H5    S    
