data_mof_unit_49675.cif
_audit_creation_date              2012-12-10T17:03:00-0500
_audit_creation_method            fapswitch 2.2
_symmetry_space_group_name_H-M    P1
_symmetry_Int_Tables_number       1
_space_group_crystal_system       triclinic
_cell_length_a                    9.801526
_cell_length_b                    11.036348
_cell_length_c                    13.501705
_cell_angle_alpha                 94.054265
_cell_angle_beta                  82.383439
_cell_angle_gamma                 111.235291
_cell_volume                      1348.93457001

loop_
_atom_site_label
_atom_site_type_symbol
_atom_type_description
_atom_site_fract_x
_atom_site_fract_y
_atom_site_fract_z
_atom_type_partial_charge
C1    C     C_R   0.557650 0.745991 0.503848 0.837138
C2    C     C_R   0.448783 0.514692 0.970932 0.068669
C3    C     C_R   0.491083 0.543882 0.868669 0.008635
C4    C     C_R   0.559042 0.549898 0.037122 -0.085524
C5    C     C_R   0.709700 0.586892 0.998179 -0.067393
C6    C     C_R   0.749761 0.631913 0.899671 0.437431
C7    C     C_R   0.640312 0.618117 0.838879 -0.175460
C8    C     C_R   0.524465 0.552718 0.140971 0.332370
C9    C     C_R   0.765508 0.550356 0.161279 -0.343389
C10   C     C_R   0.383518 0.496848 0.799809 -0.154275
C11   C     C_2   0.589268 0.885960 0.505093 0.106272
C12   C     C_R   0.425443 0.496606 0.690594 0.811951
C13   C     C_2   0.507989 0.936512 0.459240 0.318700
C14   C     C_2   0.417976 0.116448 0.477785 -0.299533
C15   C     C_2   0.530896 0.074573 0.471715 -0.133384
C16   C     C_2   0.922401 0.488437 0.493855 0.103274
C17   C     C_2   0.077047 0.505839 0.511828 0.023762
C18   C     C_R   0.444592 0.254599 0.490604 0.853511
C19   C     C_R   0.577897 0.518294 0.310150 0.872544
C20   C     C_R   0.814129 0.583679 0.060478 0.556540
C21   C     C_R   0.623549 0.540721 0.202871 -0.175441
C22   C     C_R   0.234912 0.433572 0.835854 -0.181170
C23   C     C_R   0.193629 0.405535 0.936511 0.441113
C24   C     C_R   0.299808 0.441146 0.002647 -0.172311
Cu1   Cu    Cu3+1 0.362000 0.479240 0.482530 1.035663
Cu2   Cu    Cu3+1 0.638000 0.520760 0.517470 1.015425
H1    H     H_    0.839502 0.536000 0.208124 0.182277
H2    H     H_    0.306271 0.049353 0.471947 0.193890
H3    H     H_    0.126765 0.569955 0.572184 0.201805
H4    H     H_    0.874821 0.422985 0.433470 0.089030
H5    H     H_    0.106737 0.389076 0.398206 0.211836
H6    H     H_    0.151481 0.398343 0.784915 0.203463
H7    H     H_    0.265049 0.405797 0.077871 0.200122
H8    H     H_    0.674682 0.666033 0.768183 0.200792
H9    H     H_    0.641754 0.142785 0.478639 0.201920
N1    N     N_2   0.845330 0.551960 0.543750 0.006130
N2    N     N_2   0.154690 0.448120 0.456210 -0.282070
O1    O     O_R   0.426290 0.668220 0.490680 -0.540952
O2    O     O_R   0.659360 0.703290 0.520190 -0.583696
O3    O     O_R   0.326580 0.473880 0.629020 -0.586075
O4    O     O_R   0.559660 0.508940 0.658530 -0.551084
O5    O     O_R   0.340640 0.296710 0.479810 -0.564536
O6    O     O_R   0.573710 0.331780 0.509320 -0.583835
O7    O     O_R   0.440340 0.491060 0.341470 -0.514920
O8    O     O_R   0.673420 0.526120 0.370980 -0.617737
Cl1   Cl    Cl    0.375218 0.844010 0.379219 -0.558096
Cl2   Cl    Cl    0.731239 0.984779 0.575633 -0.643907
O9    O     O_3   0.903098 0.623673 0.623263 -0.488367
C25   C     C_3   0.942301 0.755664 0.600941 -0.002902
H10   H     H_    0.855592 0.792185 0.636394 0.201908
H11   H     H_    0.964326 0.775063 0.519266 0.139051
H12   H     H_    0.045214 0.812320 0.633987 0.167315
Cl3   Cl    Cl    0.933234 0.720472 0.852096 -0.536815
O10   O     O_3   0.954918 0.593388 0.018226 -0.519681
C26   C     C_3   0.063759 0.672924 0.077390 -0.106454
H13   H     H_    0.077215 0.615835 0.137439 0.183314
H14   H     H_    0.040526 0.760364 0.109174 0.148509
H15   H     H_    0.170672 0.707858 0.029290 0.215027
Cl4   Cl    Cl    0.381146 0.610580 0.190399 -0.572615
Cl5   Cl    Cl    0.009254 0.315777 0.978681 -0.527767

loop_
_geom_bond_atom_site_label_1
_geom_bond_atom_site_label_2
_ccdc_geom_bond_type
Cu1   O5    S    
C12   O3    A    
C2    C4    A    
C23   C24   A    
C19   O8    A    
C12   O4    A    
Cu1   O1    S    
C17   H3    S    
C14   C18   S    
C9    C20   A    
C11   Cl2   S    
C24   H7    S    
C1    C11   S    
C13   C15   S    
C4    C8    A    
C25   H12   S    
Cu1   N2    S    
C26   H13   S    
C26   H14   S    
C2    C3    A    
Cu1   O3    S    
C3    C10   A    
C17   N2    D    
C18   O6    A    
C16   N1    D    
C11   C13   D    
C9    C21   A    
C13   Cl1   S    
C10   C12   S    
C1    O1    A    
C5    C6    A    
Cu1   O7    S    
C15   H9    S    
O9    C25   S    
C19   C21   S    
Cu2   O6    S    
N1    O9    S    
C6    C7    A    
C3    C7    A    
C18   O5    A    
C8    Cl4   S    
C2    C24   A    
C23   Cl5   S    
C7    H8    S    
Cu2   O2    S    
C1    O2    A    
C6    Cl3   S    
C16   H4    S    
C22   H6    S    
C19   O7    A    
C9    H1    S    
C20   O10   S    
C25   H10   S    
C26   H15   S    
Cu2   N1    S    
C5    C20   A    
O10   C26   S    
C16   C17   S    
Cu2   O8    S    
C14   H2    S    
Cu1   Cu2   S    
C14   C15   D    
C22   C23   A    
C10   C22   A    
H5    N2    S    
Cu2   O4    S    
C4    C5    A    
C25   H11   S    
C8    C21   A    
