data_mof_unit_55820.cif
_audit_creation_date              2012-12-11T21:09:53-0500
_audit_creation_method            fapswitch 2.2
_symmetry_space_group_name_H-M    P1
_symmetry_Int_Tables_number       1
_space_group_crystal_system       triclinic
_cell_length_a                    8.489795
_cell_length_b                    19.065782
_cell_length_c                    26.801235
_cell_angle_alpha                 99.868446
_cell_angle_beta                  92.809539
_cell_angle_gamma                 88.329272
_cell_volume                      4267.89547989

loop_
_atom_site_label
_atom_site_type_symbol
_atom_type_description
_atom_site_fract_x
_atom_site_fract_y
_atom_site_fract_z
_atom_type_partial_charge
Ba1   Ba    Ba6+2 0.160260 0.465850 0.521400 1.658251
Ba2   Ba    Ba6+2 0.649930 0.534160 0.478640 1.651614
C1    C     C_3   0.455339 0.212455 0.685624 -0.177231
C2    C     C_R   0.991867 0.727394 0.518037 0.058109
C3    C     C_R   0.124770 0.812979 0.458136 -0.120516
C4    C     C_3   0.919197 0.296532 0.674686 0.327188
C5    C     C_R   0.192179 0.745462 0.461096 -0.021500
C6    C     C_R   0.692628 0.191287 0.546270 -0.146574
C7    C     C_R   0.619338 0.255825 0.538418 -0.025909
C8    C     C_R   0.869660 0.200628 0.480755 -0.143616
C9    C     C_R   0.828743 0.274191 0.485753 0.104573
C10   C     C_R   0.017450 0.846248 0.494569 0.028192
C11   C     C_R   0.115832 0.701336 0.487752 -0.225236
C12   C     C_3   0.464546 0.267813 0.649995 0.494704
C13   C     C_R   0.807633 0.156892 0.513467 -0.001172
C14   C     C_R   0.696591 0.299530 0.512052 -0.238453
C15   C     C_R   0.223819 0.964973 0.475890 -0.079599
C16   C     C_3   0.989122 0.231997 0.696967 0.195798
C17   C     C_R   0.316988 0.016486 0.462446 -0.095780
C18   C     C_R   0.277538 0.087052 0.477937 -0.076421
C19   C     C_R   0.136127 0.105348 0.501227 -0.077296
C20   C     C_R   0.018921 0.054545 0.500912 0.008644
C21   C     C_R   0.067531 0.980552 0.491396 0.037338
C22   C     C_R   0.861076 0.077374 0.512687 -0.023407
C23   C     C_3   0.448678 0.311277 0.402306 0.266007
C24   C     C_R   0.757526 0.022349 0.521223 0.037472
C25   C     C_R   0.806383 0.948238 0.511935 0.018760
C26   C     C_R   0.963202 0.925635 0.498405 -0.011480
C27   C     C_R   0.603153 0.037440 0.538727 -0.086349
C28   C     C_3   0.829640 0.625459 0.633464 0.305592
C29   C     C_R   0.513041 0.986036 0.554095 -0.087961
C30   C     C_R   0.553905 0.915325 0.540131 -0.070123
C31   C     C_R   0.691172 0.897207 0.514674 -0.072782
C32   C     C_R   0.391296 0.496677 0.186978 0.582396
C33   C     C_R   0.135570 0.544683 0.168156 0.580085
C34   C     C_3   0.426592 0.229238 0.389270 -0.057124
C35   C     C_2   0.104250 0.574613 0.280765 -0.126074
C36   C     C_3   0.076157 0.580779 0.336686 -0.122930
C37   C     C_1   0.269697 0.482034 0.336874 0.047379
C38   C     C_2   0.282056 0.472667 0.287298 -0.117529
C39   C     C_2   0.205326 0.524552 0.256632 0.204163
C40   C     C_3   0.840334 0.642533 0.691048 -0.350715
C41   C     C_R   0.321167 0.515377 0.101227 -0.088338
C42   C     C_R   0.424641 0.486474 0.135242 -0.026134
C43   C     C_R   0.560289 0.448655 0.116957 -0.043944
C44   C     C_R   0.179278 0.547910 0.118366 -0.051222
C45   C     C_3   0.883307 0.732609 0.361582 0.465631
C46   C     C_2   0.154306 0.521305 0.360039 -0.034743
C47   C     C_2   0.641853 0.477220 0.638141 -0.296172
C48   C     C_R   0.515814 0.457624 0.978526 0.018461
C49   C     C_R   0.334026 0.557730 0.970776 0.016964
C50   C     C_R   0.446620 0.506588 0.949472 0.049834
C51   C     C_R   0.611534 0.401576 0.954261 -0.119572
C52   C     C_3   0.890920 0.351257 0.353934 0.397853
C53   C     C_R   0.640841 0.395660 0.902936 -0.068240
C54   C     C_R   0.584960 0.448268 0.875227 -0.020838
C55   C     C_R   0.493683 0.505628 0.899324 -0.090296
C56   C     C_3   0.941680 0.768727 0.319021 -0.173167
C57   C     C_R   0.451085 0.562381 0.873795 -0.032135
C58   C     C_R   0.503887 0.561364 0.824480 0.577999
C59   C     C_R   0.615532 0.444014 0.823669 0.575021
C60   C     C_2   0.740438 0.464662 0.725570 -0.106403
C61   C     C_3   0.744320 0.435326 0.669726 -0.073309
C62   C     C_1   0.516766 0.512237 0.658287 0.075455
C63   C     C_2   0.480327 0.514845 0.706700 0.098931
C64   C     C_3   0.788212 0.318245 0.306953 -0.200959
C65   C     C_2   0.605025 0.494695 0.744402 0.188493
C66   C     C_R   0.489278 0.467823 0.031057 0.020265
C67   C     C_3   0.366494 0.745278 0.348640 0.395547
C68   C     C_R   0.360024 0.511481 0.049974 0.037019
C69   C     C_R   0.269161 0.550505 0.017742 0.003527
C70   C     C_R   0.589187 0.437271 0.065441 -0.108674
C71   C     C_R   0.079510 0.579160 0.084582 -0.064424
C72   C     C_R   0.300549 0.616562 0.946178 -0.122136
C73   C     C_R   0.359206 0.619161 0.898638 -0.064799
C74   C     C_R   0.118892 0.578961 0.034066 0.044925
C75   C     C_3   0.331278 0.681667 0.590111 0.315341
C76   C     C_3   0.330705 0.762352 0.604872 -0.383670
C77   C     C_3   0.737179 0.368807 0.269884 -0.209402
C78   C     C_3   0.358422 0.823422 0.341213 -0.367649
C79   C     C_3   0.873730 0.395566 0.243697 -0.329590
C80   C     C_3   0.574285 0.189570 0.365452 -0.197298
C81   C     C_3   0.607041 0.117116 0.381808 -0.438755
C82   C     C_3   0.273789 0.212451 0.355801 -0.162089
C83   C     C_3   0.226412 0.134557 0.346588 -0.441266
C84   C     C_3   0.460895 0.134320 0.657897 -0.198368
C85   C     C_3   0.448155 0.081320 0.694276 -0.443528
C86   C     C_3   0.853872 0.180665 0.702265 -0.228238
C87   C     C_3   0.896985 0.101097 0.698538 -0.422596
C88   C     C_3   0.816488 0.779162 0.277562 -0.175139
C89   C     C_R   0.961225 0.801484 0.527283 -0.164653
C90   C     C_3   0.884630 0.817448 0.238206 -0.439474
C91   C     C_3   0.422690 0.695594 0.300598 -0.142238
C92   C     C_3   0.346135 0.707726 0.249730 -0.511689
C93   C     C_3   0.989700 0.601175 0.998045 -0.227785
C94   C     C_3   0.837004 0.560828 0.998828 -0.407113
C95   C     C_3   0.068580 0.262239 0.750000 -0.144762
C96   C     C_3   0.128000 0.207564 0.782543 -0.449813
H1    H     H_    0.777134 0.693637 0.704351 0.128750
H2    H     H_    0.254736 0.779319 0.637540 0.122331
H3    H     H_    0.777212 0.577382 0.034987 0.134791
H4    H     H_    0.754779 0.572651 0.967704 0.132407
H5    H     H_    0.965155 0.659294 0.008225 0.106627
H6    H     H_    0.023004 0.589275 0.958091 0.122671
H7    H     H_    0.987640 0.486309 0.401872 0.188291
H8    H     H_    0.104384 0.552675 0.433749 0.191441
H9    H     H_    0.027620 0.181045 0.796045 0.138225
H10   H     H_    0.207798 0.167308 0.761746 0.131592
H11   H     H_    0.194918 0.235333 0.816504 0.129294
H12   H     H_    0.167797 0.296819 0.745518 0.118987
H13   H     H_    0.284652 0.787450 0.572577 0.062137
H14   H     H_    0.982166 0.297610 0.772753 0.112143
H15   H     H_    0.452658 0.780810 0.615403 0.126049
H16   H     H_    0.585498 0.263123 0.636116 -0.092601
H17   H     H_    0.551333 0.221647 0.715040 0.058842
H18   H     H_    0.570255 0.323935 0.417537 -0.039329
H19   H     H_    0.367182 0.332127 0.432650 0.083631
H20   H     H_    0.410658 0.211615 0.425922 0.089537
H21   H     H_    0.990358 0.714566 0.381570 -0.058925
H22   H     H_    0.992143 0.821017 0.336096 0.082924
H23   H     H_    0.785913 0.600005 0.707256 0.063463
H24   H     H_    0.037133 0.735063 0.300913 0.051535
H25   H     H_    0.247609 0.728695 0.356589 -0.066981
H26   H     H_    0.257073 0.833143 0.315411 0.083188
H27   H     H_    0.468132 0.837973 0.325082 0.096256
H28   H     H_    0.861975 0.277783 0.636642 -0.037974
H29   H     H_    0.345978 0.859450 0.377945 0.097550
H30   H     H_    0.887434 0.822698 0.558305 0.068033
H31   H     H_    0.157691 0.839015 0.427820 0.046732
H32   H     H_    0.659302 0.168955 0.577966 0.044159
H33   H     H_    0.952037 0.178999 0.452298 0.077823
H34   H     H_    0.965876 0.646839 0.704756 0.131661
H35   H     H_    0.161549 0.648174 0.488362 0.034213
H36   H     H_    0.648688 0.352221 0.509940 0.056940
H37   H     H_    0.284222 0.915308 0.476728 0.070996
H38   H     H_    0.431134 0.002019 0.446898 0.079890
H39   H     H_    0.362272 0.126591 0.474443 0.096290
H40   H     H_    0.827980 0.321627 0.700726 -0.035417
H41   H     H_    0.117915 0.159419 0.519530 0.133224
H42   H     H_    0.540571 0.086289 0.538051 0.067818
H43   H     H_    0.400082 0.000449 0.570500 0.076020
H44   H     H_    0.473754 0.874799 0.546048 0.096899
H45   H     H_    0.831619 0.400379 0.372321 0.082990
H46   H     H_    0.706582 0.842591 0.497729 0.124193
H47   H     H_    0.331631 0.422681 0.268167 0.088717
H48   H     H_    0.642030 0.425599 0.142201 0.106276
H49   H     H_    0.836867 0.451354 0.750644 0.114699
H50   H     H_    0.711515 0.350756 0.885387 0.113224
H51   H     H_    0.659691 0.360280 0.973938 0.068983
H52   H     H_    0.694789 0.407301 0.053541 0.067920
H53   H     H_    0.050494 0.615749 0.262153 0.123249
H54   H     H_    0.968331 0.603179 0.097465 0.120465
H55   H     H_    0.232431 0.661928 0.964182 0.071894
H56   H     H_    0.848903 0.270359 0.286100 0.095256
H57   H     H_    0.328954 0.664969 0.880862 0.117858
H58   H     H_    0.651183 0.463308 0.597388 0.076643
H59   H     H_    0.703986 0.620197 0.620684 0.013209
H60   H     H_    0.894944 0.574619 0.621062 0.065247
H61   H     H_    0.524199 0.347076 0.709257 0.156601
H62   H     H_    0.331247 0.345903 0.692357 0.215892
H63   H     H_    0.089933 0.322818 0.313616 0.161653
H64   H     H_    0.121130 0.371253 0.370822 0.178300
H65   H     H_    0.942540 0.434885 0.270682 0.151331
H66   H     H_    0.951936 0.350584 0.227448 0.101539
H67   H     H_    0.678516 0.299512 0.320358 0.105972
H68   H     H_    0.826731 0.422895 0.212603 0.162097
H69   H     H_    0.656706 0.339412 0.240032 0.109866
H70   H     H_    0.667950 0.414372 0.289547 0.194552
H71   H     H_    0.723156 0.095644 0.368170 0.127880
H72   H     H_    0.611290 0.122577 0.423717 0.128099
H73   H     H_    0.516764 0.077857 0.365873 0.136925
H74   H     H_    0.680547 0.221031 0.378115 0.122287
H75   H     H_    0.564176 0.182689 0.323404 0.118390
H76   H     H_    0.302047 0.102476 0.318218 0.131202
H77   H     H_    0.233450 0.112816 0.382361 0.144320
H78   H     H_    0.208699 0.664068 0.581142 0.006301
H79   H     H_    0.102718 0.130388 0.331017 0.124645
H80   H     H_    0.175882 0.243725 0.375130 0.150273
H81   H     H_    0.285005 0.229062 0.318383 0.125044
H82   H     H_    0.525989 0.096376 0.728731 0.140401
H83   H     H_    0.325459 0.078473 0.705784 0.121052
H84   H     H_    0.484204 0.027310 0.675105 0.131706
H85   H     H_    0.366071 0.124622 0.627698 0.142292
H86   H     H_    0.572485 0.121901 0.638811 0.108153
H87   H     H_    0.927396 0.077688 0.659231 0.127444
H88   H     H_    0.996037 0.091546 0.725078 0.132049
H89   H     H_    0.403450 0.666725 0.556289 0.082825
H90   H     H_    0.793998 0.072217 0.707898 0.132774
H91   H     H_    0.795964 0.198920 0.738611 0.116425
H92   H     H_    0.767760 0.183871 0.670784 0.082090
H93   H     H_    0.709181 0.808832 0.381029 0.201017
H94   H     H_    0.760182 0.758199 0.425772 0.220184
H95   H     H_    0.984709 0.785918 0.219880 0.141093
H96   H     H_    0.792070 0.824152 0.208558 0.128328
H97   H     H_    0.926301 0.870907 0.256315 0.131730
H98   H     H_    0.774366 0.726533 0.257879 0.150556
H99   H     H_    0.715454 0.811223 0.294372 0.104638
H100  H     H_    0.349617 0.222543 0.707570 0.127632
H101  H     H_    0.394563 0.667601 0.218947 0.151725
H102  H     H_    0.217534 0.701679 0.248116 0.134681
H103  H     H_    0.373792 0.761181 0.241833 0.136186
H104  H     H_    0.549421 0.702991 0.297555 0.168028
H105  H     H_    0.407297 0.639415 0.305094 0.113669
H106  H     H_    0.147483 0.150784 0.673451 0.175437
H107  H     H_    0.046159 0.179810 0.625779 0.174294
H108  H     H_    0.299021 0.501169 0.751675 0.175170
H109  H     H_    0.294624 0.579414 0.729195 0.210940
H110  H     H_    0.862063 0.502565 0.993039 0.142344
N1    N     N_R   0.243829 0.522228 0.203331 -0.419906
N2    N     N_R   0.576462 0.500666 0.798457 -0.423174
N3    N     N_3   0.443865 0.340004 0.678110 -0.496983
N4    N     N_3   0.046398 0.366533 0.338513 -0.536938
N5    N     N_3   0.803690 0.784982 0.398629 -0.510138
N6    N     N_3   0.102985 0.196538 0.661218 -0.446510
N7    N     N_3   0.318979 0.524791 0.720226 -0.424773
N8    N     N_3   0.100477 0.506420 0.406842 -0.453020
O1    O     O_2   0.103290 0.325410 0.465600 -0.465253
O2    O     O_2   0.752687 0.537315 0.323379 -0.458389
O3    O     O_3   0.780624 0.676302 0.341900 -0.583550
O4    O     O_3   0.857760 0.414170 0.470020 -0.496416
O5    O     O_3   0.459840 0.537690 0.560170 -0.502593
O6    O     O_2   0.582520 0.462630 0.379680 -0.474009
O7    O     O_3   0.415694 0.343595 0.359376 -0.671588
O8    O     O_2   0.506724 0.754578 0.486457 -0.506562
O9    O     O_3   0.478905 0.739729 0.388469 -0.582159
O10   O     O_2   0.495256 0.483750 0.217418 -0.603197
O11   O     O_2   0.674365 0.389139 0.801056 -0.636218
O12   O     O_3   0.394386 0.651593 0.630998 -0.633882
O13   O     O_2   0.999708 0.559978 0.179392 -0.606295
O14   O     O_2   0.484845 0.614314 0.804700 -0.607337
O15   O     O_3   0.374170 0.371120 0.556000 -0.442471
O16   O     O_2   0.301332 0.246356 0.512432 -0.515686
O17   O     O_3   0.908635 0.300920 0.386351 -0.676052
O18   O     O_3   0.346950 0.255265 0.610415 -0.552249
O19   O     O_2   0.227790 0.537410 0.620340 -0.428724
O20   O     O_3   0.969630 0.407570 0.582610 -0.453821
O21   O     O_2   0.049733 0.482105 0.672657 -0.465021
O22   O     O_3   0.038153 0.345151 0.670039 -0.576333
O23   O     O_2   0.707020 0.674640 0.534420 -0.463069
O24   O     O_3   0.952550 0.585840 0.530020 -0.494951
O25   O     O_3   0.436140 0.628890 0.444040 -0.444367
O26   O     O_3   0.895697 0.681368 0.614584 -0.633799
O27   O     O_3   0.350480 0.462320 0.439870 -0.451810
O28   O     O_3   0.840680 0.592440 0.417430 -0.473611
P1    P     P_3+3 0.926760 0.336170 0.451740 0.959167
P2    P     P_3+3 0.399470 0.558680 0.614150 1.000642
P3    P     P_3+3 0.948538 0.418672 0.648069 0.977220
P4    P     P_3+3 0.883550 0.663840 0.548300 0.977496
P5    P     P_3+3 0.862373 0.594807 0.353142 0.981937
P6    P     P_3+3 0.414472 0.281217 0.555606 0.962985
P7    P     P_3+3 0.406450 0.436815 0.376973 0.950038
P8    P     P_3+3 0.396199 0.718693 0.442657 0.929245

loop_
_geom_bond_atom_site_label_1
_geom_bond_atom_site_label_2
_ccdc_geom_bond_type
H108  N7    S    
C28   H59   S    
C51   H51   S    
C53   C54   A    
C46   N8    S    
C4    H40   S    
C91   C92   S    
C47   C61   S    
C94   H4    S    
C24   C27   A    
C60   C65   D    
C87   H88   S    
C47   H58   S    
C17   C18   A    
C49   C72   A    
O4    P1    S    
C90   H97   S    
C14   H36   S    
O18   P6    S    
C85   H84   S    
C95   C96   S    
C96   H10   S    
C88   H99   S    
C75   C76   S    
C25   C31   A    
C86   H92   S    
C64   C77   S    
C4    O22   S    
C24   C25   A    
C59   O11   D    
C12   N3    S    
C10   C26   S    
C58   O14   D    
C32   O10   D    
C7    C14   A    
O1    P1    D    
Ba1   Ba2   S    
C90   H96   S    
C8    C13   A    
C74   C93   S    
C69   C74   A    
Ba2   O23   S    
C55   C57   A    
C36   P5    S    
O12   P2    S    
O5    P2    S    
C67   H25   S    
Ba1   O20   S    
C81   H72   S    
H106  N6    S    
Ba2   O6    S    
C1    H100  S    
H61   N3    S    
C54   C55   A    
O21   P3    D    
C65   N2    S    
Ba1   O5    S    
C92   H101  S    
O3    P5    S    
C2    C11   A    
C27   H42   S    
Ba2   P4    S    
C8    H33   S    
C2    P4    S    
C48   C66   A    
Ba1   O27   S    
C83   H77   S    
C85   H82   S    
C88   H98   S    
C93   C94   S    
C34   C80   S    
C6    C7    A    
C63   C65   S    
C81   H73   S    
O22   P3    S    
C15   H37   S    
C48   C50   A    
C79   H68   S    
C68   C69   A    
C16   C95   S    
C77   H70   S    
C34   H20   S    
Ba2   O27   S    
O19   P2    D    
C36   C46   S    
C2    C89   A    
C39   N1    S    
O6    P7    D    
C3    H31   S    
C52   H45   S    
C8    C9    A    
C57   C58   A    
C31   H46   S    
C47   C62   D    
C94   H3    S    
C43   C70   A    
Ba2   O4    S    
C79   H65   S    
O20   P3    S    
C16   N6    S    
O25   P8    S    
C49   C69   A    
C35   H53   S    
H109  N7    S    
Ba1   O19   S    
C41   C44   A    
C93   H5    S    
C51   C53   A    
Ba1   O24   S    
C86   H91   S    
C4    C16   S    
H63   N4    S    
C80   H74   S    
C56   H24   S    
C48   C51   A    
O27   P7    S    
O28   P5    S    
Ba2   O24   S    
C49   C50   A    
C9    P1    S    
C32   C42   A    
C82   C83   S    
C4    H28   S    
C3    C10   A    
C90   H95   S    
C89   H30   S    
C23   H18   S    
C37   C38   D    
C3    C5    A    
C95   H14   S    
C84   C85   S    
C40   H34   S    
C17   H38   S    
C12   H16   S    
C45   O3    S    
Ba2   O5    S    
O26   P4    S    
C96   H9    S    
C43   H48   S    
C72   H55   S    
C23   H19   S    
O23   P4    D    
C33   O13   D    
C18   H39   S    
C29   H43   S    
C82   H81   S    
C1    C84   S    
C41   C42   A    
C1    H17   S    
C71   C74   A    
C35   C36   S    
C32   N1    Am   
C9    C14   A    
Ba1   O15   S    
C88   C90   S    
C29   C30   A    
C80   H75   S    
C66   C70   A    
C60   C61   S    
C56   H22   S    
C83   H76   S    
C10   C89   A    
C37   P7    S    
C92   H103  S    
C15   C21   A    
C21   C26   A    
C86   C87   S    
C82   H80   S    
C91   H104  S    
C56   C88   S    
C76   H13   S    
C1    C12   S    
C45   N5    S    
C95   H12   S    
C38   H47   S    
C66   C68   A    
C38   C39   S    
C96   H11   S    
H107  N6    S    
C6    C13   A    
C70   H52   S    
C60   H49   S    
C71   H54   S    
C76   H2    S    
C84   H85   S    
C75   H89   S    
C87   H90   S    
C20   C22   A    
C76   H15   S    
O16   P6    D    
C19   H41   S    
C57   C73   A    
H94   N5    S    
C12   O18   S    
C61   P3    S    
C42   C43   A    
C64   H56   S    
C78   H26   S    
O7    P7    S    
C28   H60   S    
H62   N3    S    
C13   C22   S    
C64   H67   S    
C30   H44   S    
C54   C59   A    
C11   H35   S    
C84   H86   S    
C22   C24   A    
C67   O9    S    
C85   H83   S    
C28   O26   S    
C77   C79   S    
C63   N7    S    
C52   C64   S    
C78   H29   S    
C79   H66   S    
C41   C68   A    
H8    N8    S    
C67   C91   S    
C52   O17   S    
C5    P8    S    
Ba1   P2    S    
C87   H87   S    
C62   C63   D    
H7    N8    S    
C7    P6    S    
C33   N1    Am   
C27   C29   A    
Ba1   P1    S    
C40   H1    S    
H93   N5    S    
C93   H6    S    
C6    H32   S    
O9    P8    S    
O15   P6    S    
O17   P1    S    
C53   H50   S    
H64   N4    S    
C34   C82   S    
C45   H21   S    
C81   H71   S    
C52   N4    S    
C15   C17   A    
C58   N2    Am   
C23   O7    S    
Ba1   O4    S    
C92   H102  S    
C59   N2    Am   
C35   C39   D    
C30   C31   A    
C91   H105  S    
Ba2   O25   S    
C16   C86   S    
C94   H110  S    
C50   C55   A    
O8    P8    D    
C23   C34   S    
O2    P5    D    
C73   H57   S    
C5    C11   A    
C62   P2    S    
C18   C19   A    
C75   O12   S    
C83   H79   S    
C80   C81   S    
C78   H27   S    
C25   C26   A    
O24   P4    S    
C20   C21   A    
C28   C40   S    
C67   C78   S    
Ba1   O1    S    
C75   H78   S    
C77   H69   S    
C19   C20   A    
C33   C44   A    
Ba2   O28   S    
C44   C71   A    
C72   C73   A    
C40   H23   S    
C37   C46   D    
C45   C56   S    
