data_mof_unit_58611.cif
_audit_creation_date              2012-12-10T17:08:13-0500
_audit_creation_method            fapswitch 2.2
_symmetry_space_group_name_H-M    P1
_symmetry_Int_Tables_number       1
_space_group_crystal_system       triclinic
_cell_length_a                    23.49564
_cell_length_b                    11.039731
_cell_length_c                    9.910098
_cell_angle_alpha                 112.227094
_cell_angle_beta                  97.188159
_cell_angle_gamma                 92.079885
_cell_volume                      2351.01547894

loop_
_atom_site_label
_atom_site_type_symbol
_atom_type_description
_atom_site_fract_x
_atom_site_fract_y
_atom_site_fract_z
_atom_type_partial_charge
C1    C     C_R   0.494874 0.253200 0.439067 0.850461
C2    C     C_R   0.504130 0.746715 0.561153 0.842260
C3    C     C_R   0.233292 0.379441 0.406203 -0.029137
C4    C     C_R   0.753358 0.385478 0.395386 -0.046226
C5    C     C_R   0.293495 0.383039 0.409950 -0.223027
C6    C     C_R   0.693360 0.387486 0.395880 -0.118764
C7    C     C_R   0.329035 0.496485 0.505993 -0.174126
C8    C     C_R   0.671057 0.499851 0.492289 -0.186802
C9    C     C_R   0.304769 0.606054 0.601314 -0.090220
C10   C     C_R   0.708366 0.612320 0.583721 -0.121944
C11   C     C_R   0.244623 0.601599 0.600428 -0.044266
C12   C     C_R   0.768171 0.612231 0.578708 -0.042627
C13   C     C_R   0.209172 0.488939 0.501660 0.201709
C14   C     C_R   0.790385 0.497961 0.486597 0.189116
C15   C     C_2   0.490466 0.111049 0.403005 -0.201948
C16   C     C_2   0.508174 0.888960 0.599527 -0.203811
C17   C     C_2   0.508427 0.070550 0.512054 -0.135991
C18   C     C_2   0.509775 0.932451 0.490275 -0.118571
C19   C     C_2   0.508835 0.499845 0.076113 -0.003825
C20   C     C_2   0.493527 0.491185 0.919771 0.021815
C21   C     C_R   0.391421 0.500717 0.502369 0.794025
C22   C     C_R   0.608659 0.499766 0.497721 0.878631
C23   C     C_R   0.876744 0.536907 0.393332 0.620433
C24   C     C_R   0.122834 0.449881 0.594877 0.621290
C25   C     C_R   0.883063 0.451261 0.582667 0.616457
C26   C     C_R   0.115773 0.523455 0.395796 0.618227
C27   C     C_R   0.942886 0.449552 0.587357 -0.016512
C28   C     C_R   0.056029 0.526517 0.392203 -0.015242
C29   C     C_R   0.969504 0.490361 0.489975 -0.008759
C30   C     C_R   0.029575 0.488349 0.491711 -0.007311
C31   C     C_R   0.936223 0.533511 0.391139 -0.018338
C32   C     C_R   0.063064 0.448585 0.593278 -0.016335
C33   C     C_R   0.976589 0.408741 0.687072 -0.138492
C34   C     C_R   0.022339 0.567636 0.292740 -0.137654
C35   C     C_R   0.036131 0.408999 0.690595 -0.131645
C36   C     C_R   0.963077 0.571869 0.292833 -0.128692
Cu1   Cu    Cu3+1 0.509980 0.521810 0.644910 1.069669
Cu2   Cu    Cu3+1 0.490020 0.478190 0.355090 1.056171
H1    H     H_    0.957146 0.377324 0.763326 0.195984
H2    H     H_    0.041685 0.597554 0.215278 0.196487
H3    H     H_    0.060918 0.377792 0.769468 0.200016
H4    H     H_    0.938396 0.604834 0.215378 0.202773
N1    N     N_R   0.851519 0.495336 0.487449 -0.458596
N2    N     N_R   0.147764 0.486661 0.496882 -0.456185
N3    N     N_2   0.475010 0.445410 0.137370 -0.309495
N4    N     N_2   0.524990 0.554590 0.862630 -0.306103
O1    O     O_R   0.505330 0.332340 0.577400 -0.565852
O2    O     O_R   0.494670 0.667660 0.422600 -0.551397
O3    O     O_R   0.488470 0.295500 0.332650 -0.537224
O4    O     O_R   0.511530 0.704500 0.667350 -0.547200
O5    O     O_R   0.426310 0.518390 0.622390 -0.533430
O6    O     O_R   0.573690 0.481610 0.377610 -0.568232
O7    O     O_R   0.409450 0.481550 0.377650 -0.580149
O8    O     O_R   0.590550 0.518450 0.622350 -0.563307
O9    O     O_2   0.844194 0.580253 0.301657 -0.490285
O10   O     O_2   0.155862 0.414284 0.692816 -0.492539
O11   O     O_2   0.856545 0.410467 0.673196 -0.490139
O12   O     O_2   0.141928 0.558366 0.300516 -0.496559
H5    H     H_    0.561149 0.613088 0.926966 0.220031
H6    H     H_    0.435631 0.399776 0.078655 0.228189
C37   C     C_2   0.195337 0.261618 0.301996 0.891651
O13   O     O_2   0.154805 0.219168 0.342618 -0.557184
O14   O     O_R   0.205938 0.199256 0.156960 -0.722731
H7    H     H_    0.177366 0.120368 0.097134 0.354653
C38   C     C_2   0.777918 0.263692 0.304677 0.917380
O15   O     O_2   0.815288 0.269365 0.231259 -0.553924
O16   O     O_R   0.758201 0.142253 0.303689 -0.706337
H8    H     H_    0.777992 0.066849 0.237861 0.366322
C39   C     C_2   0.320010 0.264593 0.319918 0.938376
O17   O     O_2   0.330526 0.179953 0.368246 -0.512920
O18   O     O_R   0.333230 0.248637 0.180916 -0.666366
H9    H     H_    0.322156 0.324196 0.151678 0.326548
C40   C     C_2   0.654025 0.271460 0.295690 0.944871
O19   O     O_2   0.655044 0.229225 0.162830 -0.522834
O20   O     O_R   0.616918 0.209042 0.353760 -0.756223
H10   H     H_    0.593749 0.128842 0.274737 0.344047
C41   C     C_2   0.341195 0.730130 0.692010 0.908767
O21   O     O_2   0.379746 0.732757 0.788355 -0.500238
O22   O     O_R   0.329700 0.845079 0.669718 -0.715399
H11   H     H_    0.356330 0.924062 0.739717 0.379615
C42   C     C_2   0.684772 0.730210 0.684690 0.930338
O23   O     O_2   0.704702 0.778139 0.815746 -0.536596
O24   O     O_R   0.640272 0.786946 0.629311 -0.744513
H12   H     H_    0.628739 0.867920 0.708376 0.354048
C43   C     C_2   0.218693 0.713851 0.705108 0.916076
O25   O     O_2   0.174665 0.753393 0.663282 -0.560355
O26   O     O_R   0.244906 0.774451 0.852060 -0.705759
H13   H     H_    0.223507 0.849635 0.912217 0.360715
C44   C     C_2   0.807516 0.733234 0.665099 0.915205
O27   O     O_2   0.852928 0.727196 0.736434 -0.563172
O28   O     O_R   0.792481 0.854379 0.664227 -0.706249
H14   H     H_    0.822529 0.929308 0.726963 0.361801
H15   H     H_    0.510173 0.862916 0.378711 0.234363
H16   H     H_    0.524725 0.142642 0.620907 0.244968
C45   C     C_2   0.509135 0.977972 0.756300 0.890906
O29   O     O_2   0.473725 0.955852 0.826418 -0.511730
O30   O     O_R   0.551828 0.082599 0.825593 -0.726121
H17   H     H_    0.547828 0.134793 0.932388 0.376835
C46   C     C_2   0.464584 0.018917 0.251748 0.907417
O31   O     O_2   0.474312 0.041105 0.144576 -0.521434
O32   O     O_R   0.427587 0.909452 0.232064 -0.708982
H18   H     H_    0.412661 0.855254 0.124362 0.382385
C47   C     C_2   0.440485 0.409124 0.832694 0.921829
O33   O     O_2   0.441810 0.290984 0.766634 -0.586282
O34   O     O_R   0.387905 0.464861 0.839985 -0.716707
H19   H     H_    0.354232 0.398575 0.779506 0.349026
C48   C     C_2   0.565810 0.565283 0.155590 0.919894
O35   O     O_2   0.570681 0.680433 0.240070 -0.583334
O36   O     O_R   0.614613 0.496702 0.125977 -0.721419
H20   H     H_    0.651469 0.551711 0.185214 0.351985

loop_
_geom_bond_atom_site_label_1
_geom_bond_atom_site_label_2
_ccdc_geom_bond_type
C21   O7    A    
O26   H13   S    
N3    H6    S    
O32   H18   S    
N4    H5    S    
C27   C29   A    
C48   O36   S    
C40   O19   D    
C36   H4    S    
C45   O29   D    
C25   N1    A    
O30   H17   S    
C26   N2    A    
C22   O8    A    
C20   C47   S    
C43   O25   D    
C27   C33   A    
C33   H1    S    
C34   H2    S    
Cu1   Cu2   S    
C4    C38   S    
Cu1   O5    S    
Cu2   O6    S    
C23   N1    A    
C15   C17   D    
C39   O18   S    
Cu2   N3    S    
C5    C39   S    
C2    O4    A    
O24   H12   S    
C38   O16   S    
C8    C22   S    
C48   O35   D    
C1    C15   S    
Cu1   O1    S    
C2    C16   S    
Cu2   O2    S    
C3    C13   A    
C41   O21   D    
C3    C37   S    
C28   C34   A    
C40   O20   S    
C39   O17   D    
C25   O11   S    
C42   O24   S    
C42   O23   D    
C41   O22   S    
C43   O26   S    
O16   H8    S    
C32   C35   A    
C12   C44   S    
C4    C6    A    
O28   H14   S    
C5    C7    A    
C1    O1    A    
C6    C8    A    
C2    O2    A    
C7    C21   S    
O22   H11   S    
C23   C31   A    
O20   H10   S    
C24   C32   A    
C29   C30   A    
C26   O12   S    
C46   O31   D    
C37   O14   S    
C17   C18   S    
C47   O34   S    
C9    C41   S    
C9    C11   A    
C10   C12   A    
Cu1   O8    S    
C8    C10   A    
C46   O32   S    
C12   C14   A    
C38   O15   D    
C24   N2    A    
C24   O10   S    
C21   O5    A    
Cu2   O3    S    
C6    C40   S    
C22   O6    A    
C7    C9    A    
C45   O30   S    
C16   C45   S    
C15   C46   S    
C3    C5    A    
C19   N3    D    
C23   O9    S    
C25   C27   A    
O34   H19   S    
C10   C42   S    
C26   C28   A    
C19   C20   S    
C28   C30   A    
Cu1   N4    S    
O18   H9    S    
C29   C31   A    
O36   H20   S    
C30   C32   A    
Cu1   O4    S    
C11   C13   A    
Cu2   O7    S    
C11   C43   S    
C33   C35   A    
C34   C36   A    
C4    C14   A    
C37   O13   D    
C35   H3    S    
O14   H7    S    
C16   C18   D    
C44   O28   S    
C47   O33   D    
C18   H15   S    
C31   C36   A    
C17   H16   S    
C44   O27   D    
C1    O3    A    
C13   N2    S    
C20   N4    D    
C14   N1    S    
C19   C48   S    
