data_mof_unit_32564.cif
_audit_creation_date              2012-10-26T21:02:37-0400
_audit_creation_method            fapswitch 2.2
_symmetry_space_group_name_H-M    P1
_symmetry_Int_Tables_number       1
_space_group_crystal_system       triclinic
_cell_length_a                    12.343969
_cell_length_b                    13.1677
_cell_length_c                    15.018142
_cell_angle_alpha                 77.614889
_cell_angle_beta                  100.627991
_cell_angle_gamma                 116.638551
_cell_volume                      2120.26243437

loop_
_atom_site_label
_atom_site_type_symbol
_atom_type_description
_atom_site_fract_x
_atom_site_fract_y
_atom_site_fract_z
_atom_type_partial_charge
C1    C     C_R   0.854991 0.286575 0.507712 0.520489
C2    C     C_R   0.039311 0.427198 0.833412 -0.136701
C3    C     C_R   0.995030 0.496305 0.767634 -0.009541
C4    C     C_R   0.998470 0.498933 0.670943 0.541719
C5    C     C_R   0.947989 0.562961 0.794282 -0.137202
C6    C     C_R   0.277148 0.023433 0.378702 -0.101337
C7    C     C_R   0.228477 0.835071 0.467487 0.003611
C8    C     C_R   0.814175 0.083693 0.565000 -0.125661
C9    C     C_R   0.735021 0.968284 0.581701 -0.136306
C10   C     C_R   0.612301 0.931242 0.549829 -0.105533
C11   C     C_R   0.566539 0.009284 0.496946 0.017232
C12   C     C_R   0.950580 0.564723 0.073627 0.015045
C13   C     C_R   0.650584 0.124240 0.470602 -0.035087
C14   C     C_R   0.440393 0.976719 0.468454 -0.021375
C15   C     C_R   0.401667 0.055194 0.406952 0.061050
C16   C     C_R   0.145088 0.713489 0.486442 0.551691
C17   C     C_R   0.487924 0.163126 0.372913 0.356769
C18   C     C_R   0.610466 0.196241 0.403115 -0.083667
C19   C     C_R   0.351150 0.868604 0.500203 -0.115743
C20   C     C_R   0.191054 0.913563 0.408260 -0.154485
C21   C     C_R   0.772909 0.163282 0.511647 0.000153
C22   C     C_R   0.353889 0.342885 0.658050 0.236831
C23   C     C_R   0.077226 0.352250 0.085475 -0.131362
C24   C     C_R   0.764661 0.651414 0.380225 0.059217
C25   C     C_R   0.678042 0.695240 0.363584 -0.169973
C26   C     C_R   0.577356 0.643385 0.413618 -0.123907
C27   C     C_R   0.558898 0.543277 0.478237 0.002512
C28   C     C_R   0.999757 0.498897 0.329134 0.546974
C29   C     C_R   0.655218 0.507844 0.498287 0.185731
C30   C     C_R   0.451455 0.480334 0.526374 -0.053079
C31   C     C_R   0.452700 0.397828 0.604152 0.003391
C32   C     C_R   0.551848 0.369882 0.626435 -0.152395
C33   C     C_R   0.648533 0.420763 0.572954 -0.110539
C34   C     C_R   0.079074 0.353929 0.992597 -0.130978
C35   C     C_R   0.339769 0.491077 0.498123 0.395825
C36   C     C_R   0.251538 0.365599 0.630961 0.013578
C37   C     C_R   0.954158 0.566299 0.166552 -0.125562
C38   C     C_R   0.997596 0.496557 0.232406 -0.006161
C39   C     C_R   0.034614 0.422542 0.205589 -0.146964
C40   C     C_R   0.034936 0.422195 0.112932 0.010953
C41   C     C_R   0.992546 0.493444 0.046624 0.062314
C42   C     C_3   0.378432 0.313197 0.813462 -0.129665
C43   C     C_3   0.302655 0.478818 0.346205 -0.097224
C44   C     C_R   0.037023 0.424346 0.926303 0.012452
C45   C     C_R   0.992204 0.493493 0.953269 0.061696
C46   C     C_R   0.947649 0.563159 0.886961 0.012050
C47   C     C_R   0.904536 0.632443 0.914458 -0.131693
C48   C     C_R   0.906569 0.633661 0.007359 -0.129586
Cu1   Cu    Cu3+1 0.098270 0.475420 0.521130 0.975997
Cu2   Cu    Cu3+1 0.901730 0.524580 0.478870 0.925973
F1    F     F_    0.453920 0.237330 0.310142 -0.659070
H1    H     H_    0.923990 0.622420 0.187715 0.118337
H2    H     H_    0.061804 0.364461 0.256705 0.104423
H3    H     H_    0.844077 0.693409 0.342616 0.120909
H4    H     H_    0.517199 0.685127 0.402434 0.175422
H5    H     H_    0.690204 0.770900 0.313206 0.106852
H6    H     H_    0.717742 0.390936 0.594438 0.184036
H7    H     H_    0.110058 0.297301 0.135817 0.117594
H8    H     H_    0.113295 0.300223 0.972589 0.109790
H9    H     H_    0.074267 0.374743 0.812199 0.111760
H10   H     H_    0.914252 0.616509 0.742938 0.126446
H11   H     H_    0.870217 0.686295 0.864152 0.109211
H12   H     H_    0.246378 0.082349 0.331759 0.167244
H13   H     H_    0.873833 0.688476 0.027399 0.110270
H14   H     H_    0.096246 0.888684 0.382059 0.120562
H15   H     H_    0.466564 0.391483 0.813493 0.119208
H16   H     H_    0.385720 0.250785 0.874206 0.154642
H17   H     H_    0.302942 0.334000 0.821075 0.103758
H18   H     H_    0.276159 0.519613 0.278616 0.144462
H19   H     H_    0.229738 0.390584 0.361793 0.126155
H20   H     H_    0.387305 0.472508 0.339492 0.138662
H21   H     H_    0.374534 0.807692 0.550167 0.125155
H22   H     H_    0.907516 0.110997 0.595743 0.132339
H23   H     H_    0.556512 0.840483 0.565964 0.105086
H24   H     H_    0.768243 0.907453 0.622135 0.116599
H25   H     H_    0.673353 0.278076 0.370617 0.177101
H26   H     H_    0.174861 0.323744 0.671465 0.132380
H27   H     H_    0.554024 0.305734 0.684692 0.168042
N1    N     N_R   0.246280 0.438190 0.553160 -0.256115
N2    N     N_R   0.754320 0.561190 0.447410 -0.231117
O1    O     O_R   0.972510 0.318130 0.526570 -0.509787
O2    O     O_3   0.319693 0.547681 0.412673 -0.549565
O3    O     O_R   0.806530 0.359650 0.490890 -0.529563
O4    O     O_R   0.082980 0.479210 0.647590 -0.514244
O5    O     O_R   0.917000 0.520730 0.611900 -0.523788
O6    O     O_R   0.193470 0.640350 0.509110 -0.467523
O7    O     O_R   0.027490 0.681870 0.473430 -0.512514
O8    O     O_R   0.083000 0.479270 0.388100 -0.455092
O9    O     O_R   0.917020 0.520790 0.352410 -0.514400
O10   O     O_3   0.354492 0.262403 0.734155 -0.575194

loop_
_geom_bond_atom_site_label_1
_geom_bond_atom_site_label_2
_ccdc_geom_bond_type
C23   H7    S    
C16   O6    A    
C1    C21   S    
C27   C29   A    
C11   C13   A    
C25   H5    S    
C12   C48   A    
C26   H4    S    
C17   F1    S    
C47   H11   S    
C39   H2    S    
C45   C46   A    
C26   C27   A    
C37   C38   A    
C30   C35   A    
Cu1   O4    S    
C36   H26   S    
C30   C31   A    
C11   C14   A    
C2    H9    S    
C48   H13   S    
C1    O1    A    
C23   C40   A    
C29   C33   A    
Cu1   O1    S    
C12   C37   A    
Cu2   O5    S    
C6    C15   A    
C24   N2    A    
C47   C48   A    
C2    C44   A    
C8    C9    A    
C28   O8    A    
C16   O7    A    
C33   H6    S    
C28   O9    A    
C9    C10   A    
C34   H8    S    
C43   H18   S    
C27   C30   A    
C42   H17   S    
Cu1   O8    S    
C19   H21   S    
C14   C19   A    
C35   O2    S    
Cu2   O3    S    
C8    C21   A    
C22   C31   A    
C5    H10   S    
C20   H14   S    
C34   C44   A    
C24   C25   A    
C39   C40   A    
C37   H1    S    
C4    O5    A    
C25   C26   A    
Cu1   N1    S    
C42   O10   S    
C6    H12   S    
C12   C41   A    
Cu2   O9    S    
C31   C32   A    
C4    O4    A    
C28   C38   S    
C23   C34   A    
C17   C18   A    
C22   O10   S    
C13   C21   A    
Cu2   O7    S    
C13   C18   A    
C7    C16   S    
C7    C20   A    
C43   H19   S    
C7    C19   A    
C42   H16   S    
C3    C4    S    
C6    C20   A    
C44   C45   A    
C15   C17   A    
C46   C47   A    
C40   C41   A    
C43   H20   S    
Cu1   O6    S    
C3    C5    A    
C36   N1    A    
Cu2   N2    S    
C1    O3    A    
C22   C36   A    
C5    C46   A    
C32   C33   A    
C2    C3    A    
C10   H23   S    
C38   C39   A    
C29   N2    A    
C35   N1    A    
C8    H22   S    
C10   C11   A    
C32   H27   S    
Cu1   Cu2   S    
C42   H15   S    
C43   O2    S    
C41   C45   A    
C14   C15   A    
C9    H24   S    
C24   H3    S    
C18   H25   S    
