data_mof_unit_53132.cif
_audit_creation_date              2012-12-10T19:03:34-0500
_audit_creation_method            fapswitch 2.2
_symmetry_space_group_name_H-M    P1
_symmetry_Int_Tables_number       1
_space_group_crystal_system       triclinic
_cell_length_a                    15.833555
_cell_length_b                    10.819531
_cell_length_c                    9.670983
_cell_angle_alpha                 89.91004
_cell_angle_beta                  91.641495
_cell_angle_gamma                 92.873969
_cell_volume                      1653.98911465

loop_
_atom_site_label
_atom_site_type_symbol
_atom_type_description
_atom_site_fract_x
_atom_site_fract_y
_atom_site_fract_z
_atom_type_partial_charge
C1    C     C_R   0.495459 0.262545 0.499363 0.797362
C2    C     C_3   0.953262 0.425547 0.643831 0.587249
C3    C     C_3   0.916214 0.480501 0.504359 0.230755
C4    C     C_3   0.952033 0.618880 0.492989 -0.045994
C5    C     C_3   0.050981 0.623264 0.492882 0.319047
C6    C     C_1   0.823485 0.477213 0.503200 -0.019721
C7    C     C_1   0.174716 0.492424 0.492343 -0.046669
C8    C     C_1   0.250510 0.495624 0.493824 -0.189921
C9    C     C_R   0.490072 0.063395 0.621909 0.069121
C10   C     C_R   0.488740 0.128262 0.496963 -0.218059
C11   C     C_R   0.478650 0.061557 0.371322 0.434378
C12   C     C_R   0.340427 0.498879 0.498205 0.795501
C13   C     C_R   0.481620 0.933427 0.373132 -0.311924
C14   C     C_R   0.490102 0.869756 0.498329 -0.177587
C15   C     C_R   0.489119 0.934832 0.622232 0.148622
C16   C     C_3   0.419607 0.925223 0.723569 -0.424690
C17   C     C_3   0.422625 0.064676 0.726770 -0.480464
C18   C     C_R   0.572999 0.526673 0.076207 0.138836
C19   C     C_R   0.430545 0.460825 0.070795 -0.047840
C20   C     C_R   0.430928 0.459019 0.923143 -0.068947
C21   C     C_R   0.572679 0.534175 0.930337 0.113107
C22   C     C_3   0.628092 0.656125 0.938062 0.765603
C23   C     C_R   0.496325 0.736804 0.499627 0.802032
C24   C     C_3   0.638582 0.630128 0.093922 -0.166815
C25   C     C_R   0.658860 0.491927 0.500854 0.784555
C26   C     C_3   0.052572 0.422799 0.629386 -0.428359
C27   C     C_3   0.043060 0.416832 0.369884 -0.508672
C28   C     C_3   0.945688 0.406549 0.378518 -0.469357
C29   C     C_1   0.747962 0.480434 0.501506 -0.214250
C30   C     C_3   0.082231 0.489278 0.495890 0.186003
Cu1   Cu    Cu3+1 0.500000 0.499980 0.640670 0.958696
Cu2   Cu    Cu3+1 0.500000 0.500020 0.359330 0.949422
H1    H     H_    0.089135 0.464577 0.718229 0.170334
H2    H     H_    0.472324 0.884406 0.276457 0.179461
H3    H     H_    0.359449 0.884167 0.677316 0.184909
H4    H     H_    0.439103 0.881806 0.822164 0.235663
H5    H     H_    0.363337 0.104469 0.686396 0.188205
H6    H     H_    0.447304 0.104777 0.826152 0.214121
H7    H     H_    0.373498 0.430451 0.122408 0.130797
H8    H     H_    0.072155 0.325415 0.626054 0.144424
H9    H     H_    0.374305 0.426039 0.866888 0.135881
H10   H     H_    0.700529 0.590122 0.120588 0.167886
H11   H     H_    0.061186 0.464419 0.272255 0.176036
H12   H     H_    0.067725 0.322352 0.366696 0.189695
H13   H     H_    0.923558 0.307843 0.383642 0.180233
H14   H     H_    0.915946 0.441062 0.282166 0.200203
H15   H     H_    0.074096 0.666092 0.394574 0.070982
H16   H     H_    0.932226 0.670274 0.585222 0.219586
N1    N     N_R   0.500530 0.500930 0.147930 -0.157268
N2    N     N_R   0.500530 0.500890 0.852020 -0.179897
O1    O     O_R   0.500000 0.319640 0.618810 -0.576856
O2    O     O_R   0.500010 0.319680 0.381230 -0.532666
O3    O     O_R   0.379430 0.499990 0.618840 -0.580313
O4    O     O_R   0.379440 0.500030 0.381260 -0.591870
O5    O     O_R   0.499990 0.680320 0.618770 -0.553197
O6    O     O_R   0.500000 0.680360 0.381190 -0.592213
O7    O     O_R   0.620560 0.499970 0.618740 -0.584637
O8    O     O_R   0.620570 0.500010 0.381160 -0.572023
C31   C     C_3   0.915368 0.292623 0.671804 -0.868155
H17   H     H_    0.941664 0.254580 0.769436 0.212139
H18   H     H_    0.845674 0.292547 0.681437 0.245580
H19   H     H_    0.930223 0.226687 0.589569 0.196332
O9    O     O_3   0.927541 0.505048 0.751213 -0.575089
C32   C     C_3   0.973263 0.497700 0.878165 0.081747
H20   H     H_    0.025972 0.569599 0.879928 0.171022
H21   H     H_    0.999189 0.405680 0.898613 0.123550
C33   C     C_3   0.915672 0.526616 0.994556 -0.783338
H22   H     H_    0.865007 0.452548 0.003987 0.252249
H23   H     H_    0.954870 0.532432 0.090550 0.173135
H24   H     H_    0.886830 0.616887 0.976776 0.273458
C34   C     C_3   0.915817 0.691161 0.368936 -0.997802
H25   H     H_    0.937333 0.790191 0.376779 0.230388
H26   H     H_    0.937812 0.655778 0.269998 0.253598
H27   H     H_    0.845633 0.687038 0.367081 0.258804
O10   O     O_3   0.461998 0.118685 0.246254 -0.556506
C35   C     C_3   0.373367 0.127852 0.229148 0.088597
H28   H     H_    0.354210 0.214934 0.277457 0.148094
H29   H     H_    0.335931 0.048529 0.275250 0.116969
C36   C     C_3   0.349893 0.130557 0.075797 -0.840306
H30   H     H_    0.362587 0.040309 0.028116 0.245633
H31   H     H_    0.281609 0.147382 0.061188 0.196741
H32   H     H_    0.387482 0.205284 0.023800 0.250173
O11   O     O_3   0.710688 0.654045 0.882240 -0.639299
C37   C     C_3   0.720185 0.703705 0.748330 0.117846
H33   H     H_    0.661534 0.735999 0.697463 0.155305
H34   H     H_    0.743107 0.629408 0.686833 0.202359
C38   C     C_3   0.792943 0.802075 0.744623 -0.888077
H35   H     H_    0.850424 0.767105 0.796659 0.277042
H36   H     H_    0.807820 0.823221 0.635262 0.210236
H37   H     H_    0.777585 0.889751 0.794134 0.221583
O12   O     O_3   0.578890 0.760896 0.905591 -0.606119
C39   C     C_3   0.624203 0.877586 0.917763 0.062691
H38   H     H_    0.631067 0.916657 0.812286 0.159651
H39   H     H_    0.688607 0.872341 0.964925 0.168394
C40   C     C_3   0.575716 0.969746 0.001356 -0.802946
H40   H     H_    0.509781 0.935284 0.018709 0.263856
H41   H     H_    0.607152 0.987422 0.103906 0.233118
H42   H     H_    0.574883 0.060048 0.946837 0.226588
C41   C     C_3   0.624535 0.735887 0.191917 -0.729659
H43   H     H_    0.560588 0.769364 0.174117 0.270494
H44   H     H_    0.636519 0.707543 0.299810 0.245915
H45   H     H_    0.673295 0.811146 0.177829 0.194948
O13   O     O_3   0.084581 0.687953 0.611657 -0.584326
C42   C     C_3   0.104537 0.813371 0.580536 0.054535
H46   H     H_    0.047599 0.859725 0.540703 0.139453
H47   H     H_    0.155217 0.821341 0.503048 0.134961
C43   C     C_3   0.136918 0.879617 0.711622 -0.799611
H48   H     H_    0.194369 0.835953 0.753220 0.247985
H49   H     H_    0.153206 0.978368 0.688391 0.191023
H50   H     H_    0.087441 0.874377 0.790855 0.246548

loop_
_geom_bond_atom_site_label_1
_geom_bond_atom_site_label_2
_ccdc_geom_bond_type
C38   H35   S    
C5    O13   S    
C18   C21   A    
C24   H10   S    
C40   H40   S    
C37   C38   S    
Cu2   O8    S    
C3    C6    S    
C42   H47   S    
C20   H9    S    
C40   H42   S    
C7    C8    T    
C5    H15   S    
C28   H14   S    
C18   C24   S    
C3    C28   S    
C35   H29   S    
C16   H3    S    
C15   C16   S    
C24   C41   S    
C21   N2    A    
C20   N2    A    
C27   H12   S    
Cu2   O2    S    
O11   C37   S    
C16   C17   S    
C22   O12   S    
C35   C36   S    
C9    C10   A    
C12   O3    A    
C31   H17   S    
C7    C30   S    
C21   C22   S    
C27   C30   S    
C43   H49   S    
C25   O7    A    
Cu2   O4    S    
C42   H46   S    
C35   H28   S    
C25   C29   S    
C28   H13   S    
C31   H18   S    
C33   H22   S    
C32   C33   S    
C23   O6    A    
C37   H33   S    
O12   C39   S    
C36   H31   S    
C2    C31   S    
C39   C40   S    
C36   H30   S    
C33   H23   S    
C32   H21   S    
C14   C23   S    
O10   C35   S    
C34   H27   S    
C19   N1    A    
C26   H1    S    
Cu1   Cu2   S    
C8    C12   S    
C41   H45   S    
C39   H39   S    
C2    C26   S    
C17   H5    S    
Cu1   O3    S    
C1    O1    A    
C19   H7    S    
C9    C17   S    
C41   H44   S    
C26   C30   S    
C38   H36   S    
C43   H50   S    
C22   C24   S    
C25   O8    A    
C43   H48   S    
C3    C4    S    
C27   C28   S    
C2    O9    S    
C34   H26   S    
C5    C30   S    
C4    H16   S    
C31   H19   S    
C1    C10   S    
Cu1   O1    S    
C4    C5    S    
C36   H32   S    
C40   H41   S    
C23   O5    A    
C41   H43   S    
C33   H24   S    
C22   O11   S    
Cu1   O7    S    
C19   C20   A    
C2    C3    S    
C9    C15   A    
C13   H2    S    
C11   O10   S    
C16   H4    S    
C11   C13   A    
C26   H8    S    
C32   H20   S    
C39   H38   S    
C17   H6    S    
C42   C43   S    
C1    O2    A    
Cu2   N1    S    
C10   C11   A    
O9    C32   S    
C27   H11   S    
C34   H25   S    
C6    C29   T    
C38   H37   S    
O13   C42   S    
C14   C15   A    
C37   H34   S    
Cu1   N2    S    
Cu1   O5    S    
C13   C14   A    
Cu2   O6    S    
C4    C34   S    
C12   O4    A    
C18   N1    A    
