data_mof_unit_41673.cif
_audit_creation_date              2012-12-10T19:56:35-0500
_audit_creation_method            fapswitch 2.2
_symmetry_space_group_name_H-M    P1
_symmetry_Int_Tables_number       1
_space_group_crystal_system       triclinic
_cell_length_a                    28.318883
_cell_length_b                    18.25798
_cell_length_c                    18.242423
_cell_angle_alpha                 90.001046
_cell_angle_beta                  130.135523
_cell_angle_gamma                 89.998843
_cell_volume                      7211.09636491

loop_
_atom_site_label
_atom_site_type_symbol
_atom_type_description
_atom_site_fract_x
_atom_site_fract_y
_atom_site_fract_z
_atom_type_partial_charge
C1    C     C_R   0.499860 0.999966 0.358616 0.922849
C2    C     C_R   0.500139 0.999967 0.641384 0.922918
C3    C     C_R   0.999860 0.499966 0.358616 0.922861
C4    C     C_R   0.000140 0.499967 0.641385 0.922967
C5    C     C_R   0.813677 0.002936 0.812963 -0.095524
C6    C     C_R   0.186323 0.002934 0.187034 -0.095481
C7    C     C_R   0.313678 0.502935 0.812965 -0.095616
C8    C     C_R   0.686323 0.502939 0.187035 -0.095450
C9    C     C_R   0.780230 0.051408 0.734344 0.044199
C10   C     C_R   0.219769 0.051421 0.265637 0.044234
C11   C     C_R   0.280230 0.551428 0.734370 0.044171
C12   C     C_R   0.719769 0.551418 0.265647 0.044248
C13   C     C_R   0.716430 0.049983 0.673882 -0.203157
C14   C     C_R   0.283569 0.049993 0.326100 -0.203077
C15   C     C_R   0.216431 0.549998 0.673906 -0.203232
C16   C     C_R   0.783569 0.549991 0.326110 -0.203126
C17   C     C_R   0.686451 0.999155 0.688547 -0.036481
C18   C     C_R   0.313549 0.999156 0.311445 -0.036498
C19   C     C_R   0.186452 0.499154 0.688553 -0.036528
C20   C     C_R   0.813549 0.499159 0.311449 -0.036447
C21   C     C_R   0.719950 0.949592 0.766079 0.150034
C22   C     C_R   0.280051 0.949584 0.233921 0.150083
C23   C     C_R   0.219951 0.449578 0.766070 0.149778
C24   C     C_R   0.780051 0.449597 0.233916 0.150198
C25   C     C_R   0.836100 0.082648 0.674468 -0.131426
C26   C     C_R   0.163893 0.082736 0.325487 -0.131490
C27   C     C_R   0.336111 0.582756 0.674533 -0.131460
C28   C     C_R   0.663885 0.582696 0.325493 -0.131492
C29   C     C_R   0.861226 0.133913 0.651443 -0.270613
C30   C     C_R   0.138799 0.134037 0.348533 -0.270611
C31   C     C_R   0.361197 0.634063 0.651482 -0.270634
C32   C     C_R   0.638768 0.633980 0.348517 -0.270596
C33   C     C_R   0.858373 0.209165 0.664029 0.354035
C34   C     C_R   0.141694 0.209283 0.335967 0.354053
C35   C     C_R   0.358284 0.709308 0.664029 0.354068
C36   C     C_R   0.641648 0.709230 0.335952 0.354065
C37   C     C_R   0.829996 0.232697 0.701800 0.305661
C38   C     C_R   0.170069 0.232769 0.298179 0.305568
C39   C     C_R   0.329899 0.732788 0.701803 0.305629
C40   C     C_R   0.670040 0.732738 0.298199 0.305623
C41   C     C_R   0.806197 0.180177 0.726664 -0.317660
C42   C     C_R   0.193835 0.180214 0.273294 -0.317563
C43   C     C_R   0.306143 0.680228 0.726697 -0.317651
C44   C     C_R   0.693826 0.680200 0.273329 -0.317532
C45   C     C_R   0.620336 0.999748 0.622164 0.895764
C46   C     C_R   0.379665 0.999748 0.377832 0.895641
C47   C     C_R   0.120336 0.499747 0.622167 0.895868
C48   C     C_R   0.879664 0.499748 0.377835 0.895683
C49   C     C_R   0.809694 0.105302 0.714233 0.042765
C50   C     C_R   0.190308 0.105347 0.285721 0.042702
C51   C     C_R   0.309689 0.605361 0.714289 0.042723
C52   C     C_R   0.690306 0.605329 0.285744 0.042707
C53   C     C_1   0.499919 0.999877 0.282206 -0.097682
C54   C     C_1   0.500080 0.999881 0.717792 -0.097554
C55   C     C_1   0.999920 0.499878 0.282208 -0.097622
C56   C     C_1   0.000082 0.499880 0.717794 -0.097531
C57   C     C_1   0.500006 0.999863 0.217486 -0.042984
C58   C     C_1   0.499993 0.999867 0.782512 -0.042818
C59   C     C_1   0.000007 0.499864 0.217488 -0.042836
C60   C     C_1   0.999994 0.499866 0.782514 -0.042953
C61   C     C_R   0.000000 0.141315 0.000001 0.920285
C62   C     C_R   0.500000 0.641315 0.000001 0.920285
C63   C     C_R   0.879704 0.002561 0.879507 0.880346
C64   C     C_R   0.120296 0.002561 0.120492 0.880346
C65   C     C_R   0.379704 0.502562 0.879508 0.880389
C66   C     C_R   0.620296 0.502563 0.120492 0.880351
C67   C     C_R   1.000000 0.858762 0.999999 0.924411
C68   C     C_R   0.500000 0.358762 0.999999 0.924429
C69   C     C_R   0.500000 0.140984 0.999999 0.866590
C70   C     C_R   1.000000 0.640984 0.999999 0.866588
C71   C     C_R   0.499998 0.999950 0.140999 0.924546
C72   C     C_R   0.500002 0.999952 0.859000 0.924574
C73   C     C_R   0.999998 0.499951 0.141000 0.924556
C74   C     C_R   0.000002 0.499951 0.859000 0.924575
C75   C     C_R   0.500000 0.859000 0.000000 0.967557
C76   C     C_R   0.000000 0.359000 0.000001 0.967592
C77   C     C_1   0.000001 0.217776 0.000002 -0.183644
C78   C     C_1   0.500000 0.717776 0.000002 -0.183611
C79   C     C_R   0.649732 0.767833 0.744321 0.453320
C80   C     C_R   0.350375 0.767877 0.255762 0.453294
C81   C     C_R   0.149639 0.267865 0.744224 0.453190
C82   C     C_R   0.850254 0.267824 0.255667 0.453360
C83   C     C_1   0.500001 0.782553 0.000002 -0.130928
C84   C     C_1   0.000001 0.282553 0.000002 -0.130954
C85   C     C_1   0.999999 0.782276 0.999997 -0.166086
C86   C     C_1   0.499999 0.282276 0.999998 -0.166099
C87   C     C_1   0.499999 0.217473 0.999998 -0.134842
C88   C     C_1   0.999999 0.717473 0.999998 -0.134827
C89   C     C_R   0.673924 0.826746 0.729537 -0.265481
C90   C     C_R   0.326143 0.826765 0.270511 -0.265466
C91   C     C_R   0.173869 0.326755 0.729478 -0.265379
C92   C     C_R   0.826064 0.326742 0.270449 -0.265544
C93   C     C_R   0.690386 0.891869 0.781752 -0.158545
C94   C     C_R   0.309620 0.891870 0.218239 -0.158580
C95   C     C_R   0.190382 0.391861 0.781744 -0.158403
C96   C     C_R   0.809617 0.391869 0.218248 -0.158593
C97   C     C_R   0.683323 0.898032 0.851951 0.323923
C98   C     C_R   0.316646 0.898026 0.147998 0.323957
C99   C     C_R   0.183344 0.398018 0.851973 0.323852
C100  C     C_R   0.816695 0.398029 0.148065 0.324007
C101  C     C_R   0.662235 0.835616 0.870789 0.296355
C102  C     C_R   0.337749 0.835620 0.129169 0.296360
C103  C     C_R   0.162237 0.335612 0.870792 0.296279
C104  C     C_R   0.837781 0.335608 0.129229 0.296381
C105  C     C_R   0.644215 0.772370 0.814746 -0.294105
C106  C     C_R   0.355839 0.772400 0.185277 -0.294073
C107  C     C_R   0.144156 0.272392 0.814687 -0.294015
C108  C     C_R   0.855788 0.272360 0.185261 -0.294085
C109  C     C_R   0.783762 0.953091 0.828889 -0.159678
C110  C     C_R   0.216239 0.953079 0.171116 -0.159408
C111  C     C_R   0.283763 0.453073 0.828876 -0.160068
C112  C     C_R   0.716239 0.453093 0.171108 -0.159374
H1    H     H_    0.626362 0.725789 0.826747 0.243381
H2    H     H_    0.373705 0.725831 0.173280 0.243335
H3    H     H_    0.126284 0.225823 0.826672 0.243404
H4    H     H_    0.873640 0.225775 0.173262 0.243365
H5    H     H_    0.783567 0.197395 0.754082 0.220962
H6    H     H_    0.216471 0.197399 0.245875 0.221030
H7    H     H_    0.283500 0.697409 0.754107 0.220994
H8    H     H_    0.716469 0.697402 0.245927 0.221024
H9    H     H_    0.679852 0.822077 0.676629 0.209253
H10   H     H_    0.320242 0.822097 0.323450 0.209198
H11   H     H_    0.179777 0.322087 0.676547 0.209229
H12   H     H_    0.820123 0.322073 0.323342 0.209259
H13   H     H_    0.810294 0.915393 0.888989 0.165800
H14   H     H_    0.189707 0.915375 0.111022 0.165788
H15   H     H_    0.310296 0.415365 0.888964 0.165920
H16   H     H_    0.689708 0.415391 0.111011 0.165741
H17   H     H_    0.689937 0.087423 0.613489 0.170257
H18   H     H_    0.310062 0.087443 0.386484 0.170256
H19   H     H_    0.189937 0.587451 0.613528 0.170300
H20   H     H_    0.810062 0.587435 0.386499 0.170243
H21   H     H_    0.837142 0.025109 0.661081 0.187389
H22   H     H_    0.162827 0.025204 0.338872 0.187410
H23   H     H_    0.337188 0.525225 0.661156 0.187419
H24   H     H_    0.662826 0.525161 0.338871 0.187386
H25   H     H_    0.882321 0.114439 0.622449 0.211860
H26   H     H_    0.117704 0.114598 0.377537 0.211903
H27   H     H_    0.382300 0.614628 0.622486 0.211911
H28   H     H_    0.617663 0.614524 0.377500 0.211859
O1    O     O_R   0.500010 0.939400 0.392680 -0.581183
O2    O     O_R   0.499990 0.939400 0.607320 -0.581183
O3    O     O_R   0.000010 0.439400 0.392680 -0.581167
O4    O     O_R   0.999990 0.439400 0.607320 -0.581248
O5    O     O_R   0.551700 0.999990 0.159040 -0.589827
O6    O     O_R   0.448300 0.999990 0.840960 -0.589860
O7    O     O_R   0.051700 0.499990 0.159040 -0.589857
O8    O     O_R   0.948300 0.499990 0.840960 -0.589846
O9    O     O_R   0.448260 0.000000 0.055600 -0.557485
O10   O     O_R   0.551740 1.000000 0.944400 -0.557430
O11   O     O_R   0.948260 0.500000 0.055600 -0.557448
O12   O     O_R   0.051740 0.500000 0.944400 -0.557461
O13   O     O_R   0.551720 0.892660 0.051710 -0.576824
O14   O     O_R   0.448280 0.892660 0.948290 -0.576853
O15   O     O_R   0.051720 0.392660 0.051710 -0.576835
O16   O     O_R   0.948280 0.392660 0.948290 -0.576751
O17   O     O_R   0.499990 0.060580 0.392690 -0.620724
O18   O     O_R   0.500010 0.060580 0.607310 -0.620681
O19   O     O_R   0.999990 0.560580 0.392690 -0.620763
O20   O     O_R   0.000010 0.560580 0.607310 -0.620583
O21   O     O_R   0.591620 0.939400 0.591620 -0.618694
O22   O     O_R   0.408380 0.939400 0.408380 -0.618694
O23   O     O_R   0.091620 0.439400 0.591620 -0.618723
O24   O     O_R   0.908380 0.439400 0.408380 -0.618690
O25   O     O_R   0.591600 0.060580 0.591620 -0.609684
O26   O     O_R   0.408400 0.060580 0.408380 -0.609720
O27   O     O_R   0.091600 0.560580 0.591620 -0.609641
O28   O     O_R   0.908400 0.560580 0.408380 -0.609733
O29   O     O_R   0.999970 0.107360 0.060570 -0.610031
O30   O     O_R   0.000030 0.107360 0.939430 -0.609995
O31   O     O_R   0.499970 0.607360 0.060570 -0.610028
O32   O     O_R   0.500030 0.607360 0.939430 -0.610009
O33   O     O_R   0.908370 0.000030 0.968970 -0.598626
O34   O     O_R   0.091630 0.000030 0.031030 -0.598540
O35   O     O_R   0.408370 0.500030 0.968970 -0.598675
O36   O     O_R   0.591630 0.500030 0.031030 -0.598547
O37   O     O_R   0.908380 0.000000 0.847800 -0.630877
O38   O     O_R   0.091620 0.000000 0.152200 -0.630900
O39   O     O_R   0.408380 0.500000 0.847800 -0.630865
O40   O     O_R   0.591620 0.500000 0.152200 -0.630909
O41   O     O_R   0.000000 0.892710 0.060610 -0.611024
O42   O     O_R   0.000000 0.892710 0.939390 -0.610978
O43   O     O_R   0.500000 0.392710 0.060610 -0.610998
O44   O     O_R   0.500000 0.392710 0.939390 -0.611006
O45   O     O_R   0.551710 0.107310 0.051740 -0.617613
O46   O     O_R   0.448290 0.107310 0.948260 -0.617640
O47   O     O_R   0.051710 0.607310 0.051740 -0.617605
O48   O     O_R   0.948290 0.607310 0.948260 -0.617656
Zn1   Zn    Zn3+2 0.500000 0.919080 0.500000 1.145809
Zn2   Zn    Zn3+2 0.000000 0.419080 0.500000 1.145792
Zn3   Zn    Zn3+2 0.500000 0.080900 0.500000 1.056225
Zn4   Zn    Zn3+2 0.000000 0.580900 0.500000 1.056316
Zn5   Zn    Zn3+2 0.999980 0.000040 0.080910 1.036987
Zn6   Zn    Zn3+2 0.000020 0.000040 0.919090 1.037129
Zn7   Zn    Zn3+2 0.499980 0.500040 0.080910 1.036974
Zn8   Zn    Zn3+2 0.500020 0.500040 0.919090 1.037063
Zn9   Zn    Zn3+2 0.569060 0.999980 0.069070 1.192191
Zn10  Zn    Zn3+2 0.430940 0.999980 0.930930 1.192144
Zn11  Zn    Zn3+2 0.069060 0.499980 0.069070 1.192241
Zn12  Zn    Zn3+2 0.930940 0.499980 0.930930 1.192193
S1    S     S_3+6 0.890714 0.270456 0.631441 0.084371
O49   O     O_2   0.846731 0.332066 0.571235 -0.248297
O50   O     O_2   0.949615 0.301664 0.720785 -0.238369
O51   O     O_3   0.907155 0.226582 0.569229 -0.486873
H29   H     H_    0.866466 0.216294 0.505931 0.381149
S2    S     S_3+6 0.109416 0.270623 0.368620 0.084311
O52   O     O_2   0.153445 0.332198 0.428830 -0.248334
O53   O     O_2   0.050523 0.301874 0.279307 -0.238335
O54   O     O_3   0.092979 0.226787 0.430857 -0.486933
H30   H     H_    0.133669 0.216497 0.494153 0.381055
S3    S     S_3+6 0.390553 0.770656 0.631372 0.084298
O55   O     O_2   0.346509 0.832213 0.571137 -0.248364
O56   O     O_2   0.449433 0.801933 0.720682 -0.238357
O57   O     O_3   0.407014 0.726820 0.569163 -0.486931
H31   H     H_    0.366331 0.716537 0.505852 0.381027
S4    S     S_3+6 0.609324 0.770546 0.368549 0.084341
O58   O     O_2   0.653336 0.832124 0.428797 -0.248318
O59   O     O_2   0.550445 0.801797 0.279210 -0.238408
O60   O     O_3   0.592843 0.726687 0.430717 -0.486934
H32   H     H_    0.633521 0.716393 0.494030 0.381136
S5    S     S_3+6 0.819066 0.326120 0.713474 0.099024
O61   O     O_2   0.874967 0.370727 0.750246 -0.232194
O62   O     O_2   0.764725 0.354709 0.616624 -0.212769
O63   O     O_3   0.804234 0.335591 0.788666 -0.474533
H33   H     H_    0.840870 0.314932 0.850432 0.373130
S6    S     S_3+6 0.181049 0.326175 0.286519 0.099081
O64   O     O_2   0.125190 0.370846 0.249820 -0.232083
O65   O     O_2   0.235434 0.354723 0.383361 -0.212734
O66   O     O_3   0.195835 0.335598 0.211268 -0.474424
H34   H     H_    0.159164 0.314981 0.149504 0.373173
S7    S     S_3+6 0.318892 0.826193 0.713431 0.099083
O67   O     O_2   0.374744 0.870881 0.750140 -0.232070
O68   O     O_2   0.264508 0.854723 0.616576 -0.212734
O69   O     O_3   0.304086 0.835617 0.788658 -0.474444
H35   H     H_    0.340770 0.815045 0.850444 0.373236
S8    S     S_3+6 0.681017 0.826153 0.286569 0.099038
O70   O     O_2   0.625138 0.870804 0.249812 -0.232136
O71   O     O_2   0.735371 0.854704 0.383435 -0.212769
O72   O     O_3   0.695858 0.835604 0.211388 -0.474552
H36   H     H_    0.659197 0.815008 0.149595 0.373201
S9    S     S_3+6 0.627462 0.687769 0.675300 0.075775
O73   O     O_2   0.570641 0.704035 0.574060 -0.219054
O74   O     O_2   0.678648 0.664478 0.675979 -0.293453
O75   O     O_3   0.612130 0.619955 0.719654 -0.508407
H37   H     H_    0.598720 0.578169 0.675476 0.404884
S10   S     S_3+6 0.372738 0.687854 0.324881 0.075952
O76   O     O_2   0.429378 0.704302 0.426197 -0.219170
O77   O     O_2   0.321467 0.664314 0.323880 -0.293050
O78   O     O_3   0.388446 0.620155 0.280908 -0.508440
H38   H     H_    0.401943 0.578422 0.325192 0.404897
S11   S     S_3+6 0.127287 0.187838 0.675114 0.075950
O79   O     O_2   0.070572 0.204239 0.573839 -0.219033
O80   O     O_2   0.178512 0.164383 0.675962 -0.293234
O81   O     O_3   0.111722 0.120095 0.719230 -0.508373
H39   H     H_    0.098247 0.078347 0.674976 0.404915
S12   S     S_3+6 0.872496 0.187750 0.324658 0.075793
O82   O     O_2   0.929334 0.203982 0.425896 -0.219000
O83   O     O_2   0.821308 0.164501 0.323996 -0.293458
O84   O     O_3   0.887780 0.119920 0.280254 -0.508426
H40   H     H_    0.901205 0.078138 0.324442 0.404902
S13   S     S_3+6 0.701728 0.982154 0.915267 0.077444
O85   O     O_2   0.659005 0.995502 0.935985 -0.221816
O86   O     O_2   0.767017 0.977633 0.008240 -0.234565
O87   O     O_3   0.695790 0.054058 0.852153 -0.573524
H41   H     H_    0.715244 0.095442 0.898066 0.406532
S14   S     S_3+6 0.298187 0.982134 0.084633 0.077457
O88   O     O_2   0.340868 0.995485 0.063833 -0.222011
O89   O     O_2   0.232882 0.977592 0.991704 -0.234295
O90   O     O_3   0.304143 0.054049 0.147753 -0.573505
H42   H     H_    0.284959 0.095515 0.101961 0.406515
S15   S     S_3+6 0.201809 0.482122 0.915346 0.077538
O91   O     O_2   0.159174 0.495473 0.936234 -0.220931
O92   O     O_2   0.267132 0.477571 0.008235 -0.235265
O93   O     O_3   0.195806 0.554039 0.852189 -0.573498
H43   H     H_    0.215944 0.595210 0.898396 0.406588
S16   S     S_3+6 0.798312 0.482156 0.084771 0.077375
O94   O     O_2   0.841028 0.495470 0.064033 -0.222360
O95   O     O_2   0.733015 0.477680 0.991814 -0.234092
O96   O     O_3   0.804295 0.554057 0.147930 -0.573592
H44   H     H_    0.785382 0.595613 0.102279 0.406468
S17   S     S_3+6 0.659052 0.831211 0.964735 0.095357
O97   O     O_2   0.713960 0.868594 0.053372 -0.147427
O98   O     O_2   0.601056 0.868056 0.932797 -0.290659
O99   O     O_3   0.658536 0.743381 0.992457 -0.551981
H45   H     H_    0.614420 0.730729 0.955251 0.366823
S18   S     S_3+6 0.340858 0.831192 0.035146 0.095382
O100  O     O_2   0.285893 0.868511 0.946511 -0.147290
O101  O     O_2   0.398804 0.868089 0.066955 -0.290522
O102  O     O_3   0.341417 0.743355 0.007487 -0.552406
H46   H     H_    0.385539 0.730727 0.044714 0.366779
S19   S     S_3+6 0.159115 0.331185 0.964802 0.095388
O103  O     O_2   0.214082 0.368491 0.053448 -0.147333
O104  O     O_2   0.101172 0.368096 0.932986 -0.290602
O105  O     O_3   0.158541 0.243348 0.992444 -0.552080
H47   H     H_    0.114417 0.230742 0.955245 0.366828
S20   S     S_3+6 0.840967 0.331192 0.035285 0.095403
O106  O     O_2   0.786061 0.368578 0.946649 -0.147419
O107  O     O_2   0.898965 0.368026 0.067224 -0.290580
O108  O     O_3   0.841477 0.243358 0.007564 -0.552175
H48   H     H_    0.885592 0.230703 0.044757 0.366818

loop_
_geom_bond_atom_site_label_1
_geom_bond_atom_site_label_2
_ccdc_geom_bond_type
S15   O93   S    
C99   C103  A    
C81   C107  A    
C68   O43   A    
C8    C66   S    
C69   O46   A    
C30   H26   S    
C55   C59   T    
C90   H10   S    
S1    O49   D    
C14   C18   A    
O7    Zn11  S    
O72   H36   S    
C24   C112  A    
S4    O60   S    
C100  C104  A    
C108  H4    S    
C40   S8    S    
C66   O36   A    
O63   H33   S    
C76   C84   S    
C23   C95   S    
C45   O25   A    
O15   Zn11  S    
S11   O79   D    
C4    O20   A    
O75   H37   S    
S17   O99   S    
C7    C11   A    
O27   Zn4   S    
C60   C74   S    
C79   C105  A    
O78   H38   S    
S5    O61   D    
C62   O31   A    
C100  S16   S    
C37   C41   A    
C32   C36   A    
C105  H1    S    
O99   H45   S    
S19   O104  D    
S4    O59   D    
C38   C42   A    
S5    O63   S    
C8    C112  A    
C14   H18   S    
S13   O85   D    
O14   Zn10  S    
C9    C13   A    
C95   C99   A    
S11   O80   D    
O13   Zn9   S    
C94   C98   A    
S15   O91   D    
C3    O3    A    
S12   O84   S    
C80   C106  A    
C92   C96   A    
C82   C92   A    
S8    O70   D    
C5    C63   S    
O26   Zn3   S    
C22   C94   S    
C6    C64   S    
C65   O35   A    
C45   O21   A    
C1    C53   S    
C67   O41   A    
C43   C51   A    
C3    C55   S    
C78   C83   T    
C75   C83   S    
S20   O108  S    
S19   O103  D    
C29   C33   A    
C61   C77   S    
O87   H41   S    
C22   C110  A    
S12   O83   D    
O45   Zn9   S    
O43   Zn7   S    
O96   H44   S    
C63   O33   A    
O93   H43   S    
C82   C108  A    
C8    C12   A    
O23   Zn2   S    
O41   Zn5   S    
C39   S7    S    
C59   C73   S    
O10   Zn9   S    
C69   C87   S    
O48   Zn12  S    
C97   S13   S    
O105  H47   S    
C38   S6    S    
C47   O23   A    
C44   C52   A    
S20   O107  D    
C70   C88   S    
C91   H11   S    
O90   H42   S    
C4    C56   S    
C3    O19   A    
O51   H29   S    
S1    O50   D    
C74   O12   A    
O16   Zn12  S    
O19   Zn4   S    
C11   C15   A    
C81   S11   S    
C46   O26   A    
O4    Zn2   S    
C18   C46   S    
C11   C51   S    
C41   C49   A    
C12   C52   S    
C27   C51   A    
C90   C94   A    
O30   Zn6   S    
O39   Zn8   S    
C106  H2    S    
C25   C29   A    
O38   Zn5   S    
S10   O77   D    
C67   C85   S    
C101  C105  A    
C79   C89   A    
O37   Zn6   S    
C30   C34   A    
C27   C31   A    
C110  H14   S    
C12   C16   A    
C36   C40   A    
S19   O105  S    
C9    C49   S    
S4    O58   D    
O20   Zn4   S    
O31   Zn7   S    
C10   C14   A    
O60   H32   S    
S13   O86   D    
C53   C57   T    
O57   H31   S    
C42   H6    S    
S11   O81   S    
O29   Zn5   S    
C65   O39   A    
C77   C84   T    
C28   H24   S    
S17   O97   D    
C98   C102  A    
O2    Zn1   S    
C66   O40   A    
C29   H25   S    
C76   O16   A    
C89   C93   A    
C34   S2    S    
C56   C60   T    
O12   Zn11  S    
O47   Zn11  S    
S9    O74   D    
C34   C38   A    
C6    C110  A    
C16   H20   S    
C15   C19   A    
O108  H48   S    
O17   Zn3   S    
O5    Zn9   S    
O66   H34   S    
C26   H22   S    
C67   O42   A    
C35   S3    S    
O81   H39   S    
C7    C65   S    
C57   C71   S    
C47   O27   A    
C75   O13   A    
C93   C97   A    
C103  S19   S    
S3    O55   D    
C48   O28   A    
S16   O96   S    
C28   C32   A    
C2    O18   A    
S12   O82   D    
C24   C96   S    
O54   H30   S    
O1    Zn1   S    
C1    O17   A    
S7    O68   D    
C16   C20   A    
O36   Zn8   S    
C2    C54   S    
C4    O4    A    
C107  H3    S    
C20   C48   S    
O40   Zn7   S    
S14   O89   D    
C70   O47   A    
C42   C50   A    
O42   Zn6   S    
C68   C86   S    
C109  H13   S    
S20   O106  D    
C71   O5    A    
C92   H12   S    
S16   O95   D    
O34   Zn6   S    
S6    O65   D    
C111  H15   S    
C2    O2    A    
S1    O51   S    
C80   S10   S    
O32   Zn8   S    
C61   O29   A    
O69   H35   S    
C64   O34   A    
O84   H40   S    
C10   C50   S    
C69   O45   A    
C99   S15   S    
C104  C108  A    
C25   H21   S    
S18   O100  D    
C19   C23   A    
C33   C37   A    
C86   C87   T    
C54   C58   T    
C85   C88   T    
C74   O8    A    
S15   O92   D    
S2    O54   S    
S10   O76   D    
C68   O44   A    
C13   H17   S    
C73   O7    A    
C82   S12   S    
S18   O102  S    
S3    O56   D    
C18   C22   A    
O11   Zn12  S    
C62   C78   S    
C89   H9    S    
O8    Zn12  S    
C17   C45   S    
O6    Zn10  S    
S14   O90   S    
C63   O37   A    
C6    C10   A    
S13   O87   S    
C21   C109  A    
C26   C30   A    
S18   O101  D    
C48   O24   A    
C70   O48   A    
C104  S20   S    
S6    O66   S    
C62   O32   A    
C73   O11   A    
O9    Zn10  S    
C76   O15   A    
C72   O10   A    
C21   C93   S    
O28   Zn4   S    
S8    O72   S    
C101  S17   S    
S9    O75   S    
C27   H23   S    
S17   O98   D    
C102  S18   S    
O21   Zn1   S    
C26   C50   A    
C23   C111  A    
C37   S5    S    
S5    O62   D    
O44   Zn8   S    
O18   Zn3   S    
C36   S4    S    
O33   Zn5   S    
C28   C52   A    
C75   O14   A    
C58   C72   S    
C64   O38   A    
C71   O9    A    
C5    C109  A    
C98   S14   S    
S9    O73   D    
C72   O6    A    
C35   C39   A    
C96   C100  A    
C33   S1    S    
O25   Zn3   S    
O3    Zn2   S    
S8    O71   D    
C102  C106  A    
S7    O69   S    
C31   C35   A    
C79   S9    S    
C32   H28   S    
C80   C90   A    
C20   C24   A    
C61   O30   A    
C25   C49   A    
C112  H16   S    
C1    O1    A    
S14   O88   D    
C91   C95   A    
C13   C17   A    
C81   C91   A    
C40   C44   A    
S3    O57   S    
C15   H19   S    
S16   O94   D    
C39   C43   A    
S6    O64   D    
C46   O22   A    
C19   C47   S    
S7    O67   D    
C44   H8    S    
O102  H46   S    
O46   Zn10  S    
C103  C107  A    
C5    C9    A    
C41   H5    S    
S2    O53   D    
C31   H27   S    
C7    C111  A    
O35   Zn7   S    
O22   Zn1   S    
C97   C101  A    
O24   Zn2   S    
S2    O52   D    
C43   H7    S    
S10   O78   S    
C17   C21   A    
