data_mof_unit_17564.cif
_audit_creation_date              2012-12-10T19:48:29-0500
_audit_creation_method            fapswitch 2.2
_symmetry_space_group_name_H-M    P1
_symmetry_Int_Tables_number       1
_space_group_crystal_system       triclinic
_cell_length_a                    10.827444
_cell_length_b                    10.624763
_cell_length_c                    9.419727
_cell_angle_alpha                 89.040631
_cell_angle_beta                  90.747029
_cell_angle_gamma                 89.148951
_cell_volume                      1083.26912171

loop_
_atom_site_label
_atom_site_type_symbol
_atom_type_description
_atom_site_fract_x
_atom_site_fract_y
_atom_site_fract_z
_atom_type_partial_charge
C1    C     C_R   0.500259 0.259374 0.501023 0.771315
C2    C     C_R   0.499741 0.740626 0.498977 0.771315
C3    C     C_R   0.871556 0.493806 0.502247 -0.084310
C4    C     C_R   0.128444 0.506194 0.497753 -0.084310
C5    C     C_R   0.942017 0.432629 0.610897 -0.001072
C6    C     C_R   0.057983 0.567371 0.389103 -0.001072
C7    C     C_3   0.491575 0.037446 0.635215 -0.146655
C8    C     C_3   0.508424 0.962554 0.364784 -0.146655
C9    C     C_3   0.596845 0.954314 0.576021 -0.171593
C10   C     C_3   0.403155 0.045686 0.423979 -0.171592
C11   C     C_3   0.499723 0.877643 0.497346 0.034242
C12   C     C_3   0.500277 0.122357 0.502654 0.034242
C13   C     C_3   0.394518 0.958466 0.556404 -0.175304
C14   C     C_3   0.605482 0.041534 0.443595 -0.175304
C15   C     C_3   0.535287 0.607333 0.048932 -0.050646
C16   C     C_3   0.464713 0.392667 0.951068 -0.050646
C17   C     C_3   0.426104 0.586189 0.946406 -0.017122
C18   C     C_3   0.573896 0.413812 0.053594 -0.017122
C19   C     C_3   0.609379 0.521052 0.950956 -0.027420
C20   C     C_3   0.390621 0.478948 0.049043 -0.027420
C21   C     C_R   0.262470 0.504033 0.498941 0.783172
C22   C     C_R   0.737530 0.495967 0.501059 0.783172
C23   C     C_R   0.231913 0.821794 0.191281 -0.129027
C24   C     C_R   0.768087 0.178206 0.808719 -0.129027
C25   C     C_R   0.189856 0.745051 0.302121 -0.088207
C26   C     C_R   0.810144 0.254949 0.697879 -0.088207
C27   C     C_R   0.112145 0.643725 0.272789 0.124963
C28   C     C_R   0.887854 0.356275 0.727211 0.124963
C29   C     C_R   0.077103 0.621377 0.131422 -0.179158
C30   C     C_R   0.922897 0.378623 0.868578 -0.179158
C31   C     C_R   0.119343 0.698250 0.021113 -0.159015
C32   C     C_R   0.880656 0.301750 0.978887 -0.159015
C33   C     C_R   0.196404 0.798810 0.051185 -0.140173
C34   C     C_R   0.803596 0.201190 0.948815 -0.140173
C35   C     C_R   0.929968 0.559476 0.392892 -0.242577
C36   C     C_R   0.070032 0.440524 0.607108 -0.242577
Cu1   Cu    Cu3+1 0.500030 0.499990 0.643150 0.934423
Cu2   Cu    Cu3+1 0.499970 0.500010 0.356850 0.934423
H1    H     H_    0.228799 0.858818 0.965898 0.117303
H2    H     H_    0.771201 0.141183 0.034103 0.117303
H3    H     H_    0.365144 0.658690 0.894872 0.120416
H4    H     H_    0.634856 0.341310 0.105128 0.120416
H5    H     H_    0.565000 0.697793 0.094680 0.112183
H6    H     H_    0.435000 0.302207 0.905320 0.112183
H7    H     H_    0.701411 0.539662 0.905348 0.130533
H8    H     H_    0.298588 0.460338 0.094651 0.130533
H9    H     H_    0.290632 0.900266 0.213588 0.121124
H10   H     H_    0.709369 0.099735 0.786413 0.121124
H11   H     H_    0.015962 0.544895 0.107645 0.117797
H12   H     H_    0.984038 0.455106 0.892355 0.117797
H13   H     H_    0.091929 0.680223 0.912502 0.131013
H14   H     H_    0.908070 0.319778 0.087498 0.131013
H15   H     H_    0.874957 0.608834 0.311867 0.154798
H16   H     H_    0.125043 0.391166 0.688133 0.154798
H17   H     H_    0.676174 0.912946 0.637397 0.123006
H18   H     H_    0.323826 0.087054 0.362603 0.123005
H19   H     H_    0.483845 0.070659 0.745913 0.122191
H20   H     H_    0.516156 0.929341 0.254087 0.122191
H21   H     H_    0.308147 0.921386 0.602315 0.116218
H22   H     H_    0.691853 0.078614 0.397684 0.116218
N1    N     N_3   0.500090 0.499970 0.858290 -0.158732
N2    N     N_3   0.499910 0.500030 0.141710 -0.158732
O1    O     O_R   0.500060 0.316850 0.620870 -0.584304
O2    O     O_R   0.499940 0.683150 0.379130 -0.584304
O3    O     O_R   0.500000 0.316860 0.379090 -0.585671
O4    O     O_R   0.500000 0.683140 0.620910 -0.585671
O5    O     O_R   0.319670 0.500010 0.620890 -0.587839
O6    O     O_R   0.680330 0.499990 0.379110 -0.587839
O7    O     O_R   0.319620 0.500010 0.379110 -0.574111
O8    O     O_R   0.680380 0.499990 0.620890 -0.574111
H23   H     H_    0.215772 0.765971 0.410486 0.088240
H24   H     H_    0.784229 0.234029 0.589514 0.088240

loop_
_geom_bond_atom_site_label_1
_geom_bond_atom_site_label_2
_ccdc_geom_bond_type
C4    C36   A    
C35   H15   S    
C26   H24   S    
C29   H11   S    
C15   C19   S    
C33   H1    S    
C34   H2    S    
C24   C26   A    
C18   H4    S    
C27   C29   A    
C5    C36   A    
C17   C20   S    
C6    C35   A    
C7    C9    S    
C18   C19   S    
C32   H14   S    
C17   N1    S    
C23   C33   A    
C1    O3    A    
C31   C33   A    
C25   H23   S    
C10   H18   S    
C16   H6    S    
C8    H20   S    
C30   H12   S    
Cu2   O7    S    
Cu1   O8    S    
C21   O5    A    
C1    C12   S    
C2    C11   S    
C1    O1    A    
Cu1   O1    S    
C2    O2    A    
Cu2   O2    S    
C7    C12   S    
C23   H9    S    
C24   H10   S    
C4    C6    A    
C18   N2    S    
C3    C5    A    
C24   C34   A    
C21   O7    A    
C32   C34   A    
C9    C14   S    
Cu1   Cu2   S    
C5    C28   S    
C6    C27   S    
Cu2   O3    S    
C3    C35   A    
C16   C20   S    
Cu1   O4    S    
C9    C11   S    
C22   O6    A    
C10   C12   S    
C9    H17   S    
C16   C18   S    
Cu2   O6    S    
C16   N1    S    
C15   C17   S    
C8    C14   S    
C31   H13   S    
C2    O4    A    
C10   C13   S    
Cu1   N1    S    
C19   H7    S    
C13   H21   S    
C25   C27   A    
C14   H22   S    
C26   C28   A    
C28   C30   A    
C12   C14   S    
C15   H5    S    
C29   C31   A    
C30   C32   A    
C4    C21   S    
C11   C13   S    
C19   N1    S    
C8    C11   S    
Cu1   O5    S    
C15   N2    S    
C7    H19   S    
C23   C25   A    
C20   N2    S    
C17   H3    S    
C36   H16   S    
C7    C13   S    
C8    C10   S    
C3    C22   S    
C22   O8    A    
C20   H8    S    
Cu2   N2    S    
