data_mof_unit_41122.cif
_audit_creation_date              2012-12-10T17:51:24-0500
_audit_creation_method            fapswitch 2.2
_symmetry_space_group_name_H-M    P1
_symmetry_Int_Tables_number       1
_space_group_crystal_system       triclinic
_cell_length_a                    14.720097
_cell_length_b                    14.731386
_cell_length_c                    17.358273
_cell_angle_alpha                 106.041513
_cell_angle_beta                  73.14889
_cell_angle_gamma                 115.177934
_cell_volume                      3208.9296759

loop_
_atom_site_label
_atom_site_type_symbol
_atom_type_description
_atom_site_fract_x
_atom_site_fract_y
_atom_site_fract_z
_atom_type_partial_charge
C1    C     C_R   0.118494 0.687866 0.513537 0.809585
C2    C     C_R   0.881506 0.312134 0.486464 0.809582
C3    C     C_R   0.185344 0.795371 0.515030 -0.090369
C4    C     C_R   0.814656 0.204629 0.484975 -0.090370
C5    C     C_R   0.225394 0.958541 0.481458 -0.194665
C6    C     C_R   0.774610 0.041463 0.518549 -0.194672
C7    C     C_R   0.156904 0.859776 0.489194 -0.211564
C8    C     C_R   0.843101 0.140227 0.510806 -0.211569
C9    C     C_R   0.281790 0.831387 0.535303 -0.072581
C10   C     C_R   0.718207 0.168613 0.464710 -0.072579
C11   C     C_R   0.358421 0.922880 0.511422 0.044244
C12   C     C_R   0.641577 0.077123 0.488597 0.044251
C13   C     C_R   0.326242 0.990100 0.491187 0.148863
C14   C     C_R   0.673758 0.009904 0.508831 0.148860
C15   C     C_R   0.465025 0.950289 0.506811 0.063006
C16   C     C_R   0.534973 0.049715 0.493214 0.063003
C17   C     C_R   0.495428 0.120049 0.489039 -0.195110
C18   C     C_R   0.504569 0.879956 0.510988 -0.195112
C19   C     C_R   0.394217 0.089089 0.483265 -0.221275
C20   C     C_R   0.605782 0.910918 0.516757 -0.221287
C21   C     C_R   0.296522 0.331313 0.360788 -0.321360
C22   C     C_R   0.703480 0.668690 0.639210 -0.321360
C23   C     C_R   0.988903 0.502069 0.652359 0.797280
C24   C     C_R   0.011096 0.497930 0.347641 0.797277
C25   C     C_R   0.212632 0.360250 0.382958 0.075076
C26   C     C_R   0.787369 0.639752 0.617041 0.075077
C27   C     C_R   0.285376 0.489835 0.488863 0.003724
C28   C     C_R   0.714624 0.510164 0.511137 0.003723
C29   C     C_R   0.373438 0.464279 0.469300 -0.022049
C30   C     C_R   0.626564 0.535723 0.530698 -0.022049
C31   C     C_R   0.376981 0.382810 0.403647 0.162720
C32   C     C_R   0.623022 0.617194 0.596349 0.162722
C33   C     C_R   0.457165 0.515701 0.512051 0.075240
C34   C     C_R   0.542838 0.484301 0.487945 0.075238
C35   C     C_R   0.541763 0.402607 0.422053 -0.240577
C36   C     C_R   0.458242 0.597398 0.577941 -0.240579
C37   C     C_R   0.460556 0.353043 0.381104 -0.201664
C38   C     C_R   0.539448 0.646963 0.618891 -0.201666
C39   C     C_R   0.980981 0.498596 0.737378 -0.026501
C40   C     C_R   0.019013 0.501392 0.262620 -0.026503
C41   C     C_R   0.048267 0.467850 0.757047 -0.192890
C42   C     C_R   0.951722 0.532131 0.242949 -0.192893
C43   C     C_R   0.040491 0.462941 0.837411 -0.144727
C44   C     C_R   0.959491 0.537026 0.162583 -0.144723
C45   C     C_R   0.966133 0.490122 0.899453 0.189484
C46   C     C_R   0.033847 0.509841 0.100541 0.189485
C47   C     C_R   0.897283 0.518440 0.879779 -0.166410
C48   C     C_R   0.102701 0.481531 0.120217 -0.166412
C49   C     C_R   0.904856 0.523162 0.799135 -0.190662
C50   C     C_R   0.095135 0.476822 0.200864 -0.190660
C51   C     C_2   0.958641 0.489376 0.985178 -0.225950
C52   C     C_2   0.041337 0.510581 0.014815 -0.225948
Cu1   Cu    Cu3+1 0.916740 0.524770 0.521640 0.946184
Cu2   Cu    Cu3+1 0.083260 0.475230 0.478360 0.946185
H1    H     H_    0.106557 0.446799 0.710364 0.156678
H2    H     H_    0.893433 0.553184 0.289632 0.156676
H3    H     H_    0.541233 0.200111 0.490700 0.160067
H4    H     H_    0.458764 0.799895 0.509327 0.160068
H5    H     H_    0.463385 0.290565 0.330939 0.151070
H6    H     H_    0.536621 0.709442 0.669053 0.151069
H7    H     H_    0.724472 0.450146 0.461761 0.139978
H8    H     H_    0.275526 0.549851 0.538240 0.139981
H9    H     H_    0.849697 0.679794 0.649822 0.127323
H10   H     H_    0.150304 0.320207 0.350177 0.127323
H11   H     H_    0.298386 0.268795 0.310482 0.138791
H12   H     H_    0.701617 0.731209 0.689515 0.138791
H13   H     H_    0.603088 0.374986 0.400239 0.163580
H14   H     H_    0.396920 0.625023 0.599752 0.163579
H15   H     H_    0.148528 0.453743 0.214707 0.153653
H16   H     H_    0.851466 0.546246 0.785292 0.153654
H17   H     H_    0.116414 0.526395 0.975104 0.147779
H18   H     H_    0.883565 0.473562 0.024890 0.147778
H19   H     H_    0.838849 0.538561 0.927039 0.126602
H20   H     H_    0.161135 0.461407 0.072958 0.126602
H21   H     H_    0.908023 0.563227 0.149534 0.126572
H22   H     H_    0.091956 0.436735 0.850458 0.126573
H23   H     H_    0.368499 0.143683 0.474337 0.150871
H24   H     H_    0.631501 0.856324 0.525680 0.150876
H25   H     H_    0.918194 0.166301 0.524946 0.158230
H26   H     H_    0.081814 0.833702 0.475045 0.158225
H27   H     H_    0.200910 0.008820 0.464469 0.137482
H28   H     H_    0.799096 0.991185 0.535533 0.137488
N1    N     N_R   0.208390 0.438070 0.445820 -0.180549
N2    N     N_R   0.791610 0.561930 0.554180 -0.180547
O1    O     O_R   0.020090 0.662480 0.528530 -0.590714
O2    O     O_R   0.979910 0.337520 0.471470 -0.590716
O3    O     O_R   0.160710 0.620650 0.491980 -0.575303
O4    O     O_R   0.839290 0.379350 0.508020 -0.575304
O5    O     O_R   0.921540 0.523360 0.633990 -0.590680
O6    O     O_R   0.078460 0.476640 0.366010 -0.590680
O7    O     O_R   0.062170 0.481520 0.597440 -0.589079
O8    O     O_R   0.937830 0.518480 0.402560 -0.589079
C53   C     C_1   0.708613 0.213680 0.404443 0.210980
N3    N     N_1   0.701945 0.249157 0.355582 -0.320367
C54   C     C_1   0.291375 0.786313 0.595569 0.210973
N4    N     N_1   0.298035 0.750828 0.644427 -0.320367

loop_
_geom_bond_atom_site_label_1
_geom_bond_atom_site_label_2
_ccdc_geom_bond_type
C1    O3    A    
C15   C18   A    
C53   N3    T    
C6    H28   S    
C29   C33   A    
C28   N2    A    
C54   N4    T    
C4    C8    A    
C39   C41   A    
Cu1   Cu2   S    
C21   C31   A    
C22   C32   A    
Cu1   N2    S    
C35   C37   A    
C50   H15   S    
Cu2   O6    S    
C3    C7    A    
Cu2   O3    S    
C23   C39   S    
C27   C29   A    
C45   C51   S    
C15   C16   A    
C46   C52   S    
C33   C36   A    
C34   C35   A    
C19   H23   S    
C22   H12   S    
C42   H2    S    
C11   C15   A    
C18   H4    S    
C41   H1    S    
C12   C16   A    
C16   C17   A    
C8    H25   S    
C23   O5    A    
C2    O4    A    
C32   C38   A    
C9    C54   S    
C5    C13   A    
C28   H7    S    
C40   C42   A    
C41   C43   A    
C42   C44   A    
C24   O8    A    
Cu2   N1    S    
C44   C46   A    
C45   C47   A    
C1    O1    A    
C46   C48   A    
C30   C34   A    
C51   C52   D    
C48   H20   S    
C47   H19   S    
C47   C49   A    
Cu2   O2    S    
C13   C19   A    
C17   C19   A    
C6    C8    A    
C10   C53   S    
C31   C37   A    
C1    C3    S    
C25   H10   S    
C44   H21   S    
C2    C4    S    
C26   H9    S    
C3    C9    A    
C27   H8    S    
C14   C20   A    
C6    C14   A    
C5    H27   S    
C35   H13   S    
Cu1   O8    S    
C33   C34   A    
C9    C11   A    
C37   H5    S    
C10   C12   A    
C38   H6    S    
C39   C49   A    
C12   C14   A    
C49   H16   S    
Cu1   O5    S    
C23   O7    A    
C51   H18   S    
C4    C10   A    
C36   C38   A    
C5    C7    A    
C43   H22   S    
C21   C25   A    
C26   N2    A    
C21   H11   S    
C24   O6    A    
C36   H14   S    
C20   H24   S    
C28   C30   A    
Cu2   O7    S    
C43   C45   A    
C52   H17   S    
C30   C32   A    
C11   C13   A    
C40   C50   A    
C48   C50   A    
C24   C40   S    
C2    O2    A    
Cu1   O4    S    
C18   C20   A    
C27   N1    A    
C29   C31   A    
C22   C26   A    
C25   N1    A    
Cu1   O1    S    
C17   H3    S    
C7    H26   S    
