data_mof_unit_5072.cif
_audit_creation_date              2012-12-10T19:08:07-0500
_audit_creation_method            fapswitch 2.2
_symmetry_space_group_name_H-M    P1
_symmetry_Int_Tables_number       1
_space_group_crystal_system       triclinic
_cell_length_a                    9.066153
_cell_length_b                    10.822602
_cell_length_c                    9.575932
_cell_angle_alpha                 90.144826
_cell_angle_beta                  89.934258
_cell_angle_gamma                 90.259791
_cell_volume                      939.571106516

loop_
_atom_site_label
_atom_site_type_symbol
_atom_type_description
_atom_site_fract_x
_atom_site_fract_y
_atom_site_fract_z
_atom_type_partial_charge
C1    C     C_R   0.497627 0.262393 0.499853 0.796977
C2    C     C_R   0.467769 0.935129 0.373342 -0.225198
C3    C     C_R   0.483907 0.870685 0.499722 -0.094300
C4    C     C_R   0.479707 0.936640 0.625055 0.134111
C5    C     C_3   0.579650 0.930953 0.748765 -0.477645
C6    C     C_3   0.579041 0.071273 0.748886 -0.460728
C7    C     C_R   0.584694 0.582498 0.072881 0.158011
C8    C     C_R   0.407539 0.424658 0.073983 0.244055
C9    C     C_R   0.408793 0.424337 0.924970 -0.119646
C10   C     C_R   0.580158 0.585960 0.926261 0.196367
C11   C     C_3   0.741512 0.610084 0.914285 -0.437061
C12   C     C_R   0.220781 0.499897 0.500030 0.851169
C13   C     C_3   0.750107 0.598642 0.072060 -0.077210
C14   C     C_R   0.497777 0.737584 0.500048 0.789817
C15   C     C_R   0.779201 0.500056 0.500003 0.843424
C16   C     C_1   0.065578 0.499940 0.500107 -0.193565
C17   C     C_1   0.934391 0.500002 0.500077 -0.215577
C18   C     C_R   0.479434 0.063843 0.624936 0.119269
C19   C     C_R   0.483768 0.129162 0.499455 -0.095392
C20   C     C_R   0.467934 0.063880 0.373216 -0.214951
Cu1   Cu    Cu3+1 0.499990 0.499980 0.640670 0.942821
Cu2   Cu    Cu3+1 0.500010 0.500020 0.359330 0.951872
H1    H     H_    0.463063 0.111504 0.274109 0.165580
H2    H     H_    0.788459 0.684519 0.125269 0.148328
H3    H     H_    0.524102 0.890195 0.841516 0.195769
H4    H     H_    0.522744 0.111508 0.841535 0.193673
H5    H     H_    0.688297 0.112804 0.723741 0.200575
H6    H     H_    0.337494 0.361286 0.868473 0.141434
N1    N     N_R   0.500920 0.500930 0.147930 -0.188003
N2    N     N_R   0.500930 0.500890 0.852020 -0.185525
O1    O     O_R   0.500000 0.319640 0.618810 -0.584309
O2    O     O_R   0.500020 0.319680 0.381230 -0.563133
O3    O     O_R   0.288380 0.499980 0.618770 -0.580634
O4    O     O_R   0.288400 0.500020 0.381190 -0.552215
O5    O     O_R   0.499980 0.680320 0.618770 -0.576480
O6    O     O_R   0.500000 0.680360 0.381190 -0.590241
O7    O     O_R   0.711600 0.499980 0.618810 -0.582310
O8    O     O_R   0.711620 0.500020 0.381230 -0.590346
H7    H     H_    0.765120 0.705142 0.876539 0.151895
N3    N     N_3   0.834511 0.487893 0.108914 -0.570528
H8    H     H_    0.906515 0.509768 0.190521 0.241107
H9    H     H_    0.765905 0.415445 0.140959 0.256857
H10   H     H_    0.462301 0.886825 0.274264 0.163889
H11   H     H_    0.689196 0.890969 0.723110 0.193272
N4    N     N_3   0.310336 0.342876 0.146764 -0.525298
H12   H     H_    0.332052 0.252879 0.112940 0.176252
H13   H     H_    0.202364 0.364121 0.117468 0.203426
H14   H     H_    0.801739 0.536151 0.857658 0.240347

loop_
_geom_bond_atom_site_label_1
_geom_bond_atom_site_label_2
_ccdc_geom_bond_type
C7    C10   A    
C15   O8    A    
C6    H5    S    
C7    N1    A    
Cu2   N1    S    
Cu1   O1    S    
Cu1   N2    S    
C10   N2    A    
C19   C20   A    
C20   H1    S    
C7    C13   S    
C2    H10   S    
C4    C18   A    
N3    H9    S    
C2    C3    A    
C15   O7    A    
N4    H12   S    
C11   H7    S    
C11   C13   S    
C11   H14   S    
C6    H4    S    
C3    C14   S    
Cu2   O2    S    
C9    N2    A    
Cu1   O5    S    
C8    N1    A    
N3    H8    S    
C5    H11   S    
N4    H13   S    
C14   O6    A    
C5    C6    S    
Cu2   O4    S    
C6    C18   S    
C5    H3    S    
C1    C19   S    
Cu1   O3    S    
C10   C11   S    
C12   O4    A    
C3    C4    A    
Cu2   O8    S    
C16   C17   T    
C1    O1    A    
Cu1   O7    S    
C9    H6    S    
C18   C19   A    
C14   O5    A    
C15   C17   S    
C8    N4    S    
C8    C9    A    
C13   N3    S    
C12   O3    A    
Cu1   Cu2   S    
C2    C20   A    
C1    O2    A    
Cu2   O6    S    
C12   C16   S    
C13   H2    S    
C4    C5    S    
