data_mof_unit_26527.cif
_audit_creation_date              2012-10-26T19:15:59-0400
_audit_creation_method            fapswitch 2.2
_symmetry_space_group_name_H-M    P1
_symmetry_Int_Tables_number       1
_space_group_crystal_system       triclinic
_cell_length_a                    7.80366
_cell_length_b                    9.090747
_cell_length_c                    17.082529
_cell_angle_alpha                 89.664462
_cell_angle_beta                  94.145928
_cell_angle_gamma                 89.994222
_cell_volume                      1208.66124539

loop_
_atom_site_label
_atom_site_type_symbol
_atom_type_description
_atom_site_fract_x
_atom_site_fract_y
_atom_site_fract_z
_atom_type_partial_charge
C1    C     C_R   0.499990 0.220099 0.499974 0.545247
C2    C     C_R   0.582859 0.595235 0.141670 0.096491
C3    C     C_R   0.542821 0.458347 0.903752 0.156007
C4    C     C_R   0.447894 0.523020 0.098043 0.145150
C5    C     C_R   0.695168 0.460704 0.865165 0.076896
C6    C     C_R   0.317423 0.452321 0.136594 0.093187
C7    C     C_R   0.689429 0.462665 0.782801 0.229473
C8    C     C_R   0.323137 0.450317 0.218800 0.226665
C9    C     C_1   0.500025 0.065387 0.499928 -0.054514
C10   C     C_1   0.500019 0.934597 0.499925 -0.061866
C11   C     C_3   0.667776 0.809599 0.281180 -0.079405
C12   C     C_R   0.500017 0.779895 0.499979 0.532723
C13   C     C_3   0.175470 0.656541 0.744801 -0.046220
C14   C     C_3   0.871064 0.298957 0.733658 -0.066661
C15   C     C_3   0.050895 0.459106 0.258021 -0.023370
C16   C     C_R   0.521117 0.495610 0.651777 0.558683
C17   C     C_R   0.478214 0.504005 0.348668 0.580682
C18   C     C_R   0.530678 0.483285 0.738686 -0.048590
C19   C     C_R   0.463722 0.514862 0.262545 -0.042157
C20   C     C_R   0.377628 0.484258 0.778314 0.187534
C21   C     C_R   0.588844 0.593441 0.223694 0.218166
C22   C     C_R   0.383748 0.454397 0.859221 0.104334
Cu1   Cu    Cu3+1 0.669080 0.500010 0.500000 1.036457
Cu2   Cu    Cu3+1 0.330920 0.499990 0.500000 1.043126
H1    H     H_    0.553474 0.809896 0.316578 0.103099
H2    H     H_    0.131037 0.395716 0.853472 0.299141
H3    H     H_    0.864097 0.368816 0.946590 0.235265
H4    H     H_    0.866067 0.555511 0.943718 0.238723
H5    H     H_    0.118202 0.451157 0.053915 0.245586
H6    H     H_    0.235487 0.293574 0.060533 0.248743
H7    H     H_    0.764269 0.247637 0.696599 0.100346
H8    H     H_    0.891913 0.238144 0.790280 0.100624
H9    H     H_    0.989416 0.287749 0.701945 0.177538
H10   H     H_    0.983768 0.469674 0.198666 0.162700
H11   H     H_    0.961287 0.404021 0.296352 0.165625
H12   H     H_    0.640198 0.873176 0.225820 0.138515
H13   H     H_    0.079184 0.570259 0.282855 0.146644
H14   H     H_    0.773269 0.866551 0.315891 0.149214
H15   H     H_    0.275717 0.730668 0.723197 0.087875
H16   H     H_    0.151407 0.683539 0.806509 0.140952
H17   H     H_    0.054851 0.677687 0.708042 0.177645
H18   H     H_    0.785423 0.597098 0.074159 0.239644
H19   H     H_    0.655214 0.746767 0.062982 0.239102
H20   H     H_    0.252655 0.312570 0.922725 0.212576
N1    N     N_1   0.076820 0.499970 0.500010 -0.076904
N2    N     N_1   0.923180 0.500030 0.499990 -0.077116
N3    N     N_2   0.553699 0.455902 0.987113 -0.248606
N4    N     N_2   0.436486 0.526950 0.015293 -0.204869
N5    N     N_3   0.713868 0.673045 0.103795 -0.593459
N6    N     N_3   0.230438 0.415288 0.896118 -0.577727
N7    N     N_3   0.857797 0.460708 0.909378 -0.601565
N8    N     N_3   0.181264 0.376516 0.092874 -0.596126
O1    O     O_R   0.642760 0.288400 0.500000 -0.510329
O2    O     O_3   0.220122 0.507088 0.737568 -0.531520
O3    O     O_3   0.840626 0.449845 0.746061 -0.511828
O4    O     O_3   0.200540 0.372160 0.256464 -0.540913
O5    O     O_R   0.357240 0.711600 0.500000 -0.506930
O6    O     O_R   0.357190 0.288380 0.500000 -0.491776
O7    O     O_R   0.642810 0.711620 0.500000 -0.500823
O8    O     O_R   0.658410 0.498660 0.613920 -0.470887
O9    O     O_R   0.341590 0.501340 0.386080 -0.486933
O10   O     O_R   0.372840 0.498650 0.613930 -0.459172
O11   O     O_R   0.627160 0.501350 0.386070 -0.475001
O12   O     O_3   0.721615 0.665167 0.265818 -0.555112

loop_
_geom_bond_atom_site_label_1
_geom_bond_atom_site_label_2
_ccdc_geom_bond_type
C11   H14   S    
C2    C4    A    
Cu1   Cu2   S    
C21   O12   S    
Cu2   O9    S    
C2    N5    S    
C3    N3    S    
C9    C10   T    
Cu2   O5    S    
C15   H10   S    
N3    N4    D    
C7    O3    S    
C14   H7    S    
C22   N6    S    
C7    C18   A    
C6    N8    S    
C15   O4    S    
C8    O4    S    
C14   H9    S    
Cu1   O11   S    
C14   O3    S    
Cu1   N2    S    
C15   H13   S    
C1    O6    A    
C17   O11   A    
Cu1   O7    S    
H3    N7    S    
C11   H1    S    
C16   O10   A    
Cu2   O10   S    
C2    C21   A    
C12   O5    A    
C10   C12   S    
C20   O2    S    
C11   H12   S    
C19   C21   A    
C20   C22   A    
Cu1   O1    S    
C18   C20   A    
H2    N6    S    
C4    N4    S    
Cu1   O8    S    
H4    N7    S    
C13   H15   S    
C8    C19   A    
Cu2   N1    S    
H18   N5    S    
H20   N6    S    
Cu2   O6    S    
C3    C5    A    
C1    C9    S    
C16   C18   S    
C13   O2    S    
C16   O8    A    
C15   H11   S    
C5    C7    A    
C1    O1    A    
C13   H17   S    
C17   C19   S    
C3    C22   A    
C6    C8    A    
C17   O9    A    
N1    N2    T    
C12   O7    A    
C4    C6    A    
C11   O12   S    
H19   N5    S    
C5    N7    S    
C14   H8    S    
H6    N8    S    
C13   H16   S    
H5    N8    S    
