data_mof_unit_24343.cif
_audit_creation_date              2012-12-11T15:10:40-0500
_audit_creation_method            fapswitch 2.2
_symmetry_space_group_name_H-M    P1
_symmetry_Int_Tables_number       1
_space_group_crystal_system       triclinic
_cell_length_a                    21.042029
_cell_length_b                    7.230255
_cell_length_c                    18.526269
_cell_angle_alpha                 90.114332
_cell_angle_beta                  92.93774
_cell_angle_gamma                 90.108105
_cell_volume                      2814.85708914

loop_
_atom_site_label
_atom_site_type_symbol
_atom_type_description
_atom_site_fract_x
_atom_site_fract_y
_atom_site_fract_z
_atom_type_partial_charge
O1    O     O_R   0.448880 0.506250 0.415280 -0.539283
O2    O     O_R   0.551120 0.006250 0.584720 -0.539228
O3    O     O_R   0.434830 0.174000 0.557310 -0.508736
O4    O     O_R   0.565170 0.674000 0.442690 -0.511656
C1    C     C_R   0.418603 0.344253 0.581690 0.704097
C2    C     C_R   0.581401 0.844242 0.418330 0.701409
O5    O     O_R   0.441680 0.176440 0.414130 -0.525304
O6    O     O_R   0.558320 0.676440 0.585870 -0.526478
O7    O     O_R   0.558020 0.007570 0.440520 -0.529465
O8    O     O_R   0.441980 0.507570 0.559480 -0.529724
C3    C     C_R   0.426324 0.345055 0.389812 0.779528
C4    C     C_R   0.573691 0.845638 0.610108 0.777587
O9    O     O_3   0.538160 0.339670 0.508820 -0.374008
O10   O     O_3   0.461840 0.839670 0.491180 -0.372572
V1    V     V_3+5 0.492920 0.064260 0.498360 1.544577
V2    V     V_3+5 0.507080 0.564260 0.501640 1.539322
C5    C     C_R   0.888038 0.830800 0.692479 -0.061532
C6    C     C_R   0.109950 0.372335 0.310895 -0.052385
C7    C     C_R   0.891251 0.931294 0.818582 -0.183229
C8    C     C_R   0.108633 0.435334 0.181494 -0.199370
C9    C     C_R   0.585736 0.837012 0.742000 0.453361
C10   C     C_R   0.413046 0.327717 0.258060 0.453844
C11   C     C_R   0.620436 0.821211 0.808056 -0.202085
C12   C     C_R   0.377608 0.305659 0.192734 -0.199044
C13   C     C_R   0.687112 0.831972 0.809930 0.648643
C14   C     C_R   0.311016 0.318881 0.191557 0.642462
C15   C     C_R   0.719890 0.874318 0.747120 -0.039616
C16   C     C_R   0.279124 0.371136 0.253972 -0.040198
C17   C     C_R   0.684809 0.871265 0.678565 -0.238380
C18   C     C_R   0.314689 0.369583 0.322151 -0.235281
C19   C     C_R   0.788008 0.898543 0.750452 0.046964
C20   C     C_R   0.211342 0.404079 0.250789 0.059851
C21   C     C_R   0.821135 0.861072 0.687496 -0.090856
C22   C     C_R   0.177787 0.381877 0.314816 -0.117925
C23   C     C_R   0.786950 0.864477 0.620381 0.667721
C24   C     C_R   0.212977 0.369546 0.381400 0.599829
C25   C     C_R   0.720448 0.875733 0.615413 -0.111638
C26   C     C_R   0.279547 0.373148 0.385529 -0.080226
C27   C     C_R   0.824521 0.960348 0.813442 -0.013717
C28   C     C_R   0.175634 0.457605 0.186190 -0.010868
C29   C     C_R   0.922675 0.861015 0.758797 -0.081462
C30   C     C_R   0.075651 0.394098 0.243860 -0.062384
C31   C     C_R   0.616340 0.854941 0.676930 -0.164591
C32   C     C_R   0.383147 0.351911 0.323275 -0.169465
C33   C     C_1   0.863944 0.939076 0.131360 -0.161868
C34   C     C_1   0.135947 0.439163 0.868494 -0.149168
C35   C     C_1   0.820599 0.925039 0.174489 0.062461
C36   C     C_1   0.179208 0.425152 0.825261 0.055725
C37   C     C_1   0.769399 0.905875 0.225781 0.063332
C38   C     C_1   0.230314 0.405979 0.773854 0.050567
C39   C     C_1   0.726325 0.889174 0.269125 0.059801
C40   C     C_1   0.273328 0.389250 0.730438 0.051420
C41   C     C_1   0.675362 0.869944 0.320709 0.080487
C42   C     C_1   0.324271 0.369982 0.678835 0.072214
C43   C     C_1   0.632598 0.855756 0.364568 -0.075737
C44   C     C_1   0.367119 0.355776 0.635086 -0.083013
O11   O     O_R   0.058070 0.289240 0.940580 -0.521362
O12   O     O_R   0.941930 0.789240 0.059420 -0.516534
O13   O     O_R   0.058330 0.616740 0.085880 -0.537963
O14   O     O_R   0.941670 0.116740 0.914120 -0.540713
C45   C     C_R   0.071826 0.448417 0.111269 0.641174
C46   C     C_R   0.928134 0.947768 0.888751 0.650015
O15   O     O_R   0.065180 0.619040 0.942700 -0.524602
O16   O     O_R   0.934820 0.119040 0.057300 -0.530124
O17   O     O_R   0.948870 0.787780 0.915270 -0.519636
O18   O     O_R   0.051130 0.287780 0.084730 -0.529044
C47   C     C_R   0.083319 0.450391 0.920335 0.718367
C48   C     C_R   0.916657 0.950366 0.079625 0.700658
O19   O     O_3   0.961870 0.453310 0.991210 -0.363414
O20   O     O_3   0.038130 0.953310 0.008790 -0.365607
V3    V     V_3+5 0.007070 0.728770 0.001630 1.486870
V4    V     V_3+5 0.992930 0.228770 0.998370 1.466812
C49   C     C_2   0.992630 0.824258 0.766482 0.365272
H1    H     H_    0.023145 0.912601 0.800744 0.053296
O21   O     O_2   0.016369 0.691274 0.737430 -0.528083
C50   C     C_2   0.004412 0.386312 0.238747 0.436529
H2    H     H_    0.979250 0.333726 0.190455 0.045663
O22   O     O_2   0.972893 0.445167 0.287309 -0.501164
F1    F     F_    0.818430 0.877056 0.558176 -0.619949
F2    F     F_    0.183197 0.364334 0.444816 -0.670767
C51   C     C_2   0.922262 0.759093 0.629995 0.672930
H3    H     H_    0.966792 0.822007 0.615825 0.057534
O23   O     O_2   0.902334 0.624074 0.596118 -0.466944
C52   C     C_2   0.074225 0.324296 0.375284 0.645821
H4    H     H_    0.071950 0.421394 0.419801 0.113860
O24   O     O_2   0.046609 0.176061 0.378274 -0.492471
C53   C     C_2   0.795910 0.076713 0.869714 0.549830
H5    H     H_    0.816240 0.078896 0.924705 0.028599
O25   O     O_2   0.750521 0.176799 0.854455 -0.506948
C54   C     C_2   0.205474 0.562117 0.127435 0.553174
H6    H     H_    0.185290 0.556594 0.072401 0.023764
O26   O     O_2   0.251671 0.661370 0.140577 -0.506828
F3    F     F_    0.521102 0.825251 0.740383 -0.693129
F4    F     F_    0.477606 0.314352 0.259018 -0.693169
F5    F     F_    0.720218 0.780904 0.871573 -0.643750
F6    F     F_    0.277059 0.260396 0.131396 -0.645202
C55   C     C_2   0.585794 0.788072 0.874749 0.572467
H7    H     H_    0.534618 0.767663 0.871427 0.096410
O27   O     O_2   0.613464 0.784896 0.934296 -0.464697
C56   C     C_2   0.411341 0.263540 0.126138 0.573987
H8    H     H_    0.462391 0.241154 0.129129 0.095874
O28   O     O_2   0.383057 0.255070 0.067006 -0.464746
C57   C     C_2   0.691423 0.886993 0.541929 0.475986
H9    H     H_    0.659075 0.998471 0.527486 0.005844
O29   O     O_2   0.705793 0.774354 0.496412 -0.494867
C58   C     C_2   0.309353 0.371364 0.458673 0.480644
H10   H     H_    0.339706 0.485060 0.476562 -0.003728
O30   O     O_2   0.297945 0.245348 0.499862 -0.500650

loop_
_geom_bond_atom_site_label_1
_geom_bond_atom_site_label_2
_ccdc_geom_bond_type
C53   H5    S    
C26   C58   S    
C15   C17   A    
C10   F4    S    
C49   H1    S    
C1    C44   S    
O1    C3    A    
C27   C53   S    
C2    C43   S    
O2    C4    A    
C2    O7    A    
C55   H7    S    
C35   C37   S    
O5    C3    A    
C9    F3    S    
O16   C48   A    
C23   C25   A    
C12   C14   A    
C4    C31   S    
C6    C30   A    
C8    C28   A    
O12   V3    S    
C58   H10   S    
O14   V4    S    
C7    C46   S    
C18   C26   A    
O14   C46   A    
C23   F1    S    
C8    C45   S    
C55   O27   D    
C9    C31   A    
C45   O18   A    
O18   V4    S    
C16   C18   A    
C37   C39   T    
C38   C40   T    
C19   C21   A    
O20   V3    S    
C22   C24   A    
C36   C38   S    
O6    V2    S    
C17   C31   A    
C49   O21   D    
C18   C32   A    
C5    C21   A    
O11   C47   A    
C1    O8    A    
C51   O23   D    
C40   C42   S    
C51   H3    S    
C42   C44   T    
C33   C35   T    
C14   F6    S    
O15   C47   A    
O13   C45   A    
C15   C19   A    
C16   C20   A    
C52   H4    S    
O4    C2    A    
C24   F2    S    
C25   C57   S    
O17   V3    S    
C39   C41   S    
C20   C22   A    
O4    V2    S    
O19   V4    S    
C54   O26   D    
O6    C4    A    
C33   C48   S    
C56   O28   D    
C3    C32   S    
C57   O29   D    
O1    V2    S    
C50   H2    S    
O2    V1    S    
C6    C22   A    
C7    C27   A    
O12   C48   A    
C11   C55   S    
O15   V3    S    
C13   F5    S    
C9    C11   A    
C10   C12   A    
C41   C43   T    
C20   C28   A    
O3    V1    S    
C10   C32   A    
C46   O17   A    
C12   C56   S    
C30   C50   S    
C50   O22   D    
O3    C1    A    
C8    C30   A    
C13   C15   A    
C14   C16   A    
C24   C26   A    
O7    V1    S    
C6    C52   S    
O8    V2    S    
C54   H6    S    
C58   O30   D    
O5    V1    S    
C56   H8    S    
C21   C23   A    
C19   C27   A    
C5    C51   S    
O16   V4    S    
O11   V4    S    
C5    C29   A    
C29   C49   S    
C34   C36   T    
C34   C47   S    
C11   C13   A    
O9    V2    S    
C17   C25   A    
C57   H9    S    
C53   O25   D    
O10   V1    S    
C52   O24   D    
C28   C54   S    
C7    C29   A    
O13   V3    S    
