data_mof_unit_9101.cif
_audit_creation_date              2012-12-10T18:58:46-0500
_audit_creation_method            fapswitch 2.2
_symmetry_space_group_name_H-M    P1
_symmetry_Int_Tables_number       1
_space_group_crystal_system       triclinic
_cell_length_a                    13.016192
_cell_length_b                    10.829011
_cell_length_c                    9.544077
_cell_angle_alpha                 89.916542
_cell_angle_beta                  95.934376
_cell_angle_gamma                 91.039219
_cell_volume                      1337.83187214

loop_
_atom_site_label
_atom_site_type_symbol
_atom_type_description
_atom_site_fract_x
_atom_site_fract_y
_atom_site_fract_z
_atom_type_partial_charge
C1    C     C_R   0.502607 0.262425 0.500539 0.779739
C2    C     C_R   0.026116 0.468048 0.562133 -0.009716
C3    C     C_R   0.972791 0.517734 0.439055 0.099992
C4    C     C_R   0.866001 0.528546 0.429913 -0.308868
C5    C     C_R   0.864569 0.441089 0.665183 0.500372
C6    C     C_R   0.971607 0.432376 0.675257 -0.270094
C7    C     C_R   0.509733 0.063908 0.628085 0.125916
C8    C     C_R   0.514242 0.129755 0.502970 -0.097581
C9    C     C_R   0.533329 0.065582 0.380861 -0.229296
C10   C     C_R   0.532159 0.936874 0.380618 -0.222821
C11   C     C_R   0.512559 0.871315 0.502557 -0.088590
C12   C     C_R   0.300541 0.498517 0.473977 0.835524
C13   C     C_R   0.508605 0.936587 0.627976 0.103820
C14   C     C_3   0.430097 0.929950 0.731769 -0.467495
C15   C     C_3   0.432119 0.069871 0.732268 -0.479442
C16   C     C_R   0.582777 0.546528 0.084820 0.106033
C17   C     C_R   0.426288 0.435498 0.064580 0.565098
C18   C     C_R   0.425300 0.438679 0.914567 -0.191321
C19   C     C_R   0.583295 0.545156 0.937840 0.269984
C20   C     C_3   0.629389 0.671657 0.935588 0.304587
C21   C     C_3   0.627071 0.674501 0.094885 -0.552959
C22   C     C_R   0.502028 0.737828 0.500324 0.782493
C23   C     C_R   0.699264 0.498551 0.526277 0.823238
C24   C     C_R   0.811517 0.490698 0.542031 -0.151202
C25   C     C_R   0.187682 0.498636 0.459532 -0.157500
C26   C     C_R   0.026895 0.555584 0.326724 -0.184422
C27   C     C_R   0.133867 0.546999 0.337390 -0.252443
C28   C     C_R   0.133164 0.453829 0.569821 0.462580
Cu1   Cu    Cu3+1 0.499990 0.499980 0.640670 0.982609
Cu2   Cu    Cu3+1 0.500010 0.500020 0.359330 0.977698
H1    H     H_    0.825241 0.566611 0.335234 0.173634
H2    H     H_    0.460889 0.890804 0.834755 0.183187
H3    H     H_    0.358380 0.109751 0.686649 0.187622
H4    H     H_    0.465248 0.110548 0.834317 0.189615
H5    H     H_    0.363707 0.392789 0.848973 0.209546
H6    H     H_    0.576812 0.737349 0.875887 0.083116
H7    H     H_    0.704801 0.678533 0.155198 0.213285
H8    H     H_    0.571205 0.741811 0.127836 0.162373
H9    H     H_    0.986681 0.593712 0.231737 0.162189
H10   H     H_    0.011277 0.396161 0.771590 0.202132
H11   H     H_    0.174722 0.580401 0.251159 0.190910
H12   H     H_    0.544217 0.114036 0.284093 0.158100
H13   H     H_    0.541711 0.889649 0.283542 0.154261
H14   H     H_    0.354997 0.889161 0.686126 0.200449
N1    N     N_R   0.500660 0.500930 0.148010 -0.225837
N2    N     N_R   0.500660 0.500890 0.852110 -0.253713
O1    O     O_R   0.500000 0.319640 0.618810 -0.583404
O2    O     O_R   0.500010 0.319680 0.381230 -0.563931
O3    O     O_R   0.348990 0.499960 0.599490 -0.545435
O4    O     O_R   0.349000 0.500000 0.361910 -0.535141
O5    O     O_R   0.499990 0.680320 0.618770 -0.591513
O6    O     O_R   0.500000 0.680360 0.381190 -0.587179
O7    O     O_R   0.651000 0.500000 0.638090 -0.509391
O8    O     O_R   0.651010 0.500040 0.400510 -0.594379
O9    O     O_3   0.349126 0.373636 0.127128 -0.539437
C29   C     C_3   0.348660 0.246949 0.092474 -0.318869
H15   H     H_    0.306836 0.195126 0.170060 0.191479
H16   H     H_    0.427940 0.208952 0.097361 0.133912
H17   H     H_    0.306676 0.230354 0.986901 0.149293
O10   O     O_3   0.730809 0.667226 0.895859 -0.513985
C30   C     C_3   0.763695 0.787212 0.861818 -0.303859
H18   H     H_    0.759250 0.852359 0.951046 0.145850
H19   H     H_    0.717769 0.821557 0.765240 0.152469
H20   H     H_    0.845574 0.783863 0.839574 0.188117
O11   O     O_3   0.812838 0.404084 0.778001 -0.530331
C31   C     C_3   0.792190 0.276002 0.766357 -0.302299
H21   H     H_    0.864957 0.222833 0.775628 0.140716
H22   H     H_    0.744362 0.252629 0.665995 0.140040
H23   H     H_    0.747458 0.247028 0.854018 0.186992
O12   O     O_3   0.184378 0.396763 0.685840 -0.578770
C32   C     C_3   0.185324 0.268924 0.658174 -0.374454
H24   H     H_    0.218834 0.221458 0.754574 0.177315
H25   H     H_    0.233845 0.249080 0.571774 0.159166
H26   H     H_    0.106020 0.229580 0.632019 0.160230

loop_
_geom_bond_atom_site_label_1
_geom_bond_atom_site_label_2
_ccdc_geom_bond_type
C31   H22   S    
O9    C29   S    
C16   C21   S    
C1    C8    S    
Cu2   N1    S    
C19   C20   S    
C12   O3    A    
C19   N2    A    
C7    C8    A    
Cu1   O3    S    
C25   C28   A    
Cu2   O8    S    
C9    H12   S    
Cu1   O1    S    
Cu2   O2    S    
C17   N1    A    
Cu1   O5    S    
C5    C6    A    
C4    C24   A    
C26   H9    S    
C31   H23   S    
C29   H15   S    
C30   H19   S    
C21   H8    S    
C8    C9    A    
C23   C24   S    
O12   C32   S    
C20   O10   S    
C18   H5    S    
C17   O9    S    
C15   H4    S    
C7    C15   S    
C31   H21   S    
Cu2   O4    S    
C13   C14   S    
C2    C6    A    
C18   N2    A    
C23   O7    A    
C5    O11   S    
C32   H25   S    
C1    O1    A    
O10   C30   S    
C30   H20   S    
Cu1   Cu2   S    
C27   H11   S    
C17   C18   A    
C26   C27   A    
C6    H10   S    
C3    C4    A    
C23   O8    A    
C14   H14   S    
C9    C10   A    
Cu2   O6    S    
C10   H13   S    
C3    C26   A    
C28   O12   S    
C14   H2    S    
C16   N1    A    
C32   H26   S    
C12   O4    A    
C1    O2    A    
C25   C27   A    
Cu1   N2    S    
C11   C22   S    
C29   H17   S    
C12   C25   S    
C2    C3    A    
C32   H24   S    
C11   C13   A    
C5    C24   A    
Cu1   O7    S    
C16   C19   A    
C29   H16   S    
C22   O6    A    
C30   H18   S    
C4    H1    S    
C10   C11   A    
C20   H6    S    
C7    C13   A    
C21   H7    S    
C20   C21   S    
O11   C31   S    
C14   C15   S    
C2    C28   A    
C15   H3    S    
C22   O5    A    
