data_mof_unit_62321.cif
_audit_creation_date              2012-12-10T18:16:10-0500
_audit_creation_method            fapswitch 2.2
_symmetry_space_group_name_H-M    P1
_symmetry_Int_Tables_number       1
_space_group_crystal_system       triclinic
_cell_length_a                    42.329809
_cell_length_b                    29.207719
_cell_length_c                    29.202832
_cell_angle_alpha                 89.999873
_cell_angle_beta                  133.785106
_cell_angle_gamma                 89.998441
_cell_volume                      26065.7425295

loop_
_atom_site_label
_atom_site_type_symbol
_atom_type_description
_atom_site_fract_x
_atom_site_fract_y
_atom_site_fract_z
_atom_type_partial_charge
C1    C     C_R   0.499977 0.586677 0.499997 0.908665
C2    C     C_1   0.834574 0.999982 0.338231 0.197434
C3    C     C_3   0.760085 0.962220 0.246136 0.340930
C4    C     C_1   0.372548 0.499914 0.373900 -0.154688
C5    C     C_1   0.872547 0.999992 0.373900 -0.154689
C6    C     C_1   0.121081 0.499979 0.124859 -0.147337
C7    C     C_1   0.621081 0.999995 0.124859 -0.147337
C8    C     C_3   0.262503 0.497866 0.313540 0.317464
C9    C     C_3   0.762506 0.999898 0.313586 0.317457
C10   C     C_3   0.289087 0.499775 0.295675 -0.222479
C11   C     C_3   0.789087 0.999977 0.295675 -0.222480
C12   C     C_3   0.246340 0.609329 0.202210 -0.207388
C13   C     C_1   0.158959 0.499919 0.166581 0.197445
C14   C     C_3   0.245905 0.395327 0.192283 -0.207427
C15   C     C_3   0.746126 0.107191 0.197393 -0.207375
C16   C     C_3   0.746112 0.892978 0.196982 -0.207445
C17   C     C_3   0.242985 0.505172 0.130056 -0.256637
C18   C     C_3   0.742979 0.000203 0.129930 -0.256642
C19   C     C_1   0.658959 0.999989 0.166581 0.197446
C20   C     C_1   0.499960 0.637260 0.499955 -0.205927
C21   C     C_1   0.499959 0.362740 0.499954 -0.205528
C22   C     C_1   0.999960 0.137260 0.499955 -0.205705
C23   C     C_1   0.999959 0.862740 0.499954 -0.205749
C24   C     C_1   0.499951 0.679398 0.499939 0.016675
C25   C     C_1   0.499949 0.320602 0.499937 0.017178
C26   C     C_1   0.999951 0.179398 0.499939 0.016951
C27   C     C_R   0.499976 0.413323 0.499997 0.909108
C28   C     C_1   0.999949 0.820602 0.499937 0.016902
C29   C     C_1   0.499946 0.729133 0.499936 0.017770
C30   C     C_1   0.499943 0.270866 0.499933 0.018250
C31   C     C_1   0.999946 0.229133 0.499936 0.018037
C32   C     C_1   0.999942 0.770866 0.499933 0.017981
C33   C     C_1   0.499946 0.771270 0.499942 0.016236
C34   C     C_1   0.499941 0.228729 0.499939 0.016646
C35   C     C_1   0.999946 0.271270 0.499943 0.016470
C36   C     C_1   0.999941 0.728729 0.499938 0.016410
C37   C     C_1   0.499949 0.821006 0.499956 0.012965
C38   C     C_R   0.999977 0.086677 0.499997 0.908883
C39   C     C_1   0.499944 0.178994 0.499952 0.013289
C40   C     C_1   0.999949 0.321006 0.499956 0.013154
C41   C     C_1   0.999944 0.678994 0.499951 0.013098
C42   C     C_1   0.499953 0.863144 0.499969 -0.205213
C43   C     C_1   0.499949 0.136856 0.499965 -0.204973
C44   C     C_1   0.999953 0.363144 0.499969 -0.205071
C45   C     C_1   0.999948 0.636856 0.499965 -0.205118
C46   C     C_R   0.417106 0.500034 0.417397 0.937277
C47   C     C_R   0.917106 0.000004 0.417397 0.937284
C48   C     C_1   0.635840 0.500000 0.635374 -0.213274
C49   C     C_R   0.999977 0.913323 0.499997 0.908889
C50   C     C_1   0.135840 0.000000 0.635374 -0.213274
C51   C     C_1   0.677113 0.500001 0.676616 0.022394
C52   C     C_1   0.177113 0.000001 0.676616 0.022394
C53   C     C_1   0.726259 0.500001 0.725842 0.009717
C54   C     C_1   0.226259 0.000001 0.725842 0.009716
C55   C     C_1   0.767533 0.500002 0.767221 0.009710
C56   C     C_1   0.267533 0.000002 0.767221 0.009709
C57   C     C_1   0.816679 0.500002 0.816509 0.022366
C58   C     C_1   0.316679 0.000002 0.816509 0.022366
C59   C     C_1   0.857953 0.500002 0.857902 -0.213586
C60   C     C_3   0.204506 0.499833 0.213970 -0.249682
C61   C     C_1   0.357953 0.000002 0.857902 -0.213587
C62   C     C_R   0.994878 0.500000 0.081695 0.916509
C63   C     C_R   0.494878 1.000000 0.081695 0.916517
C64   C     C_R   0.076726 0.499998 0.075672 0.931550
C65   C     C_R   0.576726 0.999999 0.075672 0.931555
C66   C     C_R   0.992980 0.500000 0.906352 0.902980
C67   C     C_R   0.492980 0.000000 0.906352 0.902981
C68   C     C_R   0.907987 0.500001 0.908065 0.885532
C69   C     C_R   0.407987 0.000001 0.908065 0.885533
C70   C     C_R   0.585807 0.500000 0.585650 0.885182
C71   C     C_3   0.704506 0.999981 0.213971 -0.249682
C72   C     C_R   0.085807 1.000000 0.585650 0.885181
C73   C     C_R   0.499113 1.000000 0.412920 0.896278
C74   C     C_R   0.999113 0.500000 0.412920 0.896277
C75   C     C_R   0.499958 0.913727 0.499984 0.895805
C76   C     C_R   0.499956 0.086273 0.499983 0.895878
C77   C     C_R   0.999958 0.413727 0.499984 0.895853
C78   C     C_R   0.999956 0.586273 0.499982 0.895830
C79   C     C_R   0.500734 1.000000 0.587023 0.895404
C80   C     C_R   0.000734 0.500000 0.587023 0.895406
C81   C     C_1   0.995664 0.500000 0.133051 -0.200480
C82   C     C_3   0.231762 0.501742 0.196782 0.313546
C83   C     C_1   0.495664 1.000000 0.133051 -0.200476
C84   C     C_1   0.996333 0.500000 0.175852 0.023216
C85   C     C_1   0.496333 1.000000 0.175852 0.023220
C86   C     C_1   0.997112 0.500000 0.226354 0.023324
C87   C     C_1   0.497111 1.000000 0.226354 0.023328
C88   C     C_1   0.497737 1.000000 0.269110 0.020372
C89   C     C_1   0.997737 0.500000 0.269110 0.020368
C90   C     C_1   0.498401 1.000000 0.319499 0.015708
C91   C     C_1   0.998401 0.500000 0.319499 0.015703
C92   C     C_1   0.498841 1.000000 0.362074 -0.203489
C93   C     C_3   0.731760 0.000060 0.196738 0.313545
C94   C     C_1   0.998841 0.500000 0.362074 -0.203494
C95   C     C_1   0.994014 0.500000 0.856788 -0.210260
C96   C     C_1   0.494014 0.000000 0.856789 -0.210260
C97   C     C_3   0.233215 0.536649 0.265445 0.249039
C98   C     C_3   0.233070 0.461024 0.261942 0.248617
C99   C     C_3   0.733146 0.037788 0.263790 0.248834
C100  C     C_3   0.733141 0.962089 0.263644 0.248819
C101  C     C_1   0.995219 0.500000 0.815859 0.012456
C102  C     C_1   0.495219 0.000000 0.815859 0.012455
C103  C     C_1   0.996817 0.500000 0.767726 0.014238
C104  C     C_1   0.334575 0.499820 0.338231 0.197437
C105  C     C_1   0.496818 0.000000 0.767727 0.014235
C106  C     C_1   0.498166 1.000000 0.726946 0.013612
C107  C     C_1   0.998166 0.500000 0.726946 0.013615
C108  C     C_1   0.499596 1.000000 0.678640 0.011329
C109  C     C_1   0.999596 0.500000 0.678639 0.011332
C110  C     C_1   0.500464 1.000000 0.637363 -0.206704
C111  C     C_1   0.000464 0.500000 0.637363 -0.206702
C112  C     C_3   0.260164 0.538507 0.247982 0.340890
C113  C     C_3   0.260014 0.462986 0.244479 0.340938
C114  C     C_3   0.760090 0.037816 0.246281 0.340907
Cl1   Cl    Cl    0.212501 0.582770 0.278286 -0.522645
Cl2   Cl    Cl    0.212183 0.412196 0.270406 -0.522405
Cl3   Cl    Cl    0.712350 0.085253 0.274564 -0.522498
Cl4   Cl    Cl    0.712338 0.914513 0.274237 -0.522541
Cl5   Cl    Cl    0.285744 0.495330 0.392762 -0.443032
Cl6   Cl    Cl    0.785749 0.999791 0.392866 -0.443027
H1    H     H_    0.237198 0.629255 0.223912 0.217860
H2    H     H_    0.716583 0.909628 0.152515 0.178095
H3    H     H_    0.736931 0.871668 0.217693 0.217841
H4    H     H_    0.759497 0.869634 0.183929 0.172835
H5    H     H_    0.263641 0.473906 0.150716 0.196515
H6    H     H_    0.263798 0.536203 0.153652 0.196497
H7    H     H_    0.226066 0.506715 0.079524 0.179764
H8    H     H_    0.763710 0.969019 0.152001 0.196506
H9    H     H_    0.763715 0.031377 0.152122 0.196515
H10   H     H_    0.726057 0.000268 0.079362 0.179761
H11   H     H_    0.216780 0.593453 0.156954 0.178253
H12   H     H_    0.259778 0.633841 0.190319 0.172790
H13   H     H_    0.216407 0.412656 0.148574 0.177944
H14   H     H_    0.236684 0.372783 0.212022 0.217826
H15   H     H_    0.259243 0.373102 0.178212 0.172895
H16   H     H_    0.736948 0.128392 0.218185 0.217845
H17   H     H_    0.716595 0.090602 0.152861 0.178108
H18   H     H_    0.759514 0.130629 0.184429 0.172848
O1    O     O_R   0.500400 0.563130 0.536080 -0.592565
O2    O     O_R   0.963990 0.500000 0.400890 -0.593572
O3    O     O_R   0.534410 1.000000 0.471310 -0.589441
O4    O     O_R   0.034410 0.500000 0.471310 -0.589442
O5    O     O_R   0.464750 0.936830 0.464780 -0.592056
O6    O     O_R   0.464750 0.063170 0.464780 -0.591854
O7    O     O_R   0.964750 0.436830 0.464780 -0.591959
O8    O     O_R   0.964750 0.563170 0.464780 -0.591953
O9    O     O_R   0.535170 0.936820 0.535200 -0.592063
O10   O     O_R   0.535170 0.063180 0.535200 -0.592109
O11   O     O_R   0.035170 0.436820 0.535200 -0.592070
O12   O     O_R   0.500400 0.436870 0.536080 -0.592340
O13   O     O_R   0.035170 0.563180 0.535200 -0.592102
O14   O     O_R   0.465520 1.000000 0.528690 -0.591498
O15   O     O_R   0.965520 0.500000 0.528690 -0.591497
O16   O     O_R   0.535930 1.000000 0.599110 -0.593177
O17   O     O_R   0.035930 0.500000 0.599110 -0.593176
O18   O     O_R   0.499540 0.563080 0.463930 -0.596925
O19   O     O_R   0.499540 0.436920 0.463930 -0.596724
O20   O     O_R   0.999540 0.063080 0.463930 -0.596818
O21   O     O_R   0.999540 0.936920 0.463930 -0.596835
O22   O     O_R   0.438030 0.500000 0.473700 -0.595357
O23   O     O_R   0.000400 0.063130 0.536080 -0.592451
O24   O     O_R   0.938030 1.000000 0.473700 -0.595347
O25   O     O_R   0.437170 0.500000 0.401550 -0.612712
O26   O     O_R   0.937170 1.000000 0.401550 -0.612725
O27   O     O_R   0.562760 0.500000 0.598450 -0.592294
O28   O     O_R   0.062760 1.000000 0.598450 -0.592291
O29   O     O_R   0.561900 0.500000 0.526300 -0.592046
O30   O     O_R   0.061900 1.000000 0.526300 -0.592048
O31   O     O_R   0.994600 0.535610 0.057840 -0.592469
O32   O     O_R   0.994600 0.464390 0.057840 -0.592167
O33   O     O_R   0.494600 0.035610 0.057840 -0.592299
O34   O     O_R   0.000400 0.936870 0.536080 -0.592449
O35   O     O_R   0.494600 0.964390 0.057840 -0.592325
O36   O     O_R   0.056200 0.535620 0.056290 -0.604395
O37   O     O_R   0.056200 0.464380 0.056290 -0.603420
O38   O     O_R   0.556200 0.035620 0.056290 -0.603922
O39   O     O_R   0.556200 0.964380 0.056290 -0.603905
O40   O     O_R   0.993060 0.535640 0.930020 -0.596896
O41   O     O_R   0.993060 0.464360 0.930020 -0.596844
O42   O     O_R   0.493060 0.035640 0.930020 -0.596849
O43   O     O_R   0.493060 0.964360 0.930020 -0.596901
O44   O     O_3   0.279121 0.577142 0.245797 -0.590817
O45   O     O_R   0.931470 0.535630 0.931560 -0.592154
O46   O     O_3   0.278816 0.426291 0.238800 -0.590477
O47   O     O_3   0.778971 0.075558 0.242398 -0.590660
O48   O     O_3   0.778961 0.924558 0.242109 -0.590638
O49   O     O_3   0.211081 0.503709 0.132841 -0.607436
O50   O     O_3   0.711076 0.000143 0.132750 -0.607446
O51   O     O_R   0.931470 0.464370 0.931560 -0.592080
O52   O     O_R   0.431470 0.035630 0.931560 -0.592090
O53   O     O_R   0.431470 0.964370 0.931560 -0.592144
O54   O     O_R   0.463990 0.000000 0.400890 -0.593570
Zn1   Zn    Zn3+2 0.500540 0.500000 0.548170 1.010353
Zn2   Zn    Zn3+2 0.952950 0.500000 0.452980 0.984529
Zn3   Zn    Zn3+2 0.546980 1.000000 0.547020 0.986399
Zn4   Zn    Zn3+2 0.046980 0.500000 0.547020 0.986398
Zn5   Zn    Zn3+2 0.000540 1.000000 0.548170 1.010372
Zn6   Zn    Zn3+2 0.499390 0.500000 0.451830 0.988281
Zn7   Zn    Zn3+2 0.999390 1.000000 0.451830 0.988265
Zn8   Zn    Zn3+2 0.993830 0.547580 0.993940 0.997427
Zn9   Zn    Zn3+2 0.993830 0.452420 0.993940 0.998715
Zn10  Zn    Zn3+2 0.493830 0.047580 0.993940 0.998113
Zn11  Zn    Zn3+2 0.493830 0.952420 0.993940 0.998016
Zn12  Zn    Zn3+2 0.452950 1.000000 0.452980 0.984532

loop_
_geom_bond_atom_site_label_1
_geom_bond_atom_site_label_2
_ccdc_geom_bond_type
C87   C88   T    
C68   O45   A    
O30   Zn7   S    
C96   C102  T    
C72   O30   A    
C74   C94   S    
C105  C106  T    
C19   C71   S    
C3    C11   S    
C14   O46   S    
C69   O53   A    
C99   C114  S    
C80   O15   A    
C13   C60   S    
C73   O3    A    
C15   O47   S    
O24   Zn5   S    
C6    C13   T    
C42   C75   S    
C114  O47   S    
C21   C25   T    
C32   C36   T    
C44   C77   S    
C12   H11   S    
C16   H3    S    
C84   C86   S    
O42   Zn10  S    
C67   O42   A    
C109  C111  T    
O11   Zn4   S    
C17   H6    S    
C57   C59   T    
C113  O46   S    
C99   Cl3   S    
C14   H15   S    
C22   C38   S    
C29   C33   T    
C43   C76   S    
O18   Zn6   S    
C102  C105  S    
O19   Zn6   S    
O3    Zn3   S    
C6    C64   S    
C37   C42   T    
C112  O44   S    
C11   C114  S    
C50   C72   S    
C24   C29   S    
O32   Zn9   S    
C8    C98   S    
O17   Zn4   S    
C67   O43   A    
C18   H8    S    
O6    Zn12  S    
C47   O24   A    
C60   C82   S    
C3    C100  S    
C48   C51   T    
C12   O44   S    
C12   H1    S    
O41   Zn9   S    
O25   Zn6   S    
C56   C58   S    
C50   C52   T    
O39   Zn11  S    
O9    Zn3   S    
C45   C78   S    
C89   C91   S    
C1    O1    A    
O26   Zn7   S    
C15   H18   S    
C106  C108  S    
C58   C61   T    
O21   Zn7   S    
O5    Zn12  S    
C74   O4    A    
C26   C31   S    
C101  C103  S    
C107  C109  S    
C36   C41   S    
O43   Zn11  S    
O53   Zn11  S    
C2    C11   S    
C52   C54   S    
C78   O13   A    
C63   O35   A    
C53   C55   T    
C90   C92   T    
C62   O32   A    
C54   C56   T    
O15   Zn2   S    
C85   C87   S    
C34   C39   S    
O38   Zn10  S    
C28   C32   S    
C16   H2    S    
C38   O20   A    
C60   C97   S    
C70   O27   A    
C77   O11   A    
C97   C112  S    
C30   C34   T    
C27   O19   A    
C17   H7    S    
C98   C113  S    
C4    C46   S    
C15   H16   S    
C14   H14   S    
O51   Zn9   S    
C74   O2    A    
C33   C37   S    
C63   C83   S    
C51   C53   S    
C82   C112  S    
O13   Zn4   S    
C1    O18   A    
C8    C97   S    
O12   Zn1   S    
C59   C68   S    
C7    C65   S    
C5    C47   S    
O10   Zn3   S    
C63   O33   A    
C66   O40   A    
C46   O22   A    
O20   Zn7   S    
O54   Zn12  S    
O34   Zn5   S    
C3    C93   S    
C23   C28   T    
C64   O37   A    
C10   C112  S    
C9    C11   S    
O37   Zn9   S    
O7    Zn2   S    
C10   C113  S    
C75   O5    A    
O31   Zn8   S    
C98   Cl2   S    
O16   Zn3   S    
C76   O6    A    
C8    C10   S    
C83   C85   T    
C62   C81   S    
C88   C90   S    
C27   O12   A    
C7    C19   T    
C46   O25   A    
C55   C57   S    
C65   O38   A    
C67   C96   S    
C21   C27   S    
C31   C35   T    
C18   H10   S    
C2    C5    T    
C97   Cl1   S    
O8    Zn2   S    
C47   O26   A    
C64   O36   A    
C3    O48   S    
C77   O7    A    
C81   C84   T    
C66   C95   S    
C80   O17   A    
C66   O41   A    
C61   C69   S    
C25   C30   S    
C62   O31   A    
O40   Zn8   S    
C1    C20   S    
C41   C45   T    
C12   H12   S    
C79   C110  S    
C72   O28   A    
O52   Zn10  S    
C82   C113  S    
C48   C70   S    
C38   O23   A    
C86   C89   T    
O27   Zn1   S    
C69   O52   A    
C49   O34   A    
C39   C43   T    
C73   C92   S    
C71   C93   S    
C14   H13   S    
C9    C100  S    
C71   C100  S    
O36   Zn8   S    
O45   Zn8   S    
O23   Zn5   S    
C82   O49   S    
O35   Zn11  S    
C75   O9    A    
O33   Zn10  S    
C10   C104  S    
C35   C40   S    
C16   H4    S    
O28   Zn5   S    
C16   O48   S    
C70   O29   A    
C91   C94   T    
C17   H5    S    
C65   O39   A    
C68   O51   A    
C17   O49   S    
C4    C104  T    
C80   C111  S    
C18   O50   S    
O29   Zn6   S    
C108  C110  T    
C93   C114  S    
C71   C99   S    
C73   O54   A    
C23   C49   S    
C78   O8    A    
C93   O50   S    
O1    Zn1   S    
C40   C44   T    
C100  Cl4   S    
C76   O10   A    
C9    C99   S    
C22   C26   T    
C60   C98   S    
C9    Cl6   S    
O4    Zn4   S    
O14   Zn12  S    
C18   H9    S    
C103  C107  T    
C79   O14   A    
C15   H17   S    
O2    Zn2   S    
C49   O21   A    
C20   C24   T    
C95   C101  T    
C8    Cl5   S    
O22   Zn1   S    
C79   O16   A    
