data_mof_unit_12045.cif
_audit_creation_date              2013-03-05T15:41:34-0500
_audit_creation_method            fapswitch 2.2
_symmetry_space_group_name_H-M    P1
_symmetry_Int_Tables_number       1
_space_group_crystal_system       triclinic
_cell_length_a                    24.721146
_cell_length_b                    17.49682
_cell_length_c                    15.666663
_cell_angle_alpha                 89.56034
_cell_angle_beta                  129.989939
_cell_angle_gamma                 90.574638
_cell_volume                      5191.58262352

loop_
_atom_site_label
_atom_site_type_symbol
_atom_site_description
_atom_site_fract_x
_atom_site_fract_y
_atom_site_fract_z
_atom_type_partial_charge
C1    C     C_R   0.344148 0.367283 0.223489 -0.113176
C2    C     C_R   0.347370 0.636560 0.230799 -0.117276
C3    C     C_R   0.844173 0.867250 0.223531 -0.113230
C4    C     C_R   0.847526 0.136778 0.231251 -0.117530
H1    H     H_    0.291212 0.359145 0.193442 0.105300
H2    H     H_    0.295585 0.646411 0.203943 0.110206
H3    H     H_    0.791238 0.859095 0.193479 0.105310
H4    H     H_    0.795852 0.146815 0.204746 0.110472
N1    N     N_R   0.389430 0.421450 0.294590 -0.047909
N2    N     N_R   0.389430 0.578550 0.294590 -0.048355
N3    N     N_R   0.889430 0.921450 0.294590 -0.047898
N4    N     N_R   0.889430 0.078550 0.294590 -0.048348
C5    C     C_R   0.667586 0.391267 0.798229 -0.126039
C6    C     C_R   0.667301 0.610210 0.796977 -0.116509
C7    C     C_R   0.167574 0.891227 0.798162 -0.125820
C8    C     C_R   0.167291 0.110236 0.796957 -0.116386
H5    H     H_    0.719642 0.391271 0.822957 0.101941
H6    H     H_    0.719359 0.611196 0.821699 0.111372
H7    H     H_    0.219614 0.891208 0.822835 0.102125
H8    H     H_    0.219349 0.111235 0.821680 0.111489
N5    N     N_R   0.612200 0.424040 0.705410 -0.047317
N6    N     N_R   0.612200 0.575960 0.705410 -0.048937
N7    N     N_R   0.112200 0.924040 0.705410 -0.047343
N8    N     N_R   0.112200 0.075960 0.705410 -0.048959
C9    C     C_R   0.612452 0.392093 0.408093 -0.145594
C10   C     C_R   0.616532 0.603154 0.410706 -0.134538
C11   C     C_R   0.112632 0.892410 0.408175 -0.145144
C12   C     C_R   0.116538 0.103157 0.410712 -0.134344
H9    H     H_    0.590382 0.392545 0.322120 0.094447
H10   H     H_    0.594561 0.603339 0.324891 0.090302
H11   H     H_    0.090593 0.892974 0.322216 0.094363
H12   H     H_    0.094559 0.103387 0.324894 0.090201
N9    N     N_R   0.581780 0.422390 0.443390 -0.035105
N10   N     N_R   0.581780 0.577610 0.443390 -0.037625
N11   N     N_R   0.081780 0.922390 0.443390 -0.035133
N12   N     N_R   0.081780 0.077610 0.443390 -0.037584
C13   C     C_R   0.411462 0.360268 0.594435 -0.138546
C14   C     C_R   0.403309 0.631724 0.593518 -0.145747
C15   C     C_R   0.911443 0.860276 0.594423 -0.138629
C16   C     C_R   0.902988 0.131335 0.593499 -0.145873
H13   H     H_    0.438121 0.349245 0.681067 0.103688
H14   H     H_    0.428918 0.642615 0.679867 0.101510
H15   H     H_    0.938097 0.849240 0.681052 0.103680
H16   H     H_    0.928577 0.142178 0.679853 0.101469
N13   N     N_R   0.419850 0.423100 0.556610 -0.038764
N14   N     N_R   0.419850 0.576900 0.556610 -0.036012
N15   N     N_R   0.919850 0.923100 0.556610 -0.038732
N16   N     N_R   0.919850 0.076900 0.556610 -0.035937
C17   C     C_R   0.686638 0.389575 0.594144 -0.099393
C18   C     C_R   0.689496 0.603382 0.595450 -0.091668
C19   C     C_R   0.186759 0.889853 0.594176 -0.100069
C20   C     C_R   0.189509 0.103336 0.595451 -0.091839
H17   H     H_    0.732706 0.384155 0.680972 0.151400
H18   H     H_    0.734387 0.604089 0.682692 0.163635
H19   H     H_    0.232783 0.884453 0.681024 0.152114
H20   H     H_    0.234414 0.103953 0.682684 0.163660
N17   N     N_R   0.627410 0.423100 0.556610 -0.045348
N18   N     N_R   0.627410 0.576900 0.556610 -0.048558
N19   N     N_R   0.127410 0.923100 0.556610 -0.045364
N20   N     N_R   0.127410 0.076900 0.556610 -0.048486
C21   C     C_R   0.333788 0.360595 0.408489 -0.141538
C22   C     C_R   0.325540 0.629173 0.406376 -0.149469
C23   C     C_R   0.833761 0.860626 0.408471 -0.141529
C24   C     C_R   0.825159 0.128634 0.406330 -0.150031
H21   H     H_    0.286423 0.351301 0.324218 0.091095
H22   H     H_    0.278171 0.634557 0.320892 0.093015
H23   H     H_    0.786392 0.851365 0.324195 0.091080
H24   H     H_    0.777707 0.133748 0.320840 0.093044
N21   N     N_R   0.374220 0.422390 0.443390 -0.037996
N22   N     N_R   0.374220 0.577610 0.443390 -0.036043
N23   N     N_R   0.874220 0.922390 0.443390 -0.037958
N24   N     N_R   0.874220 0.077610 0.443390 -0.035948
C25   C     C_R   0.578765 0.392230 0.802468 -0.148699
C26   C     C_R   0.578089 0.609223 0.800728 -0.142505
C27   C     C_R   0.078772 0.892206 0.802457 -0.148721
C28   C     C_R   0.078069 0.109262 0.800691 -0.142297
H25   H     H_    0.551443 0.394318 0.835302 0.099034
H26   H     H_    0.550264 0.607892 0.832783 0.097853
H27   H     H_    0.051463 0.894283 0.835315 0.099020
H28   H     H_    0.050230 0.107959 0.832724 0.097823
N25   N     N_R   0.555000 0.424040 0.705410 -0.041381
N26   N     N_R   0.555000 0.575960 0.705410 -0.041991
N27   N     N_R   0.055000 0.924040 0.705410 -0.041383
N28   N     N_R   0.055000 0.075960 0.705410 -0.042034
C29   C     C_R   0.437499 0.364599 0.229653 -0.144543
C30   C     C_R   0.440433 0.639174 0.236031 -0.147819
C31   C     C_R   0.937542 0.864564 0.229736 -0.144625
C32   C     C_R   0.940518 0.139314 0.236292 -0.147762
H29   H     H_    0.472495 0.350976 0.213076 0.105236
H30   H     H_    0.476437 0.654259 0.221525 0.104061
H31   H     H_    0.972579 0.850928 0.213240 0.105278
H32   H     H_    0.976519 0.154430 0.221791 0.103998
N29   N     N_R   0.446630 0.421450 0.294590 -0.045065
N30   N     N_R   0.446630 0.578550 0.294590 -0.044764
N31   N     N_R   0.946630 0.921450 0.294590 -0.045081
N32   N     N_R   0.946630 0.078550 0.294590 -0.044764
C33   C     C_R   0.375231 0.327730 0.188453 0.154034
C34   C     C_R   0.380131 0.678123 0.199144 0.156225
C35   C     C_R   0.875281 0.827681 0.188544 0.154090
C36   C     C_R   0.880310 0.178375 0.199666 0.156042
C37   C     C_R   0.648873 0.371666 0.861905 0.145512
C38   C     C_R   0.648200 0.630497 0.859568 0.142640
C39   C     C_R   0.148871 0.871624 0.861840 0.145512
C40   C     C_R   0.148177 0.130546 0.859526 0.142593
C41   C     C_R   0.677824 0.368385 0.501514 0.004792
C42   C     C_R   0.685345 0.619029 0.505487 -0.001044
C43   C     C_R   0.178136 0.868948 0.501623 0.004451
C44   C     C_R   0.185363 0.118992 0.505497 -0.001668
C45   C     C_R   0.358317 0.318298 0.502173 0.028000
C46   C     C_R   0.343972 0.665689 0.499403 0.033082
C47   C     C_R   0.858277 0.818331 0.502145 0.028075
C48   C     C_R   0.843407 0.164936 0.499338 0.033335
Ni1   Ni    Ni4+2 0.382890 0.500000 0.370170 0.212227
Ni2   Ni    Ni4+2 0.882890 1.000000 0.370170 0.212238
Ni3   Ni    Ni4+2 0.618740 0.500000 0.629830 0.229062
Ni4   Ni    Ni4+2 0.118740 1.000000 0.629830 0.228994
Ni5   Ni    Ni4+2 0.514090 0.500000 0.370170 0.211106
Ni6   Ni    Ni4+2 0.014090 1.000000 0.370170 0.211025
Ni7   Ni    Ni4+2 0.487550 0.500000 0.629830 0.211258
Ni8   Ni    Ni4+2 0.987550 1.000000 0.629830 0.211248
C49   C     C_3   0.363138 0.204607 0.604035 -0.497644
C50   C     C_3   0.344550 0.795643 0.558286 -0.494121
C51   C     C_3   0.863103 0.704566 0.603866 -0.497995
C52   C     C_3   0.843649 0.295193 0.556608 -0.494444
H33   H     H_    0.400923 0.235631 0.683859 0.194414
H34   H     H_    0.394169 0.782645 0.643672 0.198203
H35   H     H_    0.900914 0.735531 0.683739 0.194540
H36   H     H_    0.893670 0.282806 0.641839 0.198327
H37   H     H_    0.395771 0.170136 0.592791 0.149857
H38   H     H_    0.360530 0.820934 0.511900 0.149029
H39   H     H_    0.895709 0.670150 0.592510 0.149996
H40   H     H_    0.858878 0.320144 0.509029 0.149280
C53   C     C_3   0.815989 0.651012 0.610802 0.248046
C54   C     C_3   0.798369 0.353126 0.560144 0.251401
C55   C     C_3   0.316014 0.151117 0.611027 0.247963
C56   C     C_3   0.299156 0.853560 0.561632 0.251628
H41   H     H_    0.827250 0.591068 0.603281 0.105232
H42   H     H_    0.790977 0.404445 0.511015 0.049897
H43   H     H_    0.327367 0.091136 0.603811 0.104192
H44   H     H_    0.292280 0.905134 0.513290 0.049912
H45   H     H_    0.298795 0.335641 0.596846 0.188099
H46   H     H_    0.324014 0.675541 0.651115 0.178438
H47   H     H_    0.798931 0.835637 0.597075 0.187838
H48   H     H_    0.824628 0.175964 0.652443 0.178785
H49   H     H_    0.715433 0.761728 0.577655 0.197356
H50   H     H_    0.747775 0.251015 0.644320 0.189041
H51   H     H_    0.215159 0.261785 0.577147 0.197401
H52   H     H_    0.247279 0.750805 0.643083 0.189306
C57   C     C_3   0.266985 0.305012 0.515659 -0.376943
C58   C     C_3   0.277582 0.686684 0.562353 -0.388817
C59   C     C_3   0.767044 0.805047 0.515850 -0.376849
C60   C     C_3   0.777835 0.186344 0.563664 -0.389385
C61   C     C_3   0.271702 0.211573 0.397276 -0.418105
C62   C     C_3   0.234966 0.741176 0.378809 -0.417908
C63   C     C_3   0.771560 0.711716 0.397139 -0.418270
C64   C     C_3   0.733839 0.239399 0.378668 -0.417043
C65   C     C_3   0.316187 0.260567 0.504670 0.338154
C66   C     C_3   0.301226 0.721435 0.499636 0.343436
C67   C     C_3   0.816143 0.760610 0.504629 0.338281
C68   C     C_3   0.800626 0.220587 0.499499 0.343775
H53   H     H_    0.735770 0.747878 0.321904 0.164271
H54   H     H_    0.700959 0.187064 0.336147 0.169556
H55   H     H_    0.235880 0.247674 0.321980 0.164278
H56   H     H_    0.201841 0.689181 0.335014 0.169400
H57   H     H_    0.307207 0.180077 0.389766 0.181830
H58   H     H_    0.250739 0.764805 0.331734 0.170881
H59   H     H_    0.807004 0.680172 0.389540 0.181910
H60   H     H_    0.748913 0.262512 0.330392 0.169814
C69   C     C_3   0.735703 0.666974 0.508612 0.207327
C70   C     C_3   0.723740 0.317215 0.501763 0.223333
C71   C     C_3   0.235735 0.166932 0.508641 0.207518
C72   C     C_3   0.224226 0.817957 0.501942 0.223219
C73   C     C_3   0.715894 0.750617 0.508370 -0.338499
C74   C     C_3   0.728687 0.241504 0.558829 -0.352457
C75   C     C_3   0.215792 0.250579 0.508059 -0.338156
C76   C     C_3   0.228503 0.741853 0.557678 -0.352290
C77   C     C_3   0.726006 0.654503 0.401087 -0.462256
C78   C     C_3   0.689952 0.298091 0.379655 -0.465677
C79   C     C_3   0.226207 0.154293 0.401291 -0.462275
C80   C     C_3   0.190960 0.799672 0.379860 -0.465616
H61   H     H_    0.740402 0.594977 0.398531 0.163235
H62   H     H_    0.686249 0.350538 0.335385 0.159843
H63   H     H_    0.240783 0.094786 0.399061 0.163042
H64   H     H_    0.187613 0.852467 0.336469 0.159832
H65   H     H_    0.670620 0.663656 0.324378 0.175412
H66   H     H_    0.635697 0.274057 0.332786 0.183570
H67   H     H_    0.170830 0.163239 0.324445 0.175345
H68   H     H_    0.136601 0.775720 0.332138 0.183402
H69   H     H_    0.236322 0.348863 0.448679 0.151392
H70   H     H_    0.249792 0.631140 0.524315 0.155828
H71   H     H_    0.736353 0.848928 0.448924 0.151436
H72   H     H_    0.750374 0.130489 0.526838 0.155707
H73   H     H_    0.661377 0.762463 0.429948 0.155533
H74   H     H_    0.675301 0.214866 0.510620 0.160080
H75   H     H_    0.161316 0.262325 0.429475 0.155467
H76   H     H_    0.174947 0.715511 0.508655 0.160053
H77   H     H_    0.790209 0.374627 0.003438 0.120648
H78   H     H_    0.789253 0.625017 0.002393 0.125636
H79   H     H_    0.290207 0.874537 0.003216 0.120731
H80   H     H_    0.289225 0.125002 0.002393 0.125703
C81   C     C_2   0.697334 0.344685 0.977360 -0.209422
C82   C     C_2   0.696610 0.658456 0.974026 -0.210528
C83   C     C_2   0.197354 0.844624 0.977255 -0.209494
C84   C     C_2   0.196582 0.158526 0.973971 -0.210534
C85   C     C_2   0.767460 0.347710 0.036626 -0.153583
C86   C     C_2   0.766567 0.654000 0.033689 -0.149473
C87   C     C_2   0.267470 0.847607 0.036413 -0.153507
C88   C     C_2   0.266538 0.154029 0.033657 -0.149475
H81   H     H_    0.356993 0.751484 0.066491 0.122384
H82   H     H_    0.346718 0.258929 0.049215 0.135939
H83   H     H_    0.857174 0.251749 0.067049 0.122126
H84   H     H_    0.846817 0.758857 0.049357 0.135817
C89   C     C_2   0.352399 0.747403 0.130931 -0.258346
C90   C     C_2   0.346007 0.260082 0.117902 -0.254572
C91   C     C_2   0.852569 0.247676 0.131477 -0.258296
C92   C     C_2   0.846073 0.760023 0.118010 -0.254643
C93   C     C_2   0.313860 0.799173 0.134491 0.357686
C94   C     C_2   0.312932 0.204245 0.128656 0.354826
C95   C     C_2   0.813873 0.299351 0.134825 0.357203
C96   C     C_2   0.812956 0.704207 0.128708 0.354865
H85   H     H_    0.675002 0.316545 0.010645 0.146564
H86   H     H_    0.674806 0.688613 0.006169 0.146830
H87   H     H_    0.175046 0.816476 0.010574 0.146727
H88   H     H_    0.174779 0.188722 0.006089 0.146846
N33   N     N_R   0.335409 0.160010 0.720931 0.222833
O1    O     O_R   0.367464 0.104518 0.792965 -0.367022
O2    O     O_R   0.330622 0.225869 0.753627 -0.446656
N34   N     N_R   0.335205 0.877444 0.676655 0.228768
O3    O     O_R   0.349195 0.949435 0.702783 -0.390849
O4    O     O_R   0.358419 0.827387 0.755140 -0.436687
N35   N     N_R   0.835508 0.659660 0.720822 0.222859
O5    O     O_R   0.867463 0.603994 0.792567 -0.366638
O6    O     O_R   0.830893 0.725449 0.753882 -0.446806
N36   N     N_R   0.834832 0.377604 0.675080 0.229173
O7    O     O_R   0.848452 0.449741 0.700317 -0.391322
O8    O     O_R   0.858715 0.327960 0.754275 -0.436192
C97   C     C_3   0.310026 0.803737 0.226603 -1.005737
H89   H     H_    0.307280 0.864515 0.243353 0.251416
H90   H     H_    0.261707 0.773814 0.200053 0.227218
H91   H     H_    0.357316 0.778799 0.305686 0.256563
C98   C     C_3   0.314098 0.197169 0.225611 -1.010724
H92   H     H_    0.310048 0.135969 0.240330 0.250767
H93   H     H_    0.364116 0.219902 0.303411 0.256760
H94   H     H_    0.268390 0.227907 0.206332 0.231853
C99   C     C_3   0.810140 0.304104 0.227054 -1.004365
H95   H     H_    0.807833 0.364947 0.244092 0.251361
H96   H     H_    0.761662 0.274609 0.200539 0.227104
H97   H     H_    0.857281 0.278868 0.306011 0.256319
C100  C     C_3   0.814084 0.697141 0.225625 -1.010686
H98   H     H_    0.810046 0.635941 0.240361 0.250788
H99   H     H_    0.864083 0.719893 0.303437 0.256774
H100  H     H_    0.768355 0.727865 0.206295 0.231841

loop_
_geom_bond_atom_site_label_1
_geom_bond_atom_site_label_2
_geom_bond_distance
_ccdc_geom_bond_type
C28   C40   1.389656 A    
C58   C76   1.522310 S    
C60   C68   1.548846 S    
C36   C91   1.461841 S    
N9    Ni5   1.874697 S    
C59   C73   1.518782 S    
C99   H95   1.110367 S    
C62   C80   1.508948 S    
H78   C86   1.083977 S    
C82   H86   1.086837 S    
H77   C85   1.084044 S    
C3    N3    1.335827 A    
C81   H85   1.086178 S    
N5    Ni3   1.847212 S    
C21   C45   1.384926 A    
C10   C42   1.387840 A    
N34   O4    1.301905 A    
C41   C70   1.450759 S    
C9    C41   1.374738 A    
C16   C48   1.379343 A    
C63   H53   1.109866 S    
C2    C34   1.389100 A    
C53   H41   1.114143 S    
C72   C76   1.553406 S    
N21   Ni1   1.868703 S    
C100  H98   1.110657 S    
H52   C76   1.110750 S    
C27   H27   1.081442 S    
N7    N27   1.414050 A    
C51   C53   1.544535 S    
C13   H13   1.078175 S    
C1    H1    1.076981 S    
C40   C84   1.459595 S    
C62   H56   1.114210 S    
C8    H8    1.079593 S    
C30   N30   1.340883 A    
C14   H14   1.080709 S    
C3    H3    1.076971 S    
N32   Ni6   1.885492 S    
C31   C35   1.382663 A    
C70   C74   1.553593 S    
N30   Ni5   1.885492 S    
H51   C75   1.111458 S    
C6    C38   1.383609 A    
C79   H67   1.109535 S    
C35   C92   1.456449 S    
N2    N30   1.414050 A    
N3    N31   1.414050 A    
C3    C35   1.389052 A    
N24   Ni2   1.884551 S    
C77   H65   1.109580 S    
C22   N22   1.309670 A    
N11   N19   1.359123 A    
C98   H92   1.110656 S    
C94   C98   1.504756 S    
C25   N25   1.346274 A    
C81   C85   1.341751 D    
N3    Ni2   1.895416 S    
C53   C69   1.581318 S    
C47   C67   1.461786 S    
C80   H68   1.114719 S    
N7    Ni4   1.847212 S    
C29   N29   1.338378 A    
C56   H44   1.115305 S    
C10   N10   1.324462 A    
C85   C95   1.459429 S    
H84   C92   1.087818 S    
C63   H59   1.109649 S    
N19   Ni4   1.875546 S    
C31   N31   1.338331 A    
C54   N36   1.468405 S    
C95   C99   1.508845 S    
C55   C71   1.581367 S    
C14   C46   1.379507 A    
C20   N20   1.315430 A    
C99   H97   1.110103 S    
C79   H63   1.113275 S    
C46   C66   1.446992 S    
C54   C70   1.565821 S    
C4    H4    1.075500 S    
C52   H36   1.112542 S    
C60   C74   1.522330 S    
C72   C80   1.555384 S    
N10   Ni5   1.863099 S    
C7    N7    1.327149 A    
C56   N34   1.468373 S    
C64   H54   1.114199 S    
C8    N8    1.325793 A    
C49   C65   1.551217 S    
C96   C100  1.504757 S    
C84   H88   1.086841 S    
C27   C39   1.390487 A    
C71   C79   1.558349 S    
C2    H2    1.075466 S    
N36   O8    1.301799 A    
N26   Ni7   1.841414 S    
N16   N24   1.359081 A    
C69   C77   1.558326 S    
N34   O3    1.300390 A    
C52   H40   1.113725 S    
C8    C40   1.383637 A    
C45   C65   1.461926 S    
C19   N19   1.318862 A    
N4    Ni2   1.879822 S    
C43   C72   1.451634 S    
C25   C37   1.390459 A    
N22   Ni1   1.884551 S    
C9    H9    1.080420 S    
C23   H23   1.073790 S    
C28   N28   1.343692 A    
C87   C93   1.459092 S    
C18   C42   1.371377 A    
C100  H99   1.110518 S    
C31   H31   1.080145 S    
C22   H22   1.076242 S    
C93   C97   1.508504 S    
C63   C67   1.549228 S    
C18   N18   1.315427 A    
C32   H32   1.080691 S    
C12   H12   1.078841 S    
C1    N1    1.335798 A    
N17   Ni3   1.875546 S    
C30   H30   1.080686 S    
C1    C33   1.388980 A    
C23   C47   1.384851 A    
C29   H29   1.080096 S    
C15   H15   1.078199 S    
C11   N11   1.309401 A    
H82   C90   1.087817 S    
N1    N29   1.414050 A    
N13   N21   1.359123 A    
H81   C89   1.087798 S    
N23   Ni2   1.868703 S    
C26   H26   1.081403 S    
C32   N32   1.341005 A    
C98   H93   1.110519 S    
C59   C67   1.550486 S    
N27   Ni8   1.852407 S    
C50   H34   1.112521 S    
C7    H7    1.079507 S    
C53   N35   1.469769 S    
C49   H33   1.109028 S    
C83   C87   1.341740 D    
C91   C95   1.348283 D    
C58   H70   1.113933 S    
C89   C93   1.348210 D    
C51   H35   1.109048 S    
C17   H17   1.079551 S    
C22   C46   1.376516 A    
C11   C43   1.375166 A    
N28   Ni8   1.841414 S    
C50   C56   1.545383 S    
C51   H39   1.113412 S    
H79   C87   1.084029 S    
N33   O1    1.301322 A    
C50   C66   1.550082 S    
C83   H87   1.086178 S    
C55   N33   1.469796 S    
N35   O6    1.301546 A    
C18   H18   1.072497 S    
C49   C55   1.544553 S    
C6    N6    1.325805 A    
C12   N12   1.324554 A    
C32   C36   1.388655 A    
N2    Ni1   1.879822 S    
C84   C88   1.339590 D    
C10   H10   1.078847 S    
C19   C43   1.375130 A    
N6    Ni3   1.862555 S    
C34   C89   1.461701 S    
H49   C73   1.111468 S    
N8    Ni4   1.862555 S    
C7    C39   1.382436 A    
C64   C78   1.508657 S    
C33   C90   1.456420 S    
C4    C36   1.389064 A    
C11   H11   1.080454 S    
C90   C94   1.345335 D    
N18   Ni3   1.859765 S    
C42   C69   1.468771 S    
N20   Ni4   1.859765 S    
C4    N4    1.334237 A    
N36   O7    1.300316 A    
N15   N23   1.359123 A    
C13   N13   1.321408 A    
C2    N2    1.334208 A    
C24   H24   1.076478 S    
C27   N27   1.346244 A    
N14   N22   1.359081 A    
N12   Ni6   1.863099 S    
C5    C37   1.382589 A    
N16   Ni8   1.865788 S    
C15   N15   1.321402 A    
C26   N26   1.343727 A    
C21   N21   1.323620 A    
C16   N16   1.319466 A    
C97   H91   1.110139 S    
N15   Ni8   1.854240 S    
C100  H100  1.108303 S    
N9    N17   1.359123 A    
H47   C59   1.113487 S    
C58   C66   1.548749 S    
C61   H57   1.109666 S    
N31   Ni6   1.874323 S    
C13   C45   1.382301 A    
C6    H6    1.079586 S    
C62   H58   1.108415 S    
C28   H28   1.081409 S    
C49   H37   1.113403 S    
C61   C79   1.529916 S    
N12   N20   1.359081 A    
C54   H42   1.115344 S    
C17   N17   1.318711 A    
C17   C41   1.375184 A    
N5    N25   1.414050 A    
C74   H74   1.114147 S    
C64   C68   1.549831 S    
C5    H5    1.079528 S    
C78   H62   1.114370 S    
N25   Ni7   1.852407 S    
C57   H69   1.114155 S    
N29   Ni5   1.874323 S    
N6    N26   1.414050 A    
C52   C54   1.544936 S    
C26   C38   1.389641 A    
C98   H94   1.108289 S    
N1    Ni1   1.895416 S    
H46   C58   1.112683 S    
C97   H90   1.107319 S    
H83   C91   1.087804 S    
C38   C82   1.459623 S    
C63   C77   1.529740 S    
H48   C60   1.112662 S    
C61   H55   1.109883 S    
N8    N28   1.414050 A    
C51   C67   1.551129 S    
C5    N5    1.327397 A    
C73   H73   1.114556 S    
C15   C47   1.382319 A    
N13   Ni7   1.854240 S    
H45   C57   1.113477 S    
C71   C75   1.547121 S    
C12   C44   1.387866 A    
C77   H61   1.113280 S    
H50   C74   1.110741 S    
C59   H71   1.114159 S    
N33   O2    1.301504 A    
C99   H96   1.107316 S    
C50   H38   1.113792 S    
N14   Ni7   1.865788 S    
C55   H43   1.114212 S    
C19   H19   1.079434 S    
C86   C96   1.452064 S    
C24   N24   1.309105 A    
C21   H21   1.073808 S    
C61   C65   1.549230 S    
C30   C34   1.388425 A    
C39   C83   1.463533 S    
C14   N14   1.319849 A    
C24   C48   1.376141 A    
C29   C33   1.382643 A    
C60   H72   1.113884 S    
C52   C68   1.550054 S    
C78   H66   1.114692 S    
C64   H60   1.108595 S    
C80   H64   1.114407 S    
C16   H16   1.080737 S    
C56   C72   1.566257 S    
C48   C68   1.445954 S    
C20   C44   1.371346 A    
C25   H25   1.081441 S    
H80   C88   1.083980 S    
C82   C86   1.339600 D    
C44   C71   1.468852 S    
N35   O5    1.301332 A    
N10   N18   1.359081 A    
C62   C66   1.549727 S    
C69   C73   1.547096 S    
N4    N32   1.414050 A    
N11   Ni6   1.874697 S    
C37   C81   1.463854 S    
C57   C75   1.518790 S    
C97   H89   1.110383 S    
C92   C96   1.345334 D    
C57   C65   1.550482 S    
C23   N23   1.323487 A    
C75   H75   1.114555 S    
C76   H76   1.114178 S    
C20   H20   1.072474 S    
C9    N9    1.308892 A    
C70   C78   1.555551 S    
C88   C94   1.452016 S    
