data_mof_unit_39824.cif
_audit_creation_date              2012-12-10T18:23:01-0500
_audit_creation_method            fapswitch 2.2
_symmetry_space_group_name_H-M    P1
_symmetry_Int_Tables_number       1
_space_group_crystal_system       triclinic
_cell_length_a                    15.089389
_cell_length_b                    13.999877
_cell_length_c                    10.598636
_cell_angle_alpha                 88.952978
_cell_angle_beta                  86.442768
_cell_angle_gamma                 87.642405
_cell_volume                      2232.47478534

loop_
_atom_site_label
_atom_site_type_symbol
_atom_type_description
_atom_site_fract_x
_atom_site_fract_y
_atom_site_fract_z
_atom_type_partial_charge
C1    C     C_R   0.326439 0.502772 0.501122 0.867811
C2    C     C_R   0.673545 0.497664 0.502087 0.874584
C3    C     C_R   0.952155 0.512806 0.515513 -0.032397
C4    C     C_R   0.045180 0.517181 0.518537 -0.064593
C5    C     C_R   0.909689 0.550318 0.409508 0.083332
C6    C     C_R   0.088978 0.472540 0.619392 0.024981
C7    C     C_R   0.945909 0.441002 0.726652 0.419696
C8    C     C_R   0.051825 0.596114 0.310918 0.422018
C9    C     C_R   0.037667 0.438784 0.724802 -0.201835
C10   C     C_R   0.959877 0.596181 0.312129 -0.314116
C11   C     C_R   0.550819 0.796795 0.410002 0.000991
C12   C     C_R   0.449805 0.202926 0.590365 -0.017712
C13   C     C_R   0.449295 0.798932 0.589718 -0.011185
C14   C     C_R   0.551253 0.201051 0.410652 -0.005282
C15   C     C_R   0.447952 0.899717 0.592479 -0.023875
C16   C     C_R   0.552422 0.100150 0.407380 -0.020890
C17   C     C_R   0.551716 0.897713 0.406429 -0.020561
C18   C     C_R   0.448859 0.102017 0.593631 -0.017055
C19   C     C_R   0.499676 0.949437 0.499289 -0.091543
C20   C     C_R   0.500669 0.050387 0.500462 -0.089090
C21   C     C_R   0.397772 0.950703 0.687696 0.326695
C22   C     C_R   0.602477 0.049042 0.311920 0.320617
C23   C     C_R   0.604659 0.946950 0.314143 0.321312
C24   C     C_R   0.396035 0.052630 0.685912 0.322792
C25   C     C_R   0.498679 0.501050 0.257034 0.873790
C26   C     C_R   0.492052 0.499374 0.742884 0.868391
C27   C     C_3   0.501468 0.591514 0.033798 0.145206
C28   C     C_3   0.476303 0.409324 0.967195 0.134090
C29   C     C_3   0.566823 0.530760 0.947208 0.133514
C30   C     C_3   0.411740 0.470269 0.055113 0.121654
C31   C     C_3   0.421076 0.558385 0.965381 0.126872
C32   C     C_3   0.557042 0.441700 0.034881 0.111079
C33   C     C_3   0.486744 0.497836 0.878605 -0.251607
C34   C     C_3   0.492946 0.502922 0.122116 -0.257622
C35   C     C_R   0.819004 0.535707 0.398403 0.122684
C36   C     C_R   0.182658 0.463425 0.612297 0.114403
C37   C     C_R   0.770168 0.492555 0.499697 -0.116202
C38   C     C_R   0.230106 0.511729 0.512927 -0.153881
C39   C     C_R   0.813686 0.445060 0.598403 0.034629
C40   C     C_R   0.185364 0.575390 0.430498 0.088061
C41   C     C_R   0.902910 0.466149 0.615048 -0.025203
C42   C     C_R   0.094452 0.563709 0.419058 0.057113
H1    H     H_    0.066931 0.413229 0.810040 0.183853
H2    H     H_    0.929292 0.627216 0.230852 0.160433
H3    H     H_    0.590655 0.754755 0.341348 0.173514
H4    H     H_    0.410849 0.244732 0.659877 0.175569
H5    H     H_    0.409902 0.758722 0.658775 0.169737
H6    H     H_    0.591486 0.241275 0.342549 0.169796
N1    N     N_R   0.500000 0.750030 0.500000 -0.137585
N2    N     N_R   0.500000 0.249970 0.500000 -0.135886
O1    O     O_R   0.367850 0.580280 0.500030 -0.623486
O2    O     O_R   0.632150 0.419720 0.499970 -0.613135
O3    O     O_R   0.632150 0.580280 0.499970 -0.619826
O4    O     O_R   0.367850 0.419720 0.500030 -0.614808
O5    O     O_R   0.499970 0.580260 0.313950 -0.640976
O6    O     O_R   0.500030 0.419740 0.686050 -0.640697
O7    O     O_R   0.500030 0.580260 0.686050 -0.632695
O8    O     O_R   0.499970 0.419740 0.313950 -0.631604
Zn1   Zn    Zn3+2 0.500000 0.607200 0.500000 0.916629
Zn2   Zn    Zn3+2 0.500000 0.392800 0.500000 0.918864
C43   C     C_3   0.345675 0.619378 0.909690 -0.380719
C44   C     C_3   0.286909 0.673501 0.009180 -0.825438
H7    H     H_    0.254081 0.623649 0.077060 0.291123
H8    H     H_    0.325490 0.722934 0.062244 0.250610
H9    H     H_    0.234519 0.716153 0.961865 0.264903
H10   H     H_    0.374727 0.671525 0.840952 0.228898
H11   H     H_    0.303961 0.572480 0.856984 0.184060
C45   C     C_3   0.626143 0.372436 0.090211 -0.359087
C46   C     C_3   0.688592 0.323102 0.991209 -0.855565
H12   H     H_    0.730041 0.267235 0.037964 0.278638
H13   H     H_    0.651420 0.288673 0.918838 0.256229
H14   H     H_    0.733460 0.374960 0.944992 0.257534
H15   H     H_    0.664148 0.411308 0.156209 0.204450
H16   H     H_    0.591143 0.317109 0.147124 0.234453
C47   C     C_3   0.514626 0.693103 0.080654 -0.340045
C48   C     C_3   0.514514 0.769053 0.975052 -0.836277
H17   H     H_    0.552902 0.744264 0.888571 0.265520
H18   H     H_    0.445914 0.788532 0.950293 0.275447
H19   H     H_    0.544265 0.834722 0.007891 0.266781
H20   H     H_    0.461269 0.712574 0.153476 0.209140
H21   H     H_    0.578409 0.693776 0.127025 0.219017
C49   C     C_3   0.458912 0.309836 0.916252 -0.345886
C50   C     C_3   0.453520 0.230724 0.017268 -0.839205
H22   H     H_    0.412316 0.253501 0.102044 0.260757
H23   H     H_    0.423241 0.167632 0.978114 0.280948
H24   H     H_    0.520722 0.207326 0.044721 0.268584
H25   H     H_    0.395705 0.314868 0.868242 0.207492
H26   H     H_    0.512142 0.288570 0.844311 0.219543
C51   C     C_3   0.651844 0.565086 0.874833 -0.376621
C52   C     C_3   0.711380 0.618674 0.957835 -0.890574
H27   H     H_    0.695538 0.696645 0.953548 0.273999
H28   H     H_    0.701563 0.594347 0.056926 0.265896
H29   H     H_    0.782152 0.607359 0.924852 0.254375
H30   H     H_    0.688788 0.502781 0.832512 0.180952
H31   H     H_    0.634700 0.613385 0.795290 0.230547
C53   C     C_3   0.330128 0.440195 0.138876 -0.362555
C54   C     C_3   0.252958 0.410111 0.064906 -0.846182
H32   H     H_    0.226337 0.471297 0.009607 0.264715
H33   H     H_    0.273467 0.350119 0.001604 0.260335
H34   H     H_    0.198708 0.386033 0.132124 0.264421
H35   H     H_    0.349694 0.380491 0.202750 0.216345
H36   H     H_    0.307109 0.500402 0.200719 0.197116
C55   C     C_3   0.780457 0.543666 0.269218 -0.447935
C56   C     C_3   0.824812 0.466081 0.182446 -0.820932
H37   H     H_    0.897867 0.470860 0.170604 0.277272
H38   H     H_    0.810320 0.394009 0.222178 0.262577
H39   H     H_    0.800238 0.472453 0.086707 0.269847
H40   H     H_    0.707881 0.534131 0.274095 0.191278
H41   H     H_    0.788641 0.616281 0.227825 0.210004
C57   C     C_3   0.231278 0.407816 0.714192 -0.450070
C58   C     C_3   0.221634 0.300324 0.702726 -0.792394
H42   H     H_    0.150858 0.281451 0.706569 0.255714
H43   H     H_    0.254397 0.274961 0.612087 0.274263
H44   H     H_    0.253271 0.263240 0.782557 0.271522
H45   H     H_    0.302847 0.422179 0.713585 0.205077
H46   H     H_    0.205973 0.431857 0.808589 0.189679
C59   C     C_3   0.772378 0.356758 0.661480 -0.419967
C60   C     C_3   0.778485 0.272496 0.570844 -0.763612
H47   H     H_    0.749222 0.291142 0.479771 0.271779
H48   H     H_    0.849217 0.249482 0.550729 0.250250
H49   H     H_    0.742620 0.211498 0.615054 0.237675
H50   H     H_    0.806220 0.330167 0.745023 0.248557
H51   H     H_    0.702318 0.372257 0.695134 0.212955
C61   C     C_3   0.229488 0.665448 0.375870 -0.348694
C62   C     C_3   0.235529 0.740032 0.478753 -0.809509
H52   H     H_    0.263512 0.709217 0.565495 0.273513
H53   H     H_    0.277813 0.798709 0.442099 0.244001
H54   H     H_    0.168101 0.770805 0.505648 0.247656
H55   H     H_    0.295316 0.647989 0.327619 0.207908
H56   H     H_    0.192299 0.703782 0.303127 0.255273
O9    O     O_3   0.901351 0.426559 0.842321 -0.799471
H57   H     H_    0.844140 0.463593 0.841860 0.317627
O10   O     O_3   0.100883 0.615664 0.199537 -0.824899
H58   H     H_    0.060739 0.633868 0.131695 0.337744
O11   O     O_3   0.352613 0.899386 0.782042 -0.812976
H59   H     H_    0.348823 0.936860 0.860662 0.342186
O12   O     O_3   0.646715 0.100398 0.216729 -0.811527
H60   H     H_    0.650039 0.062703 0.138309 0.342028
O13   O     O_3   0.658654 0.893791 0.229280 -0.811242
H61   H     H_    0.710946 0.931157 0.201986 0.347843
O14   O     O_3   0.342618 0.105377 0.771577 -0.832526
H62   H     H_    0.289306 0.068946 0.796689 0.347484

loop_
_geom_bond_atom_site_label_1
_geom_bond_atom_site_label_2
_ccdc_geom_bond_type
C53   H36   S    
C27   C29   S    
O5    Zn1   S    
C31   C43   S    
C19   C20   A    
C48   H19   S    
C59   H50   S    
C6    C9    A    
C29   C51   S    
C54   H32   S    
O3    Zn1   S    
O11   H59   S    
C39   C41   A    
O4    Zn2   S    
C15   C19   A    
C22   O12   S    
C17   C23   A    
C18   C24   A    
C23   O13   S    
C35   C37   A    
C8    C42   A    
C29   C32   S    
C35   C55   S    
C30   C31   S    
O7    Zn1   S    
C45   H16   S    
C49   H25   S    
C29   C33   S    
C51   H30   S    
C46   H13   S    
C60   H47   S    
C30   C53   S    
O2    Zn2   S    
C57   C58   S    
C43   H10   S    
C11   C17   A    
C58   H42   S    
C45   C46   S    
C62   H54   S    
C44   H8    S    
C31   C33   S    
C55   H40   S    
C47   H20   S    
C7    O9    S    
C25   C34   S    
C32   C45   S    
C40   C42   A    
C62   H52   S    
C53   H35   S    
C43   C44   S    
C27   C47   S    
C56   H38   S    
C56   H37   S    
C54   H33   S    
C27   C34   S    
C40   C61   S    
C9    H1    S    
C30   C34   S    
C10   H2    S    
C28   C32   S    
C48   H17   S    
C4    C6    A    
C13   H5    S    
C47   H21   S    
C14   H6    S    
C45   H15   S    
C39   C59   S    
C28   C49   S    
O6    Zn2   S    
C60   H49   S    
C32   C34   S    
C51   H31   S    
C46   H14   S    
C47   C48   S    
C44   H7    S    
C11   N1    A    
C43   H11   S    
C26   C33   S    
C52   H28   S    
C50   H22   S    
C24   O14   S    
C16   C20   A    
C53   C54   S    
C61   H56   S    
C58   H43   S    
C1    O1    A    
C2    O2    A    
C1    C38   S    
C1    O4    A    
C13   N1    A    
C12   H4    S    
C50   H23   S    
C28   C33   S    
C13   C15   A    
C27   C31   S    
C36   C57   S    
O10   H58   S    
C14   C16   A    
C11   H3    S    
O1    Zn1   S    
C25   O8    A    
O9    H57   S    
C57   H46   S    
C54   H34   S    
C52   H29   S    
C7    C9    A    
C3    C41   A    
C16   C22   A    
C44   H9    S    
C8    O10   S    
C25   O5    A    
C48   H18   S    
C3    C5    A    
C2    O3    A    
C26   O6    A    
C12   N2    A    
O13   H61   S    
O12   H60   S    
N1    Zn1   S    
C55   H41   S    
N2    Zn2   S    
C28   C30   S    
C59   H51   S    
C5    C10   A    
C37   C39   A    
C59   C60   S    
C38   C40   A    
C2    C37   S    
C52   H27   S    
C14   N2    A    
C4    C42   A    
C49   H26   S    
C5    C35   A    
C36   C38   A    
C17   C19   A    
C6    C36   A    
C61   H55   S    
C58   H44   S    
C18   C20   A    
C7    C41   A    
C46   H12   S    
C26   O7    A    
C60   H48   S    
C15   C21   A    
C50   H24   S    
C8    C10   A    
C49   C50   S    
C21   C24   A    
C12   C18   A    
C55   C56   S    
C62   H53   S    
C22   C23   A    
C51   C52   S    
O14   H62   S    
O8    Zn2   S    
C57   H45   S    
C21   O11   S    
C56   H39   S    
C3    C4    A    
C61   C62   S    
