data_mof_unit_39687.cif
_audit_creation_date              2012-12-10T17:29:19-0500
_audit_creation_method            fapswitch 2.2
_symmetry_space_group_name_H-M    P1
_symmetry_Int_Tables_number       1
_space_group_crystal_system       triclinic
_cell_length_a                    11.999533
_cell_length_b                    12.863153
_cell_length_c                    13.133297
_cell_angle_alpha                 87.270071
_cell_angle_beta                  113.420305
_cell_angle_gamma                 93.945878
_cell_volume                      1855.27467486

loop_
_atom_site_label
_atom_site_type_symbol
_atom_type_description
_atom_site_fract_x
_atom_site_fract_y
_atom_site_fract_z
_atom_type_partial_charge
C1    C     C_R   0.476584 0.299487 0.497554 0.883853
C2    C     C_R   0.561833 0.518334 0.988655 0.085901
C3    C     C_R   0.541659 0.548244 0.878613 0.083624
C4    C     C_R   0.472442 0.538941 0.028448 0.082243
C5    C     C_R   0.376579 0.604325 0.966592 0.176274
C6    C     C_R   0.369258 0.646496 0.864659 -0.253532
C7    C     C_R   0.450619 0.618667 0.820845 -0.203099
C8    C     C_R   0.474400 0.493858 0.127258 -0.258810
C9    C     C_R   0.301949 0.589277 0.113321 -0.195173
C10   C     C_R   0.612041 0.505246 0.828793 -0.116684
C11   C     C_R   0.537834 0.812526 0.500186 -0.174309
C12   C     C_R   0.567379 0.500823 0.708457 0.854577
C13   C     C_R   0.462152 0.188073 0.496801 -0.052510
C14   C     C_R   0.374729 0.027842 0.541662 -0.194334
C15   C     C_R   0.376817 0.135566 0.531431 -0.209075
C16   C     C_R   0.541890 0.133929 0.468233 -0.249224
C17   C     C_R   0.541492 0.027129 0.479429 0.108073
C18   C     C_R   0.457882 0.973717 0.517083 0.194408
C19   C     C_R   0.457650 0.866913 0.528235 -0.368997
C20   C     C_R   0.624668 0.865376 0.466360 0.533378
C21   C     C_R   0.624230 0.973398 0.454331 -0.321257
C22   C     C_R   0.006029 0.593971 0.391102 -0.341584
C23   C     C_R   0.523202 0.700701 0.501319 0.918673
C24   C     C_R   0.126828 0.585624 0.402576 0.018685
C25   C     C_R   0.160044 0.460477 0.548565 -0.043846
C26   C     C_R   0.039048 0.466305 0.540078 0.093604
C27   C     C_R   0.961020 0.533910 0.460068 0.075509
C28   C     C_R   0.839932 0.539507 0.451394 -0.056874
C29   C     C_R   0.873303 0.414650 0.597667 0.014376
C30   C     C_R   0.994101 0.406363 0.609166 -0.331272
C31   C     C_R   0.433586 0.505305 0.291483 0.880486
C32   C     C_R   0.290629 0.627611 0.008735 -0.197652
C33   C     C_R   0.396366 0.524379 0.173334 -0.054032
C34   C     C_R   0.717609 0.454278 0.894166 -0.194383
C35   C     C_R   0.748630 0.439635 0.007297 -0.146378
C36   C     C_R   0.670331 0.468811 0.054234 -0.191903
H1    H     H_    0.241255 0.614113 0.149179 0.149425
H2    H     H_    0.309771 0.987174 0.569963 0.132932
H3    H     H_    0.686972 0.014821 0.423814 0.155445
H4    H     H_    0.314977 0.177731 0.553725 0.154394
H5    H     H_    0.606434 0.175139 0.439585 0.157457
H6    H     H_    0.779100 0.591440 0.390392 0.159987
H7    H     H_    0.839549 0.368602 0.651540 0.128085
H8    H     H_    0.948345 0.646787 0.328671 0.154655
H9    H     H_    0.051823 0.353664 0.671712 0.144990
H10   H     H_    0.160643 0.631797 0.348820 0.129985
H11   H     H_    0.299155 0.699260 0.817708 0.145617
H12   H     H_    0.220766 0.408353 0.609394 0.129013
H13   H     H_    0.217924 0.678416 0.962850 0.135066
H14   H     H_    0.539480 0.437102 0.172703 0.146443
H15   H     H_    0.774139 0.423005 0.857290 0.152294
H16   H     H_    0.698311 0.454185 0.142283 0.134933
H17   H     H_    0.830903 0.401434 0.057956 0.144901
H18   H     H_    0.442430 0.653992 0.741939 0.167839
H19   H     H_    0.392964 0.825887 0.556833 0.176981
N1    N     N_R   0.798200 0.480260 0.519790 -0.098352
N2    N     N_R   0.201820 0.519740 0.480210 -0.098758
O1    O     O_R   0.579910 0.341070 0.505280 -0.626266
O2    O     O_R   0.388440 0.353740 0.492580 -0.618204
O3    O     O_R   0.643280 0.490550 0.663120 -0.621782
O4    O     O_R   0.451810 0.503220 0.650420 -0.617867
O5    O     O_R   0.611560 0.646260 0.507420 -0.573421
O6    O     O_R   0.420090 0.658930 0.494720 -0.638278
O7    O     O_R   0.548190 0.496780 0.349580 -0.614293
O8    O     O_R   0.356720 0.509450 0.336880 -0.621820
Zn1   Zn    Zn3+2 0.627850 0.491540 0.508480 0.951052
Zn2   Zn    Zn3+2 0.372150 0.508460 0.491520 0.933570
O9    O     O_3   0.699588 0.811214 0.432940 -0.596573
C37   C     C_3   0.819642 0.821994 0.513560 -0.308595
H20   H     H_    0.878180 0.773972 0.489463 0.186952
H21   H     H_    0.825185 0.793132 0.596666 0.162815
H22   H     H_    0.856809 0.904060 0.518089 0.150644

loop_
_geom_bond_atom_site_label_1
_geom_bond_atom_site_label_2
_ccdc_geom_bond_type
C37   H22   S    
C2    C4    A    
C17   C21   A    
C31   C33   S    
C29   C30   A    
C29   N1    A    
C35   H17   S    
C14   C18   A    
C30   H9    S    
C3    C7    A    
C35   C36   A    
C36   H16   S    
C4    C8    A    
C5    C32   A    
C24   H10   S    
C23   O6    A    
C2    C3    A    
C34   H15   S    
O3    Zn1   S    
C10   C34   A    
C3    C10   A    
C1    O1    A    
C29   H7    S    
C9    C33   A    
C12   O4    A    
C25   H12   S    
C11   C19   A    
C26   C27   A    
C6    C7    A    
O4    Zn2   S    
C10   C12   S    
N2    Zn2   S    
N1    Zn1   S    
C31   O7    A    
C11   C23   S    
C1    O2    A    
O1    Zn1   S    
C26   C30   A    
C22   C24   A    
C22   C27   A    
C13   C15   A    
C37   H20   S    
C28   N1    A    
C5    C6    A    
C11   C20   A    
O6    Zn2   S    
C15   H4    S    
C9    C32   A    
C14   H2    S    
C6    H11   S    
O5    Zn1   S    
C2    C36   A    
C12   O3    A    
C8    H14   S    
C25   N2    A    
C4    C5    A    
C1    C13   S    
C20   C21   A    
C17   C18   A    
C34   C35   A    
C24   N2    A    
C13   C16   A    
C19   H19   S    
C27   C28   A    
C37   H21   S    
C31   O8    A    
C14   C15   A    
C18   C19   A    
C28   H6    S    
C7    H18   S    
O2    Zn2   S    
C25   C26   A    
O9    C37   S    
C32   H13   S    
C16   H5    S    
C20   O9    S    
C23   O5    A    
C22   H8    S    
C16   C17   A    
O7    Zn1   S    
C8    C33   A    
O8    Zn2   S    
C9    H1    S    
C21   H3    S    
