data_mof_unit_53115.cif
_audit_creation_date              2012-12-10T16:57:06-0500
_audit_creation_method            fapswitch 2.2
_symmetry_space_group_name_H-M    P1
_symmetry_Int_Tables_number       1
_space_group_crystal_system       triclinic
_cell_length_a                    7.808576
_cell_length_b                    8.572842
_cell_length_c                    16.543376
_cell_angle_alpha                 92.743794
_cell_angle_beta                  78.458182
_cell_angle_gamma                 93.795763
_cell_volume                      1081.98844142

loop_
_atom_site_label
_atom_site_type_symbol
_atom_type_description
_atom_site_fract_x
_atom_site_fract_y
_atom_site_fract_z
_atom_type_partial_charge
C1    C     C_R   0.546105 0.794783 0.498123 1.060068
C2    C     C_R   0.453841 0.205232 0.502145 0.934875
C3    C     C_2   0.570370 0.958277 0.497179 -0.340411
C4    C     C_2   0.429474 0.041784 0.503595 -0.359680
C5    C     C_R   0.473589 0.502042 0.654558 0.952575
C6    C     C_R   0.526170 0.495380 0.345307 0.929718
C7    C     C_R   0.443519 0.471060 0.741145 -0.109637
C8    C     C_R   0.548622 0.467026 0.257108 -0.114651
C9    C     C_R   0.479817 0.584346 0.800612 -0.067820
C10   C     C_R   0.506029 0.575773 0.204502 -0.067800
C11   C     C_R   0.455860 0.538491 0.882000 -0.140022
C12   C     C_R   0.537324 0.539041 0.120007 -0.110765
C13   C     C_R   0.402451 0.383506 0.903355 0.049841
C14   C     C_R   0.599445 0.393466 0.088696 0.043391
C15   C     C_R   0.354468 0.273323 0.844559 0.030817
C16   C     C_R   0.642542 0.285180 0.141574 -0.046924
C17   C     C_R   0.375074 0.320421 0.763482 -0.236971
C18   C     C_R   0.618597 0.324870 0.225548 -0.205975
C19   C     C_2   0.420575 0.339637 0.985562 -0.088142
C20   C     C_2   0.583462 0.349400 0.003671 -0.156685
H1    H     H_    0.648874 0.241729 0.267409 0.152517
H2    H     H_    0.345100 0.237381 0.715969 0.175388
H3    H     H_    0.503464 0.620363 0.078285 0.178623
H4    H     H_    0.487259 0.621626 0.929103 0.185049
H5    H     H_    0.703406 0.009363 0.491088 0.176279
H6    H     H_    0.296437 0.990684 0.509705 0.186106
H7    H     H_    0.023231 0.378150 0.438587 0.193333
H8    H     H_    0.976769 0.621865 0.561405 0.202137
N1    N     N_2   0.953500 0.457650 0.478520 -0.168195
N2    N     N_2   0.046500 0.542350 0.521480 -0.165481
O1    O     O_R   0.388470 0.738640 0.505270 -0.598837
O2    O     O_R   0.611530 0.261360 0.494730 -0.618503
O3    O     O_R   0.679650 0.711510 0.491500 -0.621558
O4    O     O_R   0.320350 0.288490 0.508500 -0.631173
O5    O     O_R   0.337210 0.515200 0.623500 -0.598515
O6    O     O_R   0.662790 0.484800 0.376500 -0.606341
O7    O     O_R   0.628380 0.488060 0.609730 -0.615315
O8    O     O_R   0.371620 0.511940 0.390270 -0.612112
Zn1   Zn    Zn3+2 0.305580 0.518120 0.509190 0.983852
Zn2   Zn    Zn3+2 0.694420 0.481880 0.490810 0.975727
C21   C     C_2   0.544369 0.748358 0.780055 0.910707
O9    O     O_2   0.609636 0.831276 0.829502 -0.550762
O10   O     O_R   0.528721 0.809860 0.705241 -0.824236
H9    H     H_    0.576059 0.922665 0.699461 0.351710
C22   C     C_2   0.426544 0.725380 0.235575 0.989132
O11   O     O_2   0.326259 0.782161 0.198525 -0.549200
O12   O     O_R   0.467411 0.803065 0.306163 -0.808415
H10   H     H_    0.405224 0.903830 0.320507 0.347457
C23   C     C_2   0.744873 0.359700 0.937938 0.941920
O13   O     O_2   0.870332 0.445822 0.948460 -0.571065
O14   O     O_R   0.753631 0.269971 0.864516 -0.755780
H11   H     H_    0.870035 0.286947 0.825031 0.353189
C24   C     C_2   0.258738 0.325993 0.050672 0.967825
O15   O     O_2   0.133122 0.400655 0.046257 -0.598804
O16   O     O_R   0.250688 0.228776 0.116988 -0.743235
H12   H     H_    0.134123 0.230147 0.157104 0.345538
C25   C     C_2   0.290816 0.108534 0.863648 0.960496
O17   O     O_2   0.303702 0.052400 0.928561 -0.552277
O18   O     O_R   0.216089 0.016113 0.806257 -0.791350
H13   H     H_    0.178245 0.906494 0.825730 0.372716
C26   C     C_2   0.691992 0.124073 0.113436 0.990303
O19   O     O_2   0.615302 0.013336 0.151394 -0.533831
O20   O     O_R   0.826360 0.094725 0.046005 -0.715650
H14   H     H_    0.899819 0.192016 0.026600 0.334825

loop_
_geom_bond_atom_site_label_1
_geom_bond_atom_site_label_2
_ccdc_geom_bond_type
C4    H6    S    
O10   H9    S    
C6    O8    A    
C15   C17   A    
C20   C23   S    
C17   H2    S    
C5    O7    A    
H7    N1    S    
C18   H1    S    
C21   O10   S    
C21   O9    D    
C9    C21   S    
C19   C20   D    
C1    O1    A    
C9    C11   A    
C2    O4    A    
C10   C22   S    
C13   C15   A    
C12   C14   A    
C1    O3    A    
O18   H13   S    
C16   C18   A    
C22   O11   D    
C15   C25   S    
C12   H3    S    
C19   C24   S    
C25   O17   D    
N1    N2    D    
C10   C12   A    
C2    C4    S    
C5    O5    A    
N1    Zn2   S    
C8    C10   A    
C6    O6    A    
N2    Zn1   S    
O7    Zn2   S    
C5    C7    S    
O2    Zn2   S    
C24   O16   S    
O5    Zn1   S    
C14   C16   A    
O16   H12   S    
C25   O18   S    
C11   C13   A    
C26   O19   D    
C13   C19   S    
O20   H14   S    
O3    Zn2   S    
C14   C20   S    
C11   H4    S    
O6    Zn2   S    
C3    H5    S    
O14   H11   S    
C2    O2    A    
C23   O13   D    
C16   C26   S    
C22   O12   S    
C1    C3    S    
C7    C9    A    
C6    C8    S    
C7    C17   A    
C24   O15   D    
O4    Zn1   S    
C26   O20   S    
C8    C18   A    
C3    C4    D    
O12   H10   S    
O1    Zn1   S    
H8    N2    S    
C23   O14   S    
O8    Zn1   S    
