data_mof_unit_35301.cif
_audit_creation_date              2012-12-10T18:20:34-0500
_audit_creation_method            fapswitch 2.2
_symmetry_space_group_name_H-M    P1
_symmetry_Int_Tables_number       1
_space_group_crystal_system       triclinic
_cell_length_a                    14.084815
_cell_length_b                    13.606499
_cell_length_c                    15.009418
_cell_angle_alpha                 89.405936
_cell_angle_beta                  91.485091
_cell_angle_gamma                 82.310376
_cell_volume                      2849.37788285

loop_
_atom_site_label
_atom_site_type_symbol
_atom_type_description
_atom_site_fract_x
_atom_site_fract_y
_atom_site_fract_z
_atom_type_partial_charge
C1    C     C_R   0.499420 0.498649 0.326934 0.885481
C2    C     C_R   0.500504 0.502955 0.672913 0.897983
C3    C     C_R   0.500213 0.503109 0.953036 0.031364
C4    C     C_R   0.499450 0.500524 0.046408 0.026302
C5    C     C_R   0.570357 0.439230 0.907459 0.102697
C6    C     C_R   0.430306 0.565853 0.092003 0.092770
C7    C     C_R   0.365877 0.636584 0.951164 -0.300814
C8    C     C_R   0.637074 0.370293 0.047886 -0.299531
C9    C     C_R   0.363996 0.635307 0.043490 -0.008236
C10   C     C_R   0.637615 0.370643 0.955440 -0.012755
C11   C     C_R   0.808388 0.433288 0.553557 0.018577
C12   C     C_R   0.192134 0.559929 0.440769 0.020879
C13   C     C_R   0.788125 0.566562 0.448320 -0.049354
C14   C     C_R   0.210886 0.443535 0.560765 -0.037400
C15   C     C_R   0.887846 0.568227 0.447846 -0.022426
C16   C     C_R   0.110933 0.443134 0.562596 -0.024884
C17   C     C_R   0.948960 0.504241 0.505109 0.072784
C18   C     C_R   0.049869 0.505860 0.504324 0.077349
C19   C     C_R   0.909070 0.439177 0.563239 -0.083033
C20   C     C_R   0.089778 0.570211 0.445593 -0.086625
C21   C     C_R   0.926452 0.636257 0.393985 -0.204229
C22   C     C_R   0.071302 0.384158 0.624482 -0.211120
C23   C     C_R   0.517595 0.314076 0.500472 0.903108
C24   C     C_R   0.482417 0.685926 0.499522 0.891914
C25   C     C_R   0.025638 0.641140 0.394400 -0.007951
C26   C     C_R   0.971502 0.384021 0.628305 -0.001339
C27   C     C_1   0.468609 0.790058 0.498706 -0.192079
C28   C     C_1   0.531478 0.209948 0.501664 -0.148805
C29   C     C_2   0.458573 0.982085 0.498408 -0.162211
C30   C     C_2   0.541626 0.017912 0.502607 -0.150239
C31   C     C_1   0.539706 0.121905 0.502406 0.016829
C32   C     C_1   0.460459 0.878099 0.498318 -0.004354
C33   C     C_R   0.572418 0.447433 0.815251 -0.240590
C34   C     C_R   0.432285 0.562282 0.184673 -0.202075
C35   C     C_R   0.501153 0.508591 0.768315 -0.130869
C36   C     C_R   0.499272 0.495501 0.231275 -0.133406
C37   C     C_R   0.429256 0.570152 0.811851 -0.058038
C38   C     C_R   0.569160 0.431574 0.187449 -0.054893
C39   C     C_R   0.431193 0.570238 0.905165 0.082320
C40   C     C_R   0.569140 0.433848 0.094138 0.082743
H1    H     H_    0.609954 0.970003 0.505902 0.167467
H2    H     H_    0.390252 0.030004 0.495061 0.163099
H3    H     H_    0.627837 0.404738 0.778105 0.188264
H4    H     H_    0.384846 0.613892 0.222472 0.201962
H5    H     H_    0.314720 0.690306 0.915273 0.158967
H6    H     H_    0.689427 0.317576 0.083477 0.158035
H7    H     H_    0.740525 0.617496 0.406281 0.141006
H8    H     H_    0.258035 0.397643 0.607190 0.141615
H9    H     H_    0.878133 0.689118 0.354169 0.178880
H10   H     H_    0.118585 0.341077 0.672882 0.181629
N1    N     N_R   0.750030 0.500040 0.500070 -0.128452
N2    N     N_R   0.249970 0.499960 0.499930 -0.125434
O1    O     O_R   0.580280 0.500020 0.367860 -0.612906
O2    O     O_R   0.419720 0.499980 0.632140 -0.609117
O3    O     O_R   0.419730 0.500030 0.367840 -0.617137
O4    O     O_R   0.580270 0.499970 0.632160 -0.656261
O5    O     O_R   0.591830 0.359650 0.500030 -0.609802
O6    O     O_R   0.408170 0.640350 0.499970 -0.635747
O7    O     O_R   0.431280 0.359660 0.500010 -0.610985
O8    O     O_R   0.568720 0.640340 0.499990 -0.611438
Zn1   Zn    Zn3+2 0.607200 0.499990 0.500020 0.948846
Zn2   Zn    Zn3+2 0.392800 0.500010 0.499980 0.957901
C41   C     C_R   0.352370 0.633082 0.759603 0.125083
C42   C     C_R   0.370935 0.721182 0.718160 -0.154718
C43   C     C_R   0.299137 0.777972 0.666568 -0.106884
C44   C     C_R   0.209090 0.746578 0.655299 -0.106911
C45   C     C_R   0.190176 0.659002 0.696592 -0.136643
C46   C     C_R   0.261381 0.602531 0.748975 -0.109117
H11   H     H_    0.440897 0.745349 0.725437 0.127223
H12   H     H_    0.313441 0.846022 0.634829 0.139434
H13   H     H_    0.153980 0.790106 0.614589 0.127998
H14   H     H_    0.120518 0.634619 0.687641 0.136457
H15   H     H_    0.246344 0.534282 0.780029 0.133035
C47   C     C_R   0.642371 0.363942 0.239670 0.124290
C48   C     C_R   0.733451 0.391776 0.257418 -0.117670
C49   C     C_R   0.801018 0.330401 0.309729 -0.129432
C50   C     C_R   0.778536 0.240451 0.343464 -0.045628
C51   C     C_R   0.688415 0.211850 0.325076 -0.121985
C52   C     C_R   0.620111 0.273662 0.273808 -0.167295
H16   H     H_    0.751259 0.461646 0.232021 0.135434
H17   H     H_    0.870651 0.352705 0.324343 0.149095
H18   H     H_    0.830922 0.192934 0.383875 0.163211
H19   H     H_    0.671319 0.142023 0.351026 0.143138
H20   H     H_    0.550025 0.251547 0.260970 0.137265
C53   C     C_2   0.292011 0.710227 0.083919 0.397646
H21   H     H_    0.276305 0.783502 0.053410 0.067626
O9    O     O_2   0.244788 0.689801 0.146673 -0.502998
C54   C     C_2   0.708790 0.295775 0.913591 0.382427
H22   H     H_    0.778254 0.274516 0.946331 0.086268
O10   O     O_2   0.688889 0.252254 0.846346 -0.558743
C55   C     C_2   0.767154 0.348480 0.591154 0.429788
H23   H     H_    0.704972 0.359952 0.632199 0.103688
O11   O     O_2   0.802764 0.263752 0.575733 -0.564284
C56   C     C_2   0.237343 0.600275 0.364282 0.451753
H24   H     H_    0.290085 0.650507 0.373523 0.069284
O12   O     O_2   0.216088 0.575749 0.289212 -0.503797
C57   C     C_2   0.057123 0.728545 0.349419 0.502302
H25   H     H_    0.119550 0.759514 0.374264 0.013161
O13   O     O_2   0.012121 0.768638 0.285251 -0.536819
C58   C     C_2   0.935630 0.336030 0.707779 0.489595
H26   H     H_    0.866309 0.363551 0.734152 0.027994
O14   O     O_2   0.984327 0.266562 0.746246 -0.546509

loop_
_geom_bond_atom_site_label_1
_geom_bond_atom_site_label_2
_ccdc_geom_bond_type
C2    C35   S    
O6    Zn2   S    
C29   H2    S    
N1    Zn1   S    
C24   C27   S    
C6    C9    A    
C21   H9    S    
C57   H25   S    
C50   C51   A    
C23   O7    A    
C10   C54   S    
C7    H5    S    
C35   C37   A    
C29   C32   S    
C52   H20   S    
C33   C35   A    
C20   C25   A    
C43   H12   S    
O3    Zn2   S    
C7    C9    A    
C45   H14   S    
O5    Zn1   S    
C19   C26   A    
C1    O1    A    
C9    C53   S    
C13   N1    A    
O1    Zn1   S    
C51   H19   S    
C14   N2    A    
C4    C40   A    
C5    C33   A    
C30   H1    S    
C48   H16   S    
C18   C20   A    
C22   H10   S    
C44   C45   A    
C3    C39   A    
C12   C56   S    
C12   N2    A    
C53   O9    D    
C47   C48   A    
C45   C46   A    
C33   H3    S    
C34   H4    S    
C49   C50   A    
C4    C6    A    
C2    O2    A    
C55   H23   S    
C13   H7    S    
C51   C52   A    
C14   H8    S    
O2    Zn2   S    
C46   H15   S    
C53   H21   S    
C6    C34   A    
O8    Zn1   S    
C48   C49   A    
C29   C30   D    
C55   O11   D    
C44   H13   S    
C37   C41   S    
C24   O8    A    
C11   C19   A    
C12   C20   A    
C58   O14   D    
C17   C18   A    
C16   C18   A    
C42   H11   S    
C56   O12   D    
C8    C10   A    
C54   O10   D    
C47   C52   A    
C13   C15   A    
C14   C16   A    
C23   C28   S    
C3    C4    A    
C38   C47   S    
C25   C57   S    
C23   O5    A    
C21   C25   A    
C41   C46   A    
O7    Zn2   S    
C16   C22   A    
C27   C32   T    
C28   C31   T    
C3    C5    A    
C49   H17   S    
C15   C17   A    
C57   O13   D    
C42   C43   A    
C36   C38   A    
C1    O3    A    
C5    C10   A    
C37   C39   A    
N2    Zn2   S    
C38   C40   A    
C30   C31   S    
C50   H18   S    
C58   H26   S    
C17   C19   A    
C34   C36   A    
C56   H24   S    
C8    H6    S    
C11   N1    A    
C41   C42   A    
C11   C55   S    
C15   C21   A    
C54   H22   S    
C24   O6    A    
C43   C44   A    
C22   C26   A    
C7    C39   A    
O4    Zn1   S    
C2    O4    A    
C8    C40   A    
C1    C36   S    
C26   C58   S    
