data_mof_unit_31135.cif
_audit_creation_date              2012-12-10T18:19:14-0500
_audit_creation_method            fapswitch 2.2
_symmetry_space_group_name_H-M    P1
_symmetry_Int_Tables_number       1
_space_group_crystal_system       triclinic
_cell_length_a                    14.960476
_cell_length_b                    14.194718
_cell_length_c                    11.52572
_cell_angle_alpha                 89.895077
_cell_angle_beta                  87.492979
_cell_angle_gamma                 90.286486
_cell_volume                      2445.22049127

loop_
_atom_site_label
_atom_site_type_symbol
_atom_type_description
_atom_site_fract_x
_atom_site_fract_y
_atom_site_fract_z
_atom_type_partial_charge
C1    C     C_R   0.327220 0.499911 0.505716 0.993120
C2    C     C_R   0.429193 0.200969 0.551002 0.441821
C3    C     C_R   0.429797 0.797937 0.552278 0.464668
C4    C     C_R   0.570519 0.201380 0.449317 0.458664
C5    C     C_R   0.426155 0.898328 0.549017 -0.072617
C6    C     C_R   0.575042 0.101267 0.456233 -0.067783
C7    C     C_R   0.575369 0.899419 0.453256 -0.073188
C8    C     C_R   0.424658 0.100377 0.546516 -0.063077
C9    C     C_R   0.500523 0.949352 0.501103 -0.108114
C10   C     C_R   0.499990 0.050223 0.501170 -0.110604
C11   C     C_R   0.350402 0.948815 0.593526 0.195950
C12   C     C_R   0.672572 0.500475 0.495425 0.986774
C13   C     C_R   0.652346 0.051429 0.416493 0.207623
C14   C     C_R   0.651617 0.951958 0.410256 0.162192
C15   C     C_R   0.348334 0.048138 0.588778 0.161464
C16   C     C_R   0.500272 0.500076 0.282117 0.915136
C17   C     C_R   0.501321 0.499988 0.717784 0.914504
C18   C     C_1   0.500815 0.500200 0.161576 -0.156892
C19   C     C_1   0.501654 0.499931 0.838294 -0.150154
C20   C     C_1   0.501278 0.500137 0.059294 0.003496
C21   C     C_1   0.501614 0.499997 0.940551 0.003452
C22   C     C_R   0.817809 0.510923 0.389864 0.052862
C23   C     C_R   0.911549 0.519860 0.391926 0.046809
C24   C     C_R   0.182193 0.507172 0.615037 0.069086
C25   C     C_R   0.767832 0.503232 0.495260 -0.139016
C26   C     C_R   0.231439 0.500368 0.508545 -0.134728
C27   C     C_R   0.806558 0.508951 0.602278 0.356117
C28   C     C_R   0.190991 0.497727 0.402451 0.358915
C29   C     C_R   0.899694 0.510843 0.605926 -0.026768
C30   C     C_R   0.098510 0.509577 0.400399 -0.028528
C31   C     C_R   0.952510 0.513468 0.501178 -0.037471
C32   C     C_R   0.046335 0.509853 0.505836 -0.033161
C33   C     C_3   0.755483 0.414621 0.237827 -0.747139
C34   C     C_R   0.087756 0.507489 0.615221 0.030611
C35   C     C_3   0.266273 0.436063 0.768508 -0.807533
C36   C     C_3   0.074882 0.595244 0.890736 -0.731975
C37   C     C_3   0.906617 0.664365 0.178467 -0.767449
C38   C     C_3   0.271877 0.892487 0.767829 -0.699322
C39   C     C_3   0.785824 0.121468 0.490217 -0.695244
C40   C     C_3   0.739442 0.891894 0.243915 -0.739061
C41   C     C_3   0.209792 0.123053 0.536595 -0.715628
C42   C     C_R   0.940355 0.507761 0.712404 -0.239849
C43   C     C_R   0.058412 0.527403 0.295355 -0.249925
C44   C     C_R   0.032414 0.508564 0.719167 0.235963
C45   C     C_R   0.966584 0.535613 0.290050 0.241682
C46   C     C_R   0.570664 0.798794 0.448320 0.445937
H1    H     H_    0.901068 0.502607 0.793320 0.175913
H2    H     H_    0.226907 0.371952 0.748164 0.261504
H3    H     H_    0.773400 0.560537 0.753000 0.326565
H4    H     H_    0.211555 0.448602 0.246635 0.327883
H5    H     H_    0.106997 0.451863 0.854164 0.251352
H6    H     H_    0.095983 0.583394 0.980753 0.238346
H7    H     H_    0.010005 0.633097 0.895143 0.236113
H8    H     H_    0.125962 0.639507 0.843530 0.250713
H9    H     H_    0.897109 0.519676 0.136529 0.252794
H10   H     H_    0.888438 0.682585 0.088827 0.230285
H11   H     H_    0.962618 0.710996 0.202809 0.245091
H12   H     H_    0.098412 0.539390 0.216040 0.172688
H13   H     H_    0.847896 0.676932 0.238561 0.257257
H14   H     H_    0.609840 0.695647 0.352616 0.365849
H15   H     H_    0.391988 0.301842 0.648764 0.366211
H16   H     H_    0.388760 0.695125 0.647962 0.355911
H17   H     H_    0.608774 0.304654 0.353486 0.365216
H18   H     H_    0.213966 0.921303 0.611381 0.237642
H19   H     H_    0.215206 0.846321 0.797423 0.231164
H20   H     H_    0.262649 0.963041 0.808018 0.214678
H21   H     H_    0.334871 0.860997 0.797315 0.249113
H22   H     H_    0.772577 0.075967 0.321049 0.239449
H23   H     H_    0.720458 0.553687 0.277464 0.220540
H24   H     H_    0.844529 0.165791 0.463338 0.231045
H25   H     H_    0.809920 0.054901 0.528687 0.213749
H26   H     H_    0.744962 0.160716 0.556678 0.255386
H27   H     H_    0.756224 0.854361 0.419116 0.276535
H28   H     H_    0.806960 0.864147 0.219831 0.230422
H29   H     H_    0.730182 0.958817 0.196045 0.222218
H30   H     H_    0.688440 0.840611 0.216292 0.271241
H31   H     H_    0.269873 0.135544 0.698937 0.270010
H32   H     H_    0.146126 0.150307 0.576299 0.228153
H33   H     H_    0.194026 0.062817 0.479450 0.219240
H34   H     H_    0.787566 0.407323 0.149833 0.233060
H35   H     H_    0.242449 0.179723 0.483238 0.277076
H36   H     H_    0.682492 0.404920 0.229441 0.224533
H37   H     H_    0.781139 0.357981 0.294158 0.275723
H38   H     H_    0.270766 0.577016 0.718914 0.237347
H39   H     H_    0.267851 0.443659 0.864220 0.244065
H40   H     H_    0.335533 0.427905 0.734654 0.230973
N1    N     N_R   0.500000 0.750030 0.500000 -0.205024
N2    N     N_2   0.267159 0.092617 0.627208 -0.299970
N3    N     N_R   0.500000 0.249970 0.500000 -0.208950
N4    N     N_2   0.773368 0.507794 0.282966 -0.314924
N5    N     N_2   0.227907 0.519883 0.719806 -0.303711
N6    N     N_2   0.065053 0.505631 0.833059 -0.305577
N7    N     N_2   0.933860 0.566833 0.182585 -0.303514
N8    N     N_2   0.274190 0.899876 0.642453 -0.235608
N9    N     N_2   0.733944 0.101240 0.390133 -0.243054
N10   N     N_2   0.731830 0.907306 0.368250 -0.297005
O1    O     O_R   0.367850 0.580280 0.500030 -0.600385
O2    O     O_3   0.244517 0.487156 0.302347 -0.774093
O3    O     O_3   0.637494 0.750062 0.390033 -0.789376
O4    O     O_3   0.362748 0.249336 0.609900 -0.783664
O5    O     O_3   0.361543 0.748573 0.608227 -0.739556
O6    O     O_3   0.636625 0.248984 0.386949 -0.746499
O7    O     O_R   0.632150 0.419720 0.499970 -0.594269
O8    O     O_R   0.632150 0.580280 0.499970 -0.609990
O9    O     O_R   0.367850 0.419720 0.500030 -0.591740
O10   O     O_R   0.500010 0.580270 0.334450 -0.639018
O11   O     O_R   0.499990 0.419730 0.665550 -0.645264
O12   O     O_R   0.499990 0.580270 0.665550 -0.642773
O13   O     O_R   0.500010 0.419730 0.334450 -0.641887
O14   O     O_3   0.751235 0.510537 0.701568 -0.774224
Zn1   Zn    Zn3+2 0.500000 0.607200 0.500000 0.962094
Zn2   Zn    Zn3+2 0.500000 0.392800 0.500000 0.963306

loop_
_geom_bond_atom_site_label_1
_geom_bond_atom_site_label_2
_ccdc_geom_bond_type
C46   O3    S    
C23   C45   A    
C29   C42   A    
C27   C29   A    
O11   Zn2   S    
H9    N7    S    
H14   O3    S    
C45   N7    S    
C46   N1    A    
N3    Zn2   S    
C13   N9    S    
C19   C21   T    
C24   C26   A    
C12   O8    A    
C17   O11   A    
O1    Zn1   S    
C35   H40   S    
N1    Zn1   S    
C36   H7    S    
C43   H12   S    
C37   H10   S    
C11   C15   A    
C7    C14   A    
C38   H20   S    
C27   O14   S    
C22   C25   A    
C4    O6    S    
C39   H26   S    
H38   N5    S    
C33   H36   S    
C36   H6    S    
C16   O10   A    
H16   O5    S    
C3    O5    S    
C2    O4    S    
C13   C14   A    
C42   C44   A    
C40   N10   S    
H17   O6    S    
C35   H2    S    
C14   N10   S    
C16   O13   A    
O10   Zn1   S    
H4    O2    S    
H22   N9    S    
C3    N1    A    
C7    C46   A    
C34   C44   A    
H31   N2    S    
C12   O7    A    
C4    C6    A    
C17   O12   A    
C1    O1    A    
C41   H32   S    
C24   C34   A    
C40   H30   S    
O7    Zn2   S    
C32   C34   A    
C2    N3    A    
C5    C9    A    
H5    N6    S    
C43   C45   A    
C31   C32   A    
C38   H19   S    
C41   H35   S    
C38   N8    S    
C22   N4    S    
C37   N7    S    
C38   H21   S    
C33   H37   S    
C39   N9    S    
C37   H13   S    
C11   N8    S    
C16   C18   S    
O9    Zn2   S    
C8    C15   A    
C1    C26   S    
C30   C43   A    
O13   Zn2   S    
H15   O4    S    
H23   N4    S    
C24   N5    S    
C4    N3    A    
C9    C10   A    
C28   O2    S    
C7    C9    A    
C41   N2    S    
C2    C8    A    
C3    C5    A    
C44   N6    S    
C6    C10   A    
O8    Zn1   S    
C40   H29   S    
C33   H34   S    
C5    C11   A    
C25   C27   A    
C26   C28   A    
O12   Zn1   S    
C12   C25   S    
C28   C30   A    
H18   N8    S    
C29   C31   A    
C33   N4    S    
C6    C13   A    
C30   C32   A    
C35   H39   S    
C36   N6    S    
C17   C19   S    
C39   H24   S    
C40   H28   S    
C18   C20   T    
C42   H1    S    
C36   H8    S    
C20   C21   S    
C8    C10   A    
C41   H33   S    
C1    O9    A    
C39   H25   S    
C22   C23   A    
C15   N2    S    
H27   N10   S    
C37   H11   S    
C23   C31   A    
H3    O14   S    
C35   N5    S    
