data_mof_unit_38748.cif
_audit_creation_date              2012-12-11T15:18:34-0500
_audit_creation_method            fapswitch 2.2
_symmetry_space_group_name_H-M    P1
_symmetry_Int_Tables_number       1
_space_group_crystal_system       triclinic
_cell_length_a                    6.932253
_cell_length_b                    19.836399
_cell_length_c                    23.973912
_cell_angle_alpha                 93.616275
_cell_angle_beta                  90.973923
_cell_angle_gamma                 88.522161
_cell_volume                      3288.62618925

loop_
_atom_site_label
_atom_site_type_symbol
_atom_type_description
_atom_site_fract_x
_atom_site_fract_y
_atom_site_fract_z
_atom_type_partial_charge
O1    O     O_R   0.620100 0.812200 0.810870 -0.543414
O2    O     O_R   0.379900 0.187800 0.189130 -0.543409
O3    O     O_R   0.296960 0.671650 0.794750 -0.536221
O4    O     O_R   0.703040 0.328350 0.205250 -0.536208
O5    O     O_R   0.120160 0.687800 0.689130 -0.530677
O6    O     O_R   0.879840 0.312200 0.310870 -0.530662
C1    C     C_R   0.468097 0.646738 0.804213 0.810630
C2    C     C_R   0.531903 0.353262 0.195787 0.810633
O7    O     O_R   0.290810 0.810670 0.817290 -0.512197
O8    O     O_R   0.709190 0.189330 0.182710 -0.512219
O9    O     O_R   0.113980 0.827820 0.711840 -0.515019
O10   O     O_R   0.886020 0.172180 0.288160 -0.515055
C3    C     C_R   0.458661 0.833588 0.833067 0.812190
C4    C     C_R   0.541338 0.166413 0.166932 0.812213
O11   O     O_R   0.626290 0.672180 0.788160 -0.531768
O12   O     O_R   0.373710 0.327820 0.211840 -0.531795
O13   O     O_3   0.451520 0.755460 0.715370 -0.365699
O14   O     O_3   0.548480 0.244540 0.284630 -0.365690
V1    V     V_3+5 0.179200 0.748980 0.756420 1.628685
V2    V     V_3+5 0.820800 0.251020 0.243580 1.628623
O15   O     O_R   0.783880 0.828350 0.705250 -0.545354
O16   O     O_R   0.216120 0.171650 0.294750 -0.545320
C5    C     C_R   0.949948 0.852386 0.694303 0.745816
C6    C     C_R   0.050053 0.147615 0.305698 0.745769
O17   O     O_R   0.790030 0.689320 0.682700 -0.530795
O18   O     O_R   0.209970 0.310680 0.317300 -0.530815
C7    C     C_R   0.960011 0.670211 0.664405 0.751043
C8    C     C_R   0.039989 0.329788 0.335595 0.751018
V3    V     V_3+5 0.678400 0.751010 0.743570 1.591581
V4    V     V_3+5 0.321600 0.248990 0.256430 1.591549
O19   O     O_3   0.955950 0.744540 0.784620 -0.372211
O20   O     O_3   0.044050 0.255460 0.215380 -0.372219
C9    C     C_R   0.179182 0.421164 0.398834 -0.125090
C10   C     C_R   0.820817 0.578834 0.601167 -0.125089
C11   C     C_R   0.027459 0.376827 0.386615 -0.116587
C12   C     C_R   0.972541 0.623171 0.613386 -0.116615
C13   C     C_R   0.865392 0.379432 0.422400 -0.107863
C14   C     C_R   0.134609 0.620565 0.577601 -0.107848
C15   C     C_R   0.854110 0.428672 0.467953 0.042808
C16   C     C_R   0.145891 0.571325 0.532048 0.042793
C17   C     C_R   0.005218 0.474867 0.477629 0.060537
C18   C     C_R   0.994782 0.525130 0.522373 0.060524
C19   C     C_R   0.167438 0.470771 0.442863 0.068977
C20   C     C_R   0.832562 0.529227 0.557138 0.068967
C21   C     C_R   0.695092 0.433313 0.504117 -0.181657
C22   C     C_R   0.304909 0.566684 0.495884 -0.181641
C23   C     C_R   0.684693 0.482938 0.547915 -0.132560
C24   C     C_R   0.315307 0.517060 0.452085 -0.132564
H1    H     H_    0.306089 0.418101 0.373073 0.183877
H2    H     H_    0.693909 0.581897 0.626928 0.183944
H3    H     H_    0.576038 0.399166 0.498576 0.146669
H4    H     H_    0.423963 0.600831 0.501426 0.146674
H5    H     H_    0.559781 0.485171 0.574610 0.148624
H6    H     H_    0.440219 0.514827 0.425391 0.148644
C25   C     C_R   0.946992 0.913981 0.662459 -0.068433
C26   C     C_R   0.053017 0.086020 0.337544 -0.068561
C27   C     C_R   0.848322 0.031359 0.657494 -0.156208
C28   C     C_R   0.151724 0.968647 0.342512 -0.156114
C29   C     C_R   0.870507 0.973940 0.687658 -0.118027
C30   C     C_R   0.129536 0.026065 0.312347 -0.118142
C31   C     C_R   0.999776 0.911800 0.605788 -0.221453
C32   C     C_R   0.000216 0.088200 0.394213 -0.221401
C33   C     C_R   0.973645 0.969594 0.573381 0.092793
C34   C     C_R   0.026362 0.030408 0.426622 0.092792
C35   C     C_R   0.897176 0.029662 0.600839 0.123475
C36   C     C_R   0.102851 0.970342 0.399165 0.123468
C37   C     C_R   0.016950 0.969873 0.514819 0.056111
C38   C     C_R   0.983057 0.030129 0.485183 0.056105
C39   C     C_R   0.907854 0.088102 0.515163 -0.177390
C40   C     C_R   0.092162 0.911901 0.484840 -0.177387
C41   C     C_R   0.866541 0.087706 0.571611 -0.179996
C42   C     C_R   0.133487 0.912299 0.428394 -0.179995
H7    H     H_    0.808082 0.133567 0.592630 0.141070
H8    H     H_    0.191959 0.866439 0.407376 0.141076
H9    H     H_    0.945624 0.136051 0.411922 0.103062
H10   H     H_    0.054341 0.863946 0.588077 0.103050
H11   H     H_    0.173817 0.023878 0.269128 0.185960
H12   H     H_    0.826244 0.976129 0.730879 0.185952
H13   H     H_    0.788860 0.077130 0.678362 0.143378
H14   H     H_    0.211206 0.922877 0.321646 0.143392
H15   H     H_    0.878220 0.135053 0.496113 0.133645
H16   H     H_    0.121802 0.864951 0.503891 0.133648
C43   C     C_R   0.483752 0.585279 0.836100 -0.229701
C44   C     C_R   0.516250 0.414721 0.163900 -0.229725
C45   C     C_R   0.518621 0.463697 0.837379 -0.206868
C46   C     C_R   0.481403 0.536303 0.162620 -0.206836
C47   C     C_R   0.519236 0.521891 0.807755 0.457861
C48   C     C_R   0.480809 0.478111 0.192246 0.457861
C49   C     C_R   0.458822 0.589678 0.894845 -0.158954
C50   C     C_R   0.541142 0.410320 0.105153 -0.158938
C51   C     C_R   0.488730 0.530897 0.926223 0.053527
C52   C     C_R   0.511235 0.469101 0.073775 0.053525
C53   C     C_R   0.499581 0.467538 0.895448 0.042025
C54   C     C_R   0.500404 0.532460 0.104551 0.042011
C55   C     C_R   0.502704 0.531166 0.986329 0.067919
C56   C     C_R   0.497251 0.468832 0.013669 0.067918
C57   C     C_R   0.468493 0.409063 0.980050 -0.160104
C58   C     C_R   0.531462 0.590935 0.019948 -0.160099
C59   C     C_R   0.483025 0.407840 0.922465 -0.140599
C60   C     C_R   0.516947 0.592158 0.077533 -0.140593
H17   H     H_    0.473800 0.359708 0.898602 0.143622
H18   H     H_    0.526181 0.640291 0.101395 0.143628
H19   H     H_    0.534695 0.414679 0.815090 0.181062
H20   H     H_    0.465350 0.585322 0.184910 0.181069
H21   H     H_    0.430844 0.362337 0.997070 0.146833
H22   H     H_    0.569103 0.637662 0.002927 0.146828
C61   C     C_R   0.671088 0.060740 0.111824 0.397555
C62   C     C_R   0.328899 0.939261 0.888175 0.397505
C63   C     C_R   0.531890 0.114487 0.119207 -0.187379
C64   C     C_R   0.468106 0.885515 0.880791 -0.187388
C65   C     C_R   0.375402 0.117859 0.081389 -0.207171
C66   C     C_R   0.624596 0.882145 0.918609 -0.207157
C67   C     C_R   0.358867 0.071241 0.035326 0.105715
C68   C     C_R   0.641128 0.928763 0.964671 0.105708
C69   C     C_R   0.506765 0.022526 0.024193 0.026101
C70   C     C_R   0.493229 0.977478 0.975804 0.026104
C71   C     C_R   0.667046 0.018369 0.061501 -0.032651
C72   C     C_R   0.332944 0.981633 0.938496 -0.032644
C73   C     C_R   0.196029 0.072834 0.000068 -0.178141
C74   C     C_R   0.803962 0.927168 0.999930 -0.178136
C75   C     C_R   0.181688 0.028046 0.952959 -0.091455
C76   C     C_R   0.818299 0.971955 0.047040 -0.091439
H23   H     H_    0.264633 0.157031 0.088063 0.155755
H24   H     H_    0.735366 0.842974 0.911934 0.155767
H25   H     H_    0.077899 0.108453 0.009261 0.141293
H26   H     H_    0.922090 0.891549 0.990738 0.141299
H27   H     H_    0.048288 0.029196 0.929080 0.203251
H28   H     H_    0.951692 0.970801 0.070923 0.203247
C77   C     C_1   0.623677 0.347738 0.080336 0.278543
N1    N     N_1   0.690373 0.297665 0.061006 -0.368360
C78   C     C_1   0.376254 0.652255 0.919660 0.278555
N2    N     N_1   0.309533 0.702325 0.938989 -0.368343
S1    S     S_3+6 0.440726 0.486450 0.265113 -0.015976
O21   O     O_2   0.454511 0.559086 0.286592 -0.332421
O22   O     O_2   0.241674 0.462376 0.275551 -0.342687
O23   O     O_3   0.604499 0.439186 0.298879 -0.520817
H29   H     H_    0.614800 0.460954 0.337101 0.342756
S2    S     S_3+6 0.559407 0.513561 0.734893 -0.016010
O24   O     O_2   0.758413 0.537689 0.724473 -0.342681
O25   O     O_2   0.545803 0.440919 0.713412 -0.332468
O26   O     O_3   0.395561 0.560786 0.701116 -0.520849
H30   H     H_    0.385131 0.538966 0.662915 0.342781
S3    S     S_3+6 0.824007 0.039806 0.169268 -0.035692
O27   O     O_2   0.871225 0.965252 0.167139 -0.350208
O28   O     O_2   0.007936 0.078033 0.167626 -0.352861
O29   O     O_3   0.711069 0.060636 0.229794 -0.520152
H31   H     H_    0.748358 0.024758 0.255081 0.354642
S4    S     S_3+6 0.175941 0.960182 0.830734 -0.035724
O30   O     O_2   0.992042 0.921939 0.832380 -0.352814
O31   O     O_2   0.128662 0.034732 0.832862 -0.350277
O32   O     O_3   0.288879 0.939358 0.770206 -0.520177
H32   H     H_    0.251932 0.975314 0.744958 0.354624
C79   C     C_1   0.714752 0.330226 0.413999 0.286257
N3    N     N_1   0.594286 0.291026 0.407625 -0.354678
C80   C     C_1   0.285253 0.669771 0.586003 0.286308
N4    N     N_1   0.405721 0.708969 0.592377 -0.354683

loop_
_geom_bond_atom_site_label_1
_geom_bond_atom_site_label_2
_ccdc_geom_bond_type
S3    O29   S    
C43   C47   A    
C33   C35   A    
C25   C29   A    
C4    C63   S    
O13   V3    S    
C17   C18   A    
C27   H13   S    
C1    C43   S    
C55   C56   A    
S4    O32   S    
C6    C26   S    
O4    C2    A    
C46   H20   S    
C66   C68   A    
C55   C58   A    
C15   C17   A    
C24   H6    S    
O9    V1    S    
C18   C20   A    
C34   C38   A    
C11   C13   A    
S4    O31   D    
C48   S1    S    
C66   H24   S    
C73   C75   A    
O3    C1    A    
C63   C65   A    
C46   C48   A    
C27   C29   A    
C21   H3    S    
C28   C30   A    
C69   C70   A    
C22   H4    S    
C52   C56   A    
C31   C33   A    
C39   C41   A    
O7    C3    A    
C32   C34   A    
C46   C54   A    
C9    C11   A    
O5    C7    A    
C50   C77   S    
C45   C53   A    
O7    V1    S    
C36   C42   A    
C8    C11   S    
O8    V2    S    
C38   C39   A    
C69   C71   A    
S1    O23   S    
O32   H32   S    
O3    V1    S    
O14   V4    S    
C49   C51   A    
C19   C24   A    
C53   C59   A    
C10   C12   A    
C45   H19   S    
C20   C23   A    
C28   H14   S    
C23   H5    S    
C26   C32   A    
C57   H21   S    
C21   C23   A    
V1    O19   S    
C2    O12   A    
C67   C73   A    
C61   C63   A    
C44   C50   A    
C14   C80   S    
C40   H16   S    
C29   H12   S    
C60   H18   S    
C57   C59   A    
C74   C76   A    
O11   V3    S    
C22   C24   A    
C45   C47   A    
C31   H10   S    
O17   V3    S    
C43   C49   A    
C33   C37   A    
C30   H11   S    
C10   H2    S    
C65   H23   S    
C37   C38   A    
C9    C19   A    
C62   C72   A    
C10   C20   A    
S4    O30   D    
C42   H8    S    
O8    C4    A    
C41   H7    S    
O23   H29   S    
C1    O11   A    
C35   C41   A    
O15   V3    S    
C26   C30   A    
C72   C75   A    
C34   C36   A    
C16   C22   A    
C71   C76   A    
O12   V4    S    
C3    C64   S    
V4    O20   S    
C13   C79   S    
C51   C53   A    
C50   C52   A    
C54   C60   A    
C56   C57   A    
O10   V2    S    
O1    V3    S    
C65   C67   A    
C5    C25   S    
C74   H26   S    
S2    O25   D    
C73   H25   S    
C59   H17   S    
O18   V4    S    
C58   C60   A    
O15   C5    A    
S1    O21   D    
O16   C6    A    
C32   H9    S    
O1    C3    A    
C47   S2    S    
C61   S3    S    
C78   N2    T    
C28   C36   A    
O29   H31   S    
V2    O20   S    
S3    O28   D    
O16   V4    S    
C2    C44   S    
C17   C19   A    
C44   C48   A    
C27   C35   A    
C16   C18   A    
S2    O26   S    
C58   H22   S    
C68   C70   A    
C62   C64   A    
C75   H27   S    
O5    V1    S    
C7    C12   S    
O17   C7    A    
O6    V2    S    
O10   C6    A    
O18   C8    A    
C49   C78   S    
C15   C21   A    
O2    V4    S    
C37   C40   A    
C12   C14   A    
C77   N1    T    
V3    O19   S    
O26   H30   S    
C14   C16   A    
C52   C54   A    
C25   C31   A    
O9    C5    A    
O13   V1    S    
C70   C72   A    
O14   V2    S    
C76   H28   S    
O2    C4    A    
C64   C66   A    
C39   H15   S    
S2    O24   D    
C51   C55   A    
O4    V2    S    
O6    C8    A    
C13   C15   A    
C80   N4    T    
S1    O22   D    
C40   C42   A    
C62   S4    S    
C79   N3    T    
C9    H1    S    
C61   C71   A    
C68   C74   A    
S3    O27   D    
C67   C69   A    
