data_mof_unit_29960.cif
_audit_creation_date              2013-03-05T15:57:49-0500
_audit_creation_method            fapswitch 2.2
_symmetry_space_group_name_H-M    P1
_symmetry_Int_Tables_number       1
_space_group_crystal_system       triclinic
_cell_length_a                    15.154311
_cell_length_b                    13.740934
_cell_length_c                    14.423254
_cell_angle_alpha                 89.998503
_cell_angle_beta                  85.890059
_cell_angle_gamma                 90.000054
_cell_volume                      2995.69375823

loop_
_atom_site_label
_atom_site_type_symbol
_atom_site_description
_atom_site_fract_x
_atom_site_fract_y
_atom_site_fract_z
_atom_type_partial_charge
O1    O     O_R   0.370260 0.582280 0.500020 -0.589838
O2    O     O_R   0.629740 0.417720 0.499980 -0.551200
O3    O     O_R   0.629740 0.582280 0.499980 -0.589855
O4    O     O_R   0.370260 0.417720 0.500020 -0.551194
C1    C     C_R   0.328735 0.499556 0.504583 0.880255
C2    C     C_R   0.671264 0.499556 0.495420 0.880262
O5    O     O_R   0.500000 0.582290 0.376050 -0.574711
O6    O     O_R   0.500000 0.417710 0.623950 -0.552829
O7    O     O_R   0.500000 0.582290 0.623950 -0.574718
O8    O     O_R   0.500000 0.417710 0.376050 -0.552836
C3    C     C_R   0.499932 0.499940 0.330905 0.870096
C4    C     C_R   0.500067 0.499938 0.669095 0.870085
Cu1   Cu    Cu3+1 0.500000 0.597420 0.500000 0.949886
Cu2   Cu    Cu3+1 0.500000 0.402580 0.500000 1.006668
C5    C     C_1   0.497036 0.499397 0.228767 -0.101645
C6    C     C_1   0.502962 0.499394 0.771233 -0.101652
C7    C     C_1   0.496169 0.498458 0.143526 -0.009561
C8    C     C_1   0.503825 0.498455 0.856475 -0.009573
C9    C     C_1   0.498523 0.497837 0.042722 -0.047224
C10   C     C_1   0.501467 0.497837 0.957279 -0.047241
C11   C     C_R   0.820944 0.511507 0.410378 -0.113852
C12   C     C_R   0.179051 0.511536 0.589614 -0.113856
C13   C     C_R   0.768225 0.496938 0.493542 -0.220836
C14   C     C_R   0.231773 0.496942 0.506457 -0.220806
C15   C     C_R   0.806846 0.467647 0.573558 0.279199
C16   C     C_R   0.193155 0.467643 0.426442 0.279207
C17   C     C_R   0.898345 0.480907 0.580244 -0.040076
C18   C     C_R   0.101653 0.480888 0.419752 -0.040108
C19   C     C_R   0.953447 0.492972 0.497508 -0.000128
C20   C     C_R   0.046551 0.492977 0.502484 -0.000133
C21   C     C_R   0.915408 0.502151 0.409939 0.036764
C22   C     C_R   0.084587 0.502188 0.590051 0.036756
C23   C     C_R   0.934952 0.485489 0.667699 -0.067132
C24   C     C_R   0.065041 0.485425 0.332295 -0.067165
C25   C     C_R   0.026318 0.502139 0.672766 -0.066828
C26   C     C_R   0.973673 0.502066 0.327224 -0.066821
C27   C     C_R   0.435375 0.793407 0.551459 0.023321
C28   C     C_R   0.561575 0.207375 0.444975 0.059288
C29   C     C_R   0.564623 0.793409 0.448536 0.023309
C30   C     C_R   0.438424 0.207370 0.555022 0.059323
N1    N     N_R   0.500000 0.743810 0.500000 -0.180621
N2    N     N_R   0.500000 0.256190 0.500000 -0.184277
C31   C     C_R   0.566695 0.896782 0.446844 -0.062017
C32   C     C_R   0.436216 0.104327 0.556387 -0.057794
C33   C     C_R   0.433306 0.896779 0.553146 -0.062033
C34   C     C_R   0.563780 0.104331 0.443600 -0.057787
C35   C     C_R   0.500002 0.948604 0.499997 0.055621
C36   C     C_R   0.500001 0.052215 0.499997 0.051550
C37   C     C_R   0.632543 0.949712 0.392738 -0.041486
C38   C     C_R   0.371155 0.052962 0.611471 -0.044138
C39   C     C_R   0.367444 0.949704 0.607230 -0.041499
C40   C     C_R   0.628826 0.052971 0.388493 -0.044105
H1    H     H_    0.385871 0.751884 0.592098 0.130588
H2    H     H_    0.609380 0.249834 0.402982 0.131297
H3    H     H_    0.614124 0.751887 0.407894 0.130578
H4    H     H_    0.390622 0.249824 0.597023 0.131261
C41   C     C_R   0.773702 0.526728 0.325342 0.107783
C42   C     C_R   0.747655 0.446701 0.273316 -0.153924
C43   C     C_R   0.710075 0.461837 0.188793 -0.138196
C44   C     C_R   0.695123 0.556653 0.158336 -0.111745
C45   C     C_R   0.713131 0.635836 0.214328 -0.128789
C46   C     C_R   0.752282 0.621098 0.297911 -0.128050
H5    H     H_    0.760281 0.373313 0.296178 0.147640
H6    H     H_    0.693430 0.400386 0.146499 0.129865
H7    H     H_    0.667484 0.569181 0.092416 0.122398
H8    H     H_    0.697858 0.708391 0.191816 0.135048
H9    H     H_    0.768142 0.682702 0.340054 0.144821
C47   C     C_R   0.226290 0.526740 0.674654 0.107814
C48   C     C_R   0.252370 0.446699 0.726642 -0.154030
C49   C     C_R   0.289945 0.461802 0.811170 -0.138331
C50   C     C_R   0.304851 0.556606 0.841678 -0.111716
C51   C     C_R   0.286797 0.635811 0.785733 -0.128718
C52   C     C_R   0.247658 0.621104 0.702139 -0.128006
H10   H     H_    0.239779 0.373319 0.703742 0.147637
H11   H     H_    0.306619 0.400336 0.853429 0.129912
H12   H     H_    0.332482 0.569110 0.907606 0.122400
H13   H     H_    0.302018 0.708359 0.808294 0.134992
H14   H     H_    0.231757 0.682725 0.660037 0.144830
N3    N     N_R   0.754906 0.412249 0.641898 0.125859
O9    O     O_R   0.768309 0.319073 0.648524 -0.371985
O10   O     O_R   0.687742 0.451516 0.688878 -0.391999
N4    N     N_R   0.245110 0.412260 0.358107 0.125834
O11   O     O_R   0.231771 0.319068 0.351529 -0.372018
O12   O     O_R   0.312248 0.451559 0.311106 -0.392021
C53   C     C_R   0.876262 0.483985 0.755261 0.149620
C54   C     C_R   0.825800 0.566278 0.782425 -0.130761
C55   C     C_R   0.762416 0.560514 0.857708 -0.112781
C56   C     C_R   0.749824 0.473056 0.906482 -0.082719
C57   C     C_R   0.801865 0.392006 0.881641 -0.119111
C58   C     C_R   0.865559 0.397548 0.806884 -0.054583
H15   H     H_    0.833459 0.633398 0.743327 0.112933
H16   H     H_    0.722289 0.623325 0.877475 0.121490
H17   H     H_    0.699843 0.467802 0.963510 0.120259
H18   H     H_    0.792218 0.324566 0.919807 0.112741
H19   H     H_    0.903680 0.333409 0.786493 0.118867
C59   C     C_R   0.123723 0.483874 0.244728 0.149665
C60   C     C_R   0.174155 0.566167 0.217491 -0.130698
C61   C     C_R   0.237521 0.560371 0.142192 -0.112756
C62   C     C_R   0.250117 0.472884 0.093471 -0.082720
C63   C     C_R   0.198105 0.391831 0.118387 -0.119171
C64   C     C_R   0.134436 0.397402 0.193164 -0.054534
H20   H     H_    0.166487 0.633314 0.256542 0.112919
H21   H     H_    0.277626 0.623184 0.122368 0.121456
H22   H     H_    0.300081 0.467607 0.036429 0.120246
H23   H     H_    0.207756 0.324368 0.080263 0.112741
H24   H     H_    0.096338 0.333262 0.213613 0.118850
C65   C     C_R   0.055554 0.523260 0.766388 0.151536
C66   C     C_R   0.056061 0.619629 0.798059 -0.135933
C67   C     C_R   0.076504 0.640055 0.888946 -0.151928
C68   C     C_R   0.094041 0.564027 0.949163 -0.082807
C69   C     C_R   0.089317 0.467505 0.919302 -0.128446
C70   C     C_R   0.069711 0.447096 0.828279 -0.150839
H25   H     H_    0.039973 0.678122 0.752102 0.114981
H26   H     H_    0.077501 0.714504 0.913234 0.115390
H27   H     H_    0.107793 0.580034 0.019954 0.145777
H28   H     H_    0.099735 0.408388 0.966648 0.121953
H29   H     H_    0.065097 0.372358 0.805713 0.106933
C71   C     C_R   0.944428 0.523129 0.233593 0.151540
C72   C     C_R   0.943854 0.619490 0.201891 -0.135878
C73   C     C_R   0.923408 0.639866 0.110994 -0.151820
C74   C     C_R   0.905942 0.563798 0.050795 -0.082730
C75   C     C_R   0.910726 0.467287 0.080688 -0.128592
C76   C     C_R   0.930325 0.446926 0.171725 -0.150895
H30   H     H_    0.959889 0.678017 0.247834 0.114978
H31   H     H_    0.922356 0.714308 0.086684 0.115390
H32   H     H_    0.892200 0.579768 0.979991 0.145860
H33   H     H_    0.900360 0.408142 0.033356 0.121842
H34   H     H_    0.934978 0.372195 0.194317 0.106948
C77   C     C_R   0.709567 0.900828 0.343799 0.100680
C78   C     C_R   0.717554 0.898210 0.246226 -0.145213
C79   C     C_R   0.799071 0.876919 0.199099 -0.131087
C80   C     C_R   0.872698 0.857502 0.249036 -0.106828
C81   C     C_R   0.864425 0.856142 0.346157 -0.155489
C82   C     C_R   0.783093 0.877862 0.393569 -0.176878
H35   H     H_    0.661951 0.917767 0.206875 0.123386
H36   H     H_    0.805585 0.877520 0.123890 0.118358
H37   H     H_    0.936331 0.844182 0.212396 0.109259
H38   H     H_    0.921525 0.840681 0.384669 0.125953
H39   H     H_    0.778568 0.881912 0.468754 0.132266
C83   C     C_R   0.307417 0.106761 0.675744 0.102370
C84   C     C_R   0.220285 0.123259 0.652465 -0.099384
C85   C     C_R   0.159452 0.168215 0.716293 -0.138227
C86   C     C_R   0.185402 0.196994 0.803296 -0.134661
C87   C     C_R   0.272573 0.182750 0.825918 -0.146146
C88   C     C_R   0.333554 0.137929 0.762347 -0.167162
H40   H     H_    0.199342 0.099923 0.585763 0.135410
H41   H     H_    0.092043 0.180012 0.698664 0.131665
H42   H     H_    0.138117 0.230298 0.853319 0.113910
H43   H     H_    0.292664 0.205692 0.893046 0.125089
H44   H     H_    0.400619 0.125783 0.781092 0.132569
C89   C     C_R   0.290388 0.900823 0.656114 0.100723
C90   C     C_R   0.282359 0.898158 0.753685 -0.145279
C91   C     C_R   0.200812 0.876906 0.800766 -0.131049
C92   C     C_R   0.127198 0.857572 0.750785 -0.106814
C93   C     C_R   0.135513 0.856243 0.653665 -0.155428
C94   C     C_R   0.216876 0.877927 0.606299 -0.176680
H45   H     H_    0.337954 0.917658 0.793069 0.123322
H46   H     H_    0.194265 0.877480 0.875974 0.118326
H47   H     H_    0.063541 0.844291 0.787390 0.109273
H48   H     H_    0.078424 0.840845 0.615119 0.125949
H49   H     H_    0.221435 0.882014 0.531116 0.132235
C95   C     C_R   0.692496 0.106777 0.324141 0.102282
C96   C     C_R   0.779725 0.123098 0.347207 -0.099175
C97   C     C_R   0.840468 0.168077 0.283296 -0.138256
C98   C     C_R   0.814331 0.197067 0.196423 -0.134722
C99   C     C_R   0.727071 0.182993 0.174014 -0.146140
C100  C     C_R   0.666182 0.138143 0.237668 -0.167313
H50   H     H_    0.800810 0.099609 0.413807 0.135366
H51   H     H_    0.907949 0.179737 0.300758 0.131558
H52   H     H_    0.861539 0.230410 0.146340 0.113938
H53   H     H_    0.706834 0.206097 0.106989 0.125120
H54   H     H_    0.599041 0.126140 0.219086 0.132662

loop_
_geom_bond_atom_site_label_1
_geom_bond_atom_site_label_2
_geom_bond_distance
_ccdc_geom_bond_type
C55   C56   1.398645 A    
C98   C99   1.397067 A    
C17   C19   1.416299 A    
C65   C70   1.401994 A    
C2    C13   1.468118 S    
C69   C70   1.395144 A    
O3    C2    1.298648 A    
Cu1   N1    2.011535 S    
C60   C61   1.399449 A    
C41   C42   1.403780 A    
C58   H19   1.082882 S    
C29   N1    1.367601 A    
C53   C54   1.405006 A    
C17   C23   1.415312 A    
O5    C3    1.305590 A    
C11   C21   1.436867 A    
C63   H23   1.082400 S    
C51   H13   1.078723 S    
C12   C22   1.436860 A    
C46   H9    1.079234 S    
O1    C1    1.298643 A    
C97   C98   1.398801 A    
C14   C16   1.390436 A    
C28   N2    1.358083 A    
C54   H15   1.082915 S    
C21   C26   1.432465 A    
C42   H5    1.082261 S    
C70   H29   1.081101 S    
C38   C83   1.486782 S    
C33   C39   1.421974 A    
C86   C87   1.397010 A    
C34   C40   1.410392 A    
C91   H46   1.082192 S    
C66   C67   1.396923 A    
C75   H33   1.080093 S    
O7    Cu1   1.799805 S    
C68   C69   1.397912 A    
C1    C14   1.468139 S    
C23   C53   1.491793 S    
C23   C25   1.410422 A    
C71   C72   1.401030 A    
C3    C5    1.476971 S    
C45   H8    1.078752 S    
C29   H3    1.081144 S    
C4    C6    1.476973 S    
C47   C48   1.403755 A    
C30   H4    1.081274 S    
C89   C90   1.404303 A    
C69   H28   1.080054 S    
C26   C71   1.479766 S    
C30   C32   1.416404 A    
C24   C26   1.410439 A    
C60   H20   1.082920 S    
O3    Cu1   1.977075 S    
Cu2   N2    2.011535 S    
C27   H1    1.081149 S    
C45   C46   1.396009 A    
C30   N2    1.358085 A    
C62   H22   1.079890 S    
C39   C89   1.481147 S    
C99   H53   1.082523 S    
C16   N4    1.435030 S    
C59   C64   1.405008 A    
C98   H52   1.081388 S    
C27   N1    1.367582 A    
C97   H51   1.082493 S    
O2    C2    1.287971 A    
C55   H16   1.082200 S    
C33   C35   1.416072 A    
C86   H42   1.081359 S    
C34   C36   1.412784 A    
C22   C25   1.432485 A    
C41   C46   1.400656 A    
C83   C84   1.403997 A    
C79   H36   1.082198 S    
O8    Cu2   1.799806 S    
C82   H39   1.083087 S    
N3    O10   1.299001 A    
C56   H17   1.079885 S    
C54   C55   1.399441 A    
C31   C37   1.422007 A    
C29   C31   1.420957 A    
C47   C52   1.400627 A    
C72   H30   1.080748 S    
C52   H14   1.079219 S    
C37   C77   1.481160 S    
C77   C82   1.403940 A    
C44   C45   1.393609 A    
C66   H25   1.080724 S    
C11   C41   1.478658 S    
C19   C20   1.417885 A    
C78   C79   1.397608 A    
C35   C36   1.423702 A    
C28   H2    1.081272 S    
O5    Cu1   1.799817 S    
O6    C4    1.304134 A    
C37   C40   1.421484 A    
C59   C60   1.405009 A    
C38   C39   1.421460 A    
C43   H6    1.082040 S    
C48   H10   1.082232 S    
C89   C94   1.403934 A    
C90   C91   1.397606 A    
C72   C73   1.396928 A    
C81   H38   1.082275 S    
C12   C47   1.478655 S    
C74   C75   1.397959 A    
C49   C50   1.398547 A    
C84   H40   1.083008 S    
C67   H26   1.081775 S    
C78   H35   1.083006 S    
C44   H7    1.079871 S    
C61   C62   1.398652 A    
N4    O12   1.299005 A    
C11   C13   1.407036 A    
C81   C82   1.398230 A    
C12   C14   1.407036 A    
N3    O9    1.300916 A    
O1    Cu1   1.977075 S    
C65   C66   1.400990 A    
C27   C33   1.420939 A    
C79   C80   1.396443 A    
C57   C58   1.396743 A    
C93   C94   1.398220 A    
C57   H18   1.082394 S    
C92   H47   1.081495 S    
C73   C74   1.396228 A    
C77   C78   1.404321 A    
C32   C38   1.410371 A    
C64   H24   1.082887 S    
C5    C7    1.230536 T    
C90   H45   1.082999 S    
O6    Cu2   1.799815 S    
C87   H43   1.082481 S    
C93   H48   1.082271 S    
C15   N3    1.435035 S    
C85   H41   1.082449 S    
C88   H44   1.083166 S    
C24   C59   1.491792 S    
C51   C52   1.396014 A    
C83   C88   1.404093 A    
C94   H49   1.083084 S    
C53   C58   1.405001 A    
C100  H54   1.083214 S    
C95   C96   1.404070 A    
C16   C18   1.408686 A    
C62   C63   1.396499 A    
C87   C88   1.397362 A    
C9    C10   1.229962 T    
C18   C20   1.416317 A    
C96   H50   1.083041 S    
C42   C43   1.397590 A    
C74   H32   1.079304 S    
C19   C21   1.431014 A    
C84   C85   1.399056 A    
C20   C22   1.431022 A    
C76   H34   1.081163 S    
C50   H12   1.079872 S    
C99   C100  1.397374 A    
O4    C1    1.287988 A    
C63   C64   1.396742 A    
C7    C9    1.451832 S    
C80   C81   1.397545 A    
C8    C10   1.451833 S    
C71   C76   1.402048 A    
C13   C15   1.390428 A    
C73   H31   1.081813 S    
O4    Cu2   1.977076 S    
C48   C49   1.397578 A    
O2    Cu2   1.977075 S    
O7    C4    1.305582 A    
C28   C34   1.416411 A    
C96   C97   1.399083 A    
C25   C65   1.479759 S    
O8    C3    1.304126 A    
C18   C24   1.415335 A    
C95   C100  1.404152 A    
C32   C36   1.412787 A    
C92   C93   1.397536 A    
C43   C44   1.398574 A    
C50   C51   1.393580 A    
C56   C57   1.396494 A    
C6    C8    1.230537 T    
N4    O11   1.300923 A    
C67   C68   1.396207 A    
C49   H11   1.082019 S    
C75   C76   1.395155 A    
C85   C86   1.398752 A    
C80   H37   1.081497 S    
C91   C92   1.396441 A    
Cu1   Cu2   2.677282 S    
C31   C35   1.416067 A    
C68   H27   1.079283 S    
C61   H21   1.082206 S    
C40   C95   1.486838 S    
C15   C17   1.408664 A    
