data_mof_unit_44491.cif
_audit_creation_date              2012-12-10T20:27:51-0500
_audit_creation_method            fapswitch 2.2
_symmetry_space_group_name_H-M    P1
_symmetry_Int_Tables_number       1
_space_group_crystal_system       triclinic
_cell_length_a                    12.797594
_cell_length_b                    10.676995
_cell_length_c                    9.8806
_cell_angle_alpha                 89.860194
_cell_angle_beta                  97.691241
_cell_angle_gamma                 90.291406
_cell_volume                      1337.91846395

loop_
_atom_site_label
_atom_site_type_symbol
_atom_type_description
_atom_site_fract_x
_atom_site_fract_y
_atom_site_fract_z
_atom_type_partial_charge
C1    C     C_R   0.498263 0.260137 0.499842 0.876040
C2    C     C_R   0.026184 0.457440 0.540834 0.135033
C3    C     C_R   0.970813 0.538733 0.443164 -0.015214
C4    C     C_R   0.865085 0.559886 0.449280 -0.219159
C5    C     C_R   0.868591 0.416974 0.641850 -0.215282
C6    C     C_R   0.975270 0.397755 0.640233 -0.162107
C7    C     C_R   0.509886 0.063443 0.621584 0.165290
C8    C     C_R   0.487050 0.128366 0.499386 -0.105010
C9    C     C_R   0.448323 0.064746 0.378925 -0.230277
C10   C     C_R   0.448222 0.935108 0.378806 -0.189727
C11   C     C_R   0.486595 0.871399 0.499291 -0.095708
C12   C     C_R   0.298178 0.502408 0.472316 0.969031
C13   C     C_R   0.509071 0.935944 0.621831 0.105736
C14   C     C_3   0.603815 0.928709 0.727977 -0.503534
C15   C     C_3   0.604781 0.070755 0.727378 -0.454274
C16   C     C_R   0.409928 0.473895 0.056042 0.114030
C17   C     C_R   0.586255 0.537904 0.086593 -0.110023
C18   C     C_R   0.586329 0.537717 0.942798 -0.128817
C19   C     C_R   0.409790 0.473712 0.913860 0.135332
C20   C     C_3   0.343903 0.357048 0.898630 0.356680
C21   C     C_3   0.346194 0.356879 0.053219 -0.566391
C22   C     C_R   0.498139 0.739823 0.499619 0.890607
C23   C     C_R   0.701803 0.500289 0.527407 0.863497
C24   C     C_R   0.814100 0.495952 0.544321 -0.053763
C25   C     C_R   0.185624 0.508995 0.452373 -0.233912
C26   C     C_R   0.022701 0.598983 0.343438 0.429237
C27   C     C_R   0.132647 0.589027 0.352871 0.416538
C28   C     C_R   0.132451 0.439930 0.540892 -0.383136
H1    H     H_    0.820754 0.624194 0.378694 0.180859
H2    H     H_    0.673234 0.886829 0.688648 0.202975
H3    H     H_    0.586406 0.112067 0.824564 0.239961
H4    H     H_    0.674600 0.111886 0.687340 0.190462
H5    H     H_    0.656439 0.567066 0.152306 0.142161
H6    H     H_    0.656610 0.566264 0.900878 0.138542
H7    H     H_    0.264728 0.375193 0.840244 0.050757
H8    H     H_    0.267452 0.371828 0.085328 0.152904
H9    H     H_    0.391302 0.278025 0.105935 0.229527
H10   H     H_    0.827973 0.366844 0.714964 0.146640
H11   H     H_    0.017621 0.335781 0.715308 0.125097
H12   H     H_    0.175223 0.376940 0.614522 0.171090
H13   H     H_    0.423291 0.114321 0.284533 0.166057
H14   H     H_    0.423282 0.885592 0.284304 0.178329
H15   H     H_    0.584595 0.887957 0.825377 0.210119
N1    N     N_R   0.499290 0.499140 0.142710 -0.086842
N2    N     N_R   0.499290 0.499180 0.857070 -0.084582
O1    O     O_R   0.500010 0.316790 0.614690 -0.566842
O2    O     O_R   0.500000 0.316760 0.385350 -0.625287
O3    O     O_R   0.346360 0.499990 0.595720 -0.631397
O4    O     O_R   0.346350 0.499960 0.366370 -0.593364
O5    O     O_R   0.500000 0.683240 0.614650 -0.622795
O6    O     O_R   0.499990 0.683210 0.385310 -0.618120
O7    O     O_R   0.653650 0.500040 0.633630 -0.630907
O8    O     O_R   0.653640 0.500010 0.404280 -0.627092
Zn1   Zn    Zn3+2 0.500010 0.500020 0.653130 0.973152
Zn2   Zn    Zn3+2 0.499990 0.499980 0.346870 0.959183
O9    O     O_3   0.399047 0.254541 0.853191 -0.559064
C29   C     C_3   0.328577 0.152768 0.826560 -0.319305
H16   H     H_    0.275279 0.168532 0.729636 0.160846
H17   H     H_    0.281664 0.135253 0.911961 0.153226
H18   H     H_    0.374446 0.066629 0.815175 0.190986
O10   O     O_3   0.969163 0.678803 0.247780 -0.585043
C30   C     C_3   0.917817 0.606521 0.138562 -0.378744
H19   H     H_    0.973933 0.546830 0.091290 0.148652
H20   H     H_    0.880226 0.671017 0.058457 0.198992
H21   H     H_    0.854669 0.546257 0.170979 0.162810
O11   O     O_3   0.190624 0.672126 0.284023 -0.587009
C31   C     C_3   0.179920 0.643126 0.143631 -0.215600
H22   H     H_    0.164014 0.542190 0.121071 0.106112
H23   H     H_    0.254836 0.667608 0.104782 0.165791
H24   H     H_    0.117299 0.701659 0.086865 0.196040

loop_
_geom_bond_atom_site_label_1
_geom_bond_atom_site_label_2
_ccdc_geom_bond_type
C4    H1    S    
C30   H20   S    
C23   C24   S    
C19   N2    A    
C15   H3    S    
C16   C21   S    
C10   H14   S    
C1    C8    S    
C11   C13   A    
C9    C10   A    
C16   N1    A    
C11   C22   S    
C9    H13   S    
C19   C20   S    
C14   C15   S    
C20   O9    S    
C12   C25   S    
C22   O5    A    
C31   H24   S    
O4    Zn2   S    
O1    Zn1   S    
C7    C15   S    
C17   C18   A    
C29   H16   S    
C17   N1    A    
C7    C8    A    
C27   O11   S    
O5    Zn1   S    
C13   C14   S    
O9    C29   S    
C25   C28   A    
O3    Zn1   S    
C18   H6    S    
N1    Zn2   S    
C22   O6    A    
C23   O7    A    
C30   H19   S    
C5    C24   A    
C17   H5    S    
C14   H2    S    
C16   C19   A    
C5    C6    A    
C23   O8    A    
C30   H21   S    
C12   O3    A    
O7    Zn1   S    
N2    Zn1   S    
O11   C31   S    
C2    C3    A    
O8    Zn2   S    
C26   C27   A    
O10   C30   S    
C4    C24   A    
C1    O1    A    
C29   H17   S    
C12   O4    A    
C25   C27   A    
C10   C11   A    
C28   H12   S    
C31   H22   S    
C18   N2    A    
C7    C13   A    
C21   H9    S    
C20   C21   S    
O2    Zn2   S    
C21   H8    S    
C6    H11   S    
C8    C9    A    
C29   H18   S    
C2    C28   A    
O6    Zn2   S    
C5    H10   S    
C20   H7    S    
C26   O10   S    
C3    C26   A    
C1    O2    A    
C3    C4    A    
C2    C6    A    
C14   H15   S    
C31   H23   S    
C15   H4    S    
