data_mof_unit_32965.cif
_audit_creation_date              2012-12-10T20:42:42-0500
_audit_creation_method            fapswitch 2.2
_symmetry_space_group_name_H-M    P1
_symmetry_Int_Tables_number       1
_space_group_crystal_system       triclinic
_cell_length_a                    8.904581
_cell_length_b                    10.734849
_cell_length_c                    9.920753
_cell_angle_alpha                 90.516305
_cell_angle_beta                  90.49625
_cell_angle_gamma                 90.953069
_cell_volume                      948.111646592

loop_
_atom_site_label
_atom_site_type_symbol
_atom_type_description
_atom_site_fract_x
_atom_site_fract_y
_atom_site_fract_z
_atom_type_partial_charge
C1    C     C_R   0.494145 0.260324 0.499601 0.876919
C2    C     C_R   0.395896 0.431342 0.928016 0.215744
C3    C     C_3   0.227808 0.441275 0.925556 -0.290262
C4    C     C_R   0.218888 0.499902 0.499607 0.932059
C5    C     C_3   0.231634 0.433860 0.078951 -0.458776
C6    C     C_R   0.498870 0.740007 0.500402 0.930758
C7    C     C_R   0.781116 0.500301 0.500395 0.959199
C8    C     C_1   0.065443 0.500097 0.499430 -0.203643
C9    C     C_1   0.934567 0.500263 0.500557 -0.173260
C10   C     C_R   0.475662 0.065498 0.621701 0.168063
C11   C     C_R   0.471921 0.128837 0.499972 -0.118863
C12   C     C_R   0.450081 0.933777 0.379899 -0.157378
C13   C     C_R   0.446036 0.062768 0.379264 -0.190770
C14   C     C_2   0.529563 0.872895 0.860778 0.383659
C15   C     C_2   0.755072 0.908029 0.713592 0.389429
C16   C     C_2   0.492123 0.136236 0.863788 0.501065
C17   C     C_2   0.730865 0.632947 0.865602 0.410324
C18   C     C_2   0.170050 0.563750 0.875215 0.571956
C19   C     C_R   0.482895 0.871891 0.500702 -0.053907
C20   C     C_R   0.487977 0.939016 0.621688 0.011422
C21   C     C_3   0.593809 0.941712 0.741823 -0.137276
C22   C     C_3   0.574408 0.083877 0.743778 -0.290698
C23   C     C_R   0.398292 0.428639 0.069781 0.169923
C24   C     C_R   0.610114 0.558926 0.074904 -0.029033
C25   C     C_R   0.611378 0.559607 0.931342 -0.015805
H1    H     H_    0.171874 0.359037 0.876707 0.172985
H2    H     H_    0.677941 0.138933 0.720543 0.125075
H3    H     H_    0.717139 0.664783 0.764208 0.142021
H4    H     H_    0.082504 0.563818 0.798585 0.090373
H5    H     H_    0.182818 0.345246 0.117468 0.194935
H6    H     H_    0.695101 0.609896 0.132491 0.200243
H7    H     H_    0.431653 0.110037 0.284095 0.184296
H8    H     H_    0.192970 0.518734 0.132652 0.248274
H9    H     H_    0.435952 0.883788 0.285163 0.204565
H10   H     H_    0.432846 0.811368 0.847475 0.155768
H11   H     H_    0.838917 0.920745 0.792775 0.139007
H12   H     H_    0.555289 0.162188 0.954010 0.063444
N1    N     N_R   0.499010 0.499140 0.142800 -0.133466
N2    N     N_R   0.499010 0.499180 0.857150 -0.168930
O1    O     O_R   0.500020 0.316790 0.614690 -0.614879
O2    O     O_2   0.793749 0.868072 0.603842 -0.582690
O3    O     O_2   0.355898 0.148040 0.862011 -0.585721
O4    O     O_2   0.845231 0.663727 0.926919 -0.588169
O5    O     O_2   0.218852 0.662848 0.920036 -0.566725
O6    O     O_R   0.500000 0.316760 0.385350 -0.623313
O7    O     O_R   0.285350 0.500020 0.614650 -0.638544
O8    O     O_R   0.285340 0.499980 0.385310 -0.615272
O9    O     O_R   0.500000 0.683240 0.614650 -0.660208
O10   O     O_R   0.499980 0.683210 0.385310 -0.612122
O11   O     O_R   0.714660 0.500020 0.614690 -0.658821
O12   O     O_R   0.714650 0.499980 0.385350 -0.612845
O13   O     O_2   0.586241 0.885341 0.972741 -0.577083
Zn1   Zn    Zn3+2 0.500010 0.500020 0.653130 0.943232
Zn2   Zn    Zn3+2 0.499990 0.499980 0.346870 0.973720

loop_
_geom_bond_atom_site_label_1
_geom_bond_atom_site_label_2
_ccdc_geom_bond_type
C24   N1    A    
C17   O4    D    
C18   O5    D    
C23   N1    A    
C13   H7    S    
C19   C20   A    
C5    C23   S    
C16   H12   S    
C4    C8    S    
O12   Zn2   S    
C17   C25   S    
C20   C21   S    
O7    Zn1   S    
C2    C3    S    
C24   H6    S    
C7    O12   A    
N1    Zn2   S    
C18   H4    S    
C4    O7    A    
C21   C22   S    
C25   N2    A    
C6    C19   S    
C11   C13   A    
C1    O6    A    
N2    Zn1   S    
C6    O9    A    
O8    Zn2   S    
C14   C21   S    
C12   C19   A    
O6    Zn2   S    
O1    Zn1   S    
C2    C23   A    
C22   H2    S    
C6    O10   A    
O9    Zn1   S    
C14   O13   D    
O11   Zn1   S    
C10   C11   A    
C12   H9    S    
O10   Zn2   S    
C5    H8    S    
C16   O3    D    
C15   H11   S    
C15   C21   S    
C24   C25   A    
C15   O2    D    
C3    C18   S    
C5    H5    S    
C14   H10   S    
C7    C9    S    
C16   C22   S    
C1    O1    A    
C12   C13   A    
C17   H3    S    
C2    N2    A    
C3    H1    S    
C10   C22   S    
C7    O11   A    
C10   C20   A    
C8    C9    T    
C3    C5    S    
C4    O8    A    
C1    C11   S    
