data_mof_unit_36646.cif
_audit_creation_date              2012-12-11T17:35:17-0500
_audit_creation_method            fapswitch 2.2
_symmetry_space_group_name_H-M    P1
_symmetry_Int_Tables_number       1
_space_group_crystal_system       triclinic
_cell_length_a                    24.247517
_cell_length_b                    7.159238
_cell_length_c                    22.126978
_cell_angle_alpha                 90.000592
_cell_angle_beta                  99.475599
_cell_angle_gamma                 90.0041
_cell_volume                      3788.69617229

loop_
_atom_site_label
_atom_site_type_symbol
_atom_type_description
_atom_site_fract_x
_atom_site_fract_y
_atom_site_fract_z
_atom_type_partial_charge
O1    O     O_R   0.801940 0.607920 0.199180 -0.544088
O2    O     O_R   0.198060 0.392080 0.800820 -0.544083
O3    O     O_R   0.698060 0.107920 0.300820 -0.544019
O4    O     O_R   0.301940 0.892080 0.699180 -0.544028
O5    O     O_R   0.687840 0.274940 0.181980 -0.538610
O6    O     O_R   0.312160 0.725060 0.818020 -0.538594
O7    O     O_R   0.812160 0.774940 0.318020 -0.538571
O8    O     O_R   0.187840 0.225060 0.681980 -0.538577
C1    C     C_R   0.667214 0.446657 0.167607 0.739876
C2    C     C_R   0.332789 0.553342 0.832392 0.739700
C3    C     C_R   0.832815 0.946671 0.332354 0.739889
C4    C     C_R   0.167185 0.053329 0.667646 0.739863
O9    O     O_R   0.800890 0.278000 0.191820 -0.533823
O10   O     O_R   0.199110 0.722000 0.808180 -0.533823
O11   O     O_R   0.699110 0.778000 0.308180 -0.533815
O12   O     O_R   0.300890 0.222000 0.691820 -0.533852
O13   O     O_R   0.811910 0.110860 0.310720 -0.510326
O14   O     O_R   0.188090 0.889140 0.689280 -0.510335
O15   O     O_R   0.688090 0.610860 0.189280 -0.510564
O16   O     O_R   0.311910 0.389140 0.810720 -0.510458
C5    C     C_R   0.818338 0.446921 0.178437 0.725802
C6    C     C_R   0.181661 0.553079 0.821562 0.725813
C7    C     C_R   0.681661 0.946914 0.321562 0.725481
C8    C     C_R   0.318338 0.053086 0.678437 0.725567
O17   O     O_3   0.753490 0.442410 0.289000 -0.374787
O18   O     O_3   0.246510 0.557590 0.711000 -0.374833
O19   O     O_3   0.746510 0.942410 0.211000 -0.375101
O20   O     O_3   0.253490 0.057590 0.789000 -0.375024
V1    V     V_3+5 0.749350 0.166330 0.242770 1.539851
V2    V     V_3+5 0.250650 0.833670 0.757230 1.539945
V3    V     V_3+5 0.750650 0.666330 0.257230 1.539967
V4    V     V_3+5 0.249350 0.333670 0.742770 1.540014
C9    C     C_R   0.422501 0.193148 0.574250 -0.093150
C10   C     C_R   0.577494 0.806846 0.425743 -0.093149
C11   C     C_R   0.077625 0.693130 0.925892 -0.093248
C12   C     C_R   0.922372 0.306871 0.074105 -0.093239
H1    H     H_    0.438902 0.320365 0.557486 0.115853
H2    H     H_    0.561092 0.679625 0.442502 0.115857
H3    H     H_    0.061329 0.820346 0.942772 0.115772
H4    H     H_    0.938667 0.179654 0.057223 0.115771
C13   C     C_R   0.382503 0.204998 0.613352 -0.093898
C14   C     C_R   0.617492 0.794998 0.386642 -0.093738
C15   C     C_R   0.117621 0.704976 0.886789 -0.094115
C16   C     C_R   0.882376 0.295024 0.113208 -0.094108
H5    H     H_    0.369128 0.341892 0.625893 0.131062
H6    H     H_    0.630866 0.658102 0.374097 0.131157
H7    H     H_    0.131102 0.841867 0.874367 0.130830
H8    H     H_    0.868894 0.158133 0.125628 0.130825
C17   C     C_R   0.360399 0.042126 0.636095 -0.044345
C18   C     C_R   0.639600 0.957874 0.363903 -0.044361
C19   C     C_R   0.139598 0.542108 0.863901 -0.044062
C20   C     C_R   0.860402 0.457892 0.136099 -0.044054
C21   C     C_R   0.379549 0.867444 0.618449 -0.127850
C22   C     C_R   0.620453 0.132559 0.381553 -0.127811
C23   C     C_R   0.120319 0.367432 0.881400 -0.127738
C24   C     C_R   0.879683 0.632568 0.118602 -0.127742
H9    H     H_    0.363812 0.738689 0.634840 0.131792
H10   H     H_    0.636192 0.261318 0.365166 0.131861
H11   H     H_    0.135950 0.238679 0.864891 0.131745
H12   H     H_    0.864053 0.761321 0.135112 0.131744
C25   C     C_R   0.419457 0.856089 0.579392 -0.094030
C26   C     C_R   0.580544 0.143912 0.420609 -0.094013
C27   C     C_R   0.080409 0.356080 0.920456 -0.094084
C28   C     C_R   0.919593 0.643920 0.079545 -0.094079
H13   H     H_    0.433413 0.720028 0.566661 0.116841
H14   H     H_    0.566591 0.279975 0.433343 0.116850
H15   H     H_    0.066351 0.220025 0.933071 0.116822
H16   H     H_    0.933652 0.779975 0.066932 0.116822
C29   C     C_R   0.441207 0.018641 0.557089 0.120300
C30   C     C_R   0.558791 0.981356 0.442908 0.120285
C31   C     C_R   0.058790 0.518630 0.942906 0.120411
C32   C     C_R   0.941209 0.481370 0.057093 0.120414
C33   C     C_1   0.482672 0.005761 0.516813 -0.009433
C34   C     C_1   0.517326 0.994234 0.483183 -0.009416
C35   C     C_1   0.017326 0.505759 0.983184 -0.009532
C36   C     C_1   0.982674 0.494241 0.016815 -0.009531
C37   C     C_R   0.931186 0.066129 0.370150 0.411172
C38   C     C_R   0.068814 0.933871 0.629850 0.411170
C39   C     C_R   0.568658 0.564509 0.130019 0.410874
C40   C     C_R   0.431333 0.435399 0.870037 0.410852
C41   C     C_R   0.884416 0.957853 0.379260 -0.161437
C42   C     C_R   0.115584 0.042147 0.620740 -0.161430
C43   C     C_R   0.615644 0.457790 0.120663 -0.161299
C44   C     C_R   0.384356 0.542248 0.879344 -0.161311
C45   C     C_R   0.885253 0.863992 0.434418 -0.164433
C46   C     C_R   0.114747 0.136008 0.565582 -0.164435
C47   C     C_R   0.615063 0.365739 0.065217 -0.165304
C48   C     C_R   0.384964 0.634591 0.934750 -0.165027
C49   C     C_R   0.929916 0.884062 0.483281 -0.002008
C50   C     C_R   0.070084 0.115937 0.516719 -0.002008
C51   C     C_R   0.570404 0.386223 0.016359 -0.002262
C52   C     C_R   0.429629 0.614216 0.983615 -0.002221
C53   C     C_R   0.977353 0.990668 0.475135 -0.067352
C54   C     C_R   0.022647 0.009331 0.524865 -0.067353
C55   C     C_R   0.522683 0.490808 0.024834 -0.068120
C56   C     C_R   0.477343 0.509577 0.975165 -0.068128
C57   C     C_R   0.979663 0.076289 0.417128 -0.092844
C58   C     C_R   0.020337 0.923711 0.582872 -0.092846
C59   C     C_R   0.520145 0.574347 0.083092 -0.093120
C60   C     C_R   0.479875 0.425985 0.916921 -0.093112
C61   C     C_R   0.926693 0.804197 0.540761 0.326807
C62   C     C_R   0.073307 0.195802 0.459239 0.326808
C63   C     C_R   0.573897 0.308963 0.958571 0.326891
C64   C     C_R   0.426166 0.691748 0.041370 0.326922
C65   C     C_R   0.969851 0.831055 0.590810 0.393571
C66   C     C_R   0.030149 0.168945 0.409190 0.393570
C67   C     C_R   0.530654 0.336059 0.908622 0.393864
C68   C     C_R   0.469399 0.664675 0.091338 0.393694
H17   H     H_    0.848688 0.782820 0.439543 0.184559
H18   H     H_    0.151312 0.217179 0.560457 0.184559
H19   H     H_    0.651806 0.285812 0.059885 0.184134
H20   H     H_    0.348233 0.714614 0.940055 0.184185
Cl1   Cl    Cl    0.924717 0.194066 0.300608 -0.570591
Cl2   Cl    Cl    0.075283 0.805934 0.699392 -0.570594
Cl3   Cl    Cl    0.574943 0.691580 0.199715 -0.570956
Cl4   Cl    Cl    0.424995 0.307231 0.800553 -0.570970
Cl5   Cl    Cl    0.867005 0.672149 0.551736 -0.516781
Cl6   Cl    Cl    0.132996 0.327849 0.448264 -0.516798
Cl7   Cl    Cl    0.634048 0.180407 0.947052 -0.515810
Cl8   Cl    Cl    0.366062 0.820726 0.052808 -0.515908
Cl9   Cl    Cl    0.953932 0.765689 0.663310 -0.396589
Cl10  Cl    Cl    0.046068 0.234311 0.336689 -0.396609
Cl11  Cl    Cl    0.546807 0.275749 0.835785 -0.396412
Cl12  Cl    Cl    0.453294 0.726090 0.164100 -0.396308

loop_
_geom_bond_atom_site_label_1
_geom_bond_atom_site_label_2
_ccdc_geom_bond_type
O17   V3    S    
C43   C47   A    
O1    C5    A    
C53   C54   A    
C39   Cl3   S    
O19   V1    S    
O13   V1    S    
C23   H11   S    
O3    C7    A    
C55   C56   A    
C10   C14   A    
C67   Cl11  S    
C32   C36   S    
O15   V3    S    
C3    C41   S    
O7    C3    A    
C59   C68   A    
O5    C1    A    
C18   C22   A    
C58   C65   A    
C28   H16   S    
C39   C59   A    
C46   H18   S    
O10   V2    S    
C45   H17   S    
O16   V4    S    
O4    C8    A    
C55   C59   A    
C47   H19   S    
C54   C58   A    
C25   C29   A    
O1    V3    S    
C26   C30   A    
O2    V4    S    
C14   H6    S    
O3    V1    S    
C30   C34   S    
C50   C62   A    
C21   C25   A    
C1    O15   A    
C12   C32   A    
C40   Cl4   S    
C2    O16   A    
C23   C27   A    
C38   C58   A    
C24   C28   A    
C37   C57   A    
O14   V2    S    
C11   C15   A    
C10   C30   A    
C62   Cl6   S    
C9    C29   A    
C16   C20   A    
O11   C7    A    
C11   C31   A    
O12   C8    A    
C40   C60   A    
C38   Cl2   S    
C68   Cl12  S    
C37   Cl1   S    
C13   C17   A    
C50   C54   A    
O5    V1    S    
C52   C56   A    
C61   C65   A    
C27   H15   S    
C31   C35   S    
O7    V3    S    
C47   C51   A    
C26   H14   S    
C4    C42   S    
C40   C44   A    
O8    V4    S    
C48   C52   A    
C12   H4    S    
C46   C50   A    
C51   C63   A    
C45   C49   A    
O18   V4    S    
C7    C18   S    
C22   C26   A    
C42   C46   A    
C9    H1    S    
C24   H12   S    
C11   H3    S    
C35   C36   T    
O2    C6    A    
C38   C42   A    
C37   C41   A    
O8    C4    A    
C66   Cl10  S    
C65   Cl9   S    
C29   C33   S    
C14   C18   A    
C57   C66   A    
O6    V2    S    
C1    C43   S    
C12   C16   A    
C33   C34   T    
C53   C57   A    
C64   C68   A    
C22   H10   S    
O9    V1    S    
C8    C17   S    
C3    O13   A    
C60   C67   A    
C21   H9    S    
C49   C61   A    
C10   H2    S    
C63   Cl7   S    
C44   C48   A    
C27   C31   A    
O6    C2    A    
O11   V3    S    
O12   V4    S    
C9    C13   A    
O10   C6    A    
O20   V2    S    
C61   Cl5   S    
C16   H8    S    
O9    C5    A    
C39   C43   A    
C15   C19   A    
C17   C21   A    
C56   C60   A    
C2    C44   S    
C62   C66   A    
C19   C23   A    
C28   C32   A    
C49   C53   A    
O4    V2    S    
C52   C64   A    
C51   C55   A    
C48   H20   S    
C25   H13   S    
C4    O14   A    
C13   H5    S    
C63   C67   A    
C15   H7    S    
C5    C20   S    
C41   C45   A    
C20   C24   A    
C6    C19   S    
C64   Cl8   S    
