data_mof_unit_21301.cif
_audit_creation_date              2012-12-10T17:03:40-0500
_audit_creation_method            fapswitch 2.2
_symmetry_space_group_name_H-M    P1
_symmetry_Int_Tables_number       1
_space_group_crystal_system       triclinic
_cell_length_a                    10.050246
_cell_length_b                    10.667224
_cell_length_c                    13.085796
_cell_angle_alpha                 92.240262
_cell_angle_beta                  71.234494
_cell_angle_gamma                 90.021869
_cell_volume                      1327.20540632

loop_
_atom_site_label
_atom_site_type_symbol
_atom_type_description
_atom_site_fract_x
_atom_site_fract_y
_atom_site_fract_z
_atom_type_partial_charge
C1    C     C_R   0.500084 0.737789 0.500278 0.949525
C2    C     C_R   0.435925 0.585654 0.984786 -0.019918
C3    C     C_R   0.474760 0.594348 0.872251 0.068199
C4    C     C_R   0.544402 0.572446 0.030374 0.062030
C5    C     C_R   0.684219 0.601241 0.970548 0.160937
C6    C     C_R   0.712662 0.646629 0.867835 -0.311756
C7    C     C_R   0.606274 0.652048 0.820420 0.174404
C8    C     C_R   0.518130 0.522062 0.130919 -0.251340
C9    C     C_R   0.759825 0.552519 0.122567 -0.197915
C10   C     C_R   0.378087 0.549704 0.820283 -0.124408
C11   C     C_2   0.620786 0.065578 0.471691 -0.231145
C12   C     C_R   0.423564 0.514050 0.703813 0.886113
C13   C     C_2   0.522258 0.133830 0.449018 0.019262
C14   C     C_2   0.622410 0.930751 0.465083 -0.171946
C15   C     C_2   0.500857 0.870936 0.501621 -0.369724
C16   C     C_2   0.085699 0.403161 0.473151 -0.160016
C17   C     C_2   0.947408 0.412510 0.451518 0.190675
C18   C     C_R   0.504647 0.262746 0.488700 0.916330
C19   C     C_R   0.577245 0.500208 0.295815 0.859300
C20   C     C_R   0.791370 0.591434 0.016953 -0.193232
C21   C     C_R   0.621975 0.519328 0.180186 -0.057828
C22   C     C_R   0.237075 0.533472 0.883073 -0.258429
C23   C     C_R   0.192758 0.564296 0.993547 -0.162210
C24   C     C_R   0.290862 0.595008 0.045756 0.187017
H1    H     H_    0.841329 0.551591 0.159981 0.146902
H2    H     H_    0.723212 0.881674 0.439839 0.180461
H3    H     H_    0.400563 0.920619 0.532478 0.153827
H4    H     H_    0.140475 0.313324 0.458300 0.173197
H5    H     H_    0.100519 0.584939 0.503549 0.156558
H6    H     H_    0.875416 0.559830 0.553455 0.132899
H7    H     H_    0.815866 0.683529 0.826728 0.137428
H8    H     H_    0.897800 0.617476 0.972570 0.130135
H9    H     H_    0.415160 0.486631 0.172218 0.179132
H10   H     H_    0.159701 0.503498 0.845982 0.170835
H11   H     H_    0.081814 0.567007 0.037924 0.141902
H12   H     H_    0.690489 0.107563 0.511508 0.153468
N1    N     N_2   0.148270 0.498670 0.498870 -0.206869
N2    N     N_2   0.852610 0.498640 0.498840 -0.223201
O1    O     O_R   0.386950 0.680940 0.500020 -0.617550
O2    O     O_R   0.613110 0.680900 0.499980 -0.629896
O3    O     O_R   0.330780 0.500000 0.653640 -0.603046
O4    O     O_R   0.556930 0.499960 0.653610 -0.609451
O5    O     O_R   0.386890 0.319100 0.500020 -0.606022
O6    O     O_R   0.613050 0.319060 0.499980 -0.643978
O7    O     O_R   0.443070 0.500040 0.346390 -0.613263
O8    O     O_R   0.669220 0.500000 0.346360 -0.625613
Zn1   Zn    Zn3+2 0.349000 0.500030 0.500020 0.921539
Zn2   Zn    Zn3+2 0.651000 0.499970 0.499980 0.904667
C25   C     C_3   0.437447 0.086080 0.377305 -0.392765
C26   C     C_3   0.461486 0.164931 0.277952 -0.889664
H13   H     H_    0.413127 0.259509 0.301136 0.269548
H14   H     H_    0.575748 0.174029 0.234694 0.259462
H15   H     H_    0.411733 0.118879 0.222050 0.248217
H16   H     H_    0.466827 0.988499 0.345804 0.236663
H17   H     H_    0.323749 0.087982 0.424857 0.198702
C27   C     C_3   0.916328 0.308226 0.380605 -0.325609
C28   C     C_3   0.032790 0.284520 0.272492 -0.956241
H18   H     H_    0.036870 0.362687 0.218354 0.269414
H19   H     H_    0.137108 0.270991 0.282731 0.263214
H20   H     H_    0.008856 0.197939 0.232121 0.259074
H21   H     H_    0.899815 0.220413 0.425574 0.183884
H22   H     H_    0.821417 0.329595 0.359828 0.264080
C29   C     C_3   0.240910 0.672014 0.151798 -0.442965
C30   C     C_3   0.138890 0.603614 0.244424 -0.846393
H23   H     H_    0.039680 0.583665 0.227439 0.247899
H24   H     H_    0.186266 0.515284 0.258931 0.273744
H25   H     H_    0.112710 0.664293 0.319267 0.244888
H26   H     H_    0.330291 0.706059 0.177200 0.219431
H27   H     H_    0.186866 0.757815 0.138567 0.208079
C31   C     C_3   0.624101 0.750619 0.737310 -0.404025
C32   C     C_3   0.494055 0.835003 0.758625 -0.857093
H28   H     H_    0.408794 0.784364 0.738516 0.243763
H29   H     H_    0.455510 0.868609 0.844679 0.260471
H30   H     H_    0.521540 0.918283 0.708091 0.255448
H31   H     H_    0.711800 0.814131 0.737832 0.191471
H32   H     H_    0.657856 0.705977 0.656804 0.249319

loop_
_geom_bond_atom_site_label_1
_geom_bond_atom_site_label_2
_ccdc_geom_bond_type
C16   H4    S    
C32   H30   S    
C26   H14   S    
C23   C24   A    
C19   O7    A    
C6    C7    A    
C1    C15   S    
C18   O6    A    
N1    Zn1   S    
O5    Zn1   S    
C9    C20   A    
C15   H3    S    
C14   C15   D    
C16   N1    D    
C4    C8    A    
C25   H17   S    
C30   H23   S    
C1    O2    A    
C7    C31   S    
C6    H7    S    
O3    Zn1   S    
C19   O8    A    
C9    H1    S    
C32   H28   S    
C3    C10   A    
O4    Zn2   S    
C18   O5    A    
C10   C22   A    
C31   H32   S    
C11   C13   D    
C17   C27   S    
C9    C21   A    
C28   H18   S    
C12   O3    A    
C10   C12   S    
C13   C18   S    
C13   C25   S    
C2    C4    A    
C11   H12   S    
C19   C21   S    
C2    C3    A    
C24   C29   S    
C23   H11   S    
C8    H9    S    
O7    Zn1   S    
C2    C24   A    
C5    C6    A    
C22   H10   S    
C11   C14   S    
C27   H22   S    
C28   H19   S    
C26   H15   S    
C30   H25   S    
C1    O1    A    
C25   H16   S    
O8    Zn2   S    
C29   H27   S    
C32   H29   S    
C31   C32   S    
O6    Zn2   S    
C27   C28   S    
H6    N2    S    
O1    Zn1   S    
C25   C26   S    
C20   H8    S    
H5    N1    S    
C31   H31   S    
C5    C20   A    
O2    Zn2   S    
C29   H26   S    
C16   C17   S    
C28   H20   S    
C12   O4    A    
C3    C7    A    
C26   H13   S    
C27   H21   S    
N2    Zn2   S    
C22   C23   A    
C14   H2    S    
C17   N2    D    
C29   C30   S    
C30   H24   S    
C4    C5    A    
C8    C21   A    
