data_mof_unit_48324.cif
_audit_creation_date              2012-10-26T18:47:57-0400
_audit_creation_method            fapswitch 2.2
_symmetry_space_group_name_H-M    P1
_symmetry_Int_Tables_number       1
_space_group_crystal_system       triclinic
_cell_length_a                    15.84683
_cell_length_b                    8.687567
_cell_length_c                    7.44983
_cell_angle_alpha                 103.042881
_cell_angle_beta                  94.056403
_cell_angle_gamma                 92.145213
_cell_volume                      995.152755584

loop_
_atom_site_label
_atom_site_type_symbol
_atom_type_description
_atom_site_fract_x
_atom_site_fract_y
_atom_site_fract_z
_atom_type_partial_charge
C1    C     C_R   0.497568 0.199713 0.453225 0.547284
C2    C     C_2   0.503945 0.968233 0.573037 -0.159570
C3    C     C_R   0.340303 0.499973 0.502592 0.550610
C4    C     C_R   0.502604 0.800297 0.546769 0.546767
C5    C     C_R   0.659673 0.499974 0.497394 0.546110
C6    C     C_3   0.049664 0.387133 0.621761 -0.161797
C7    C     C_3   0.042903 0.440768 0.302806 -0.220820
C8    C     C_3   0.945118 0.442095 0.297773 -0.199934
C9    C     C_1   0.749125 0.498687 0.492317 -0.042616
C10   C     C_3   0.082816 0.499032 0.504117 0.040904
C11   C     C_3   0.868346 0.168261 0.664219 0.002023
C12   C     C_3   0.951356 0.384310 0.617276 0.193760
C13   C     C_3   0.924585 0.108662 0.807617 -0.285672
C14   C     C_3   0.871427 0.028099 0.926749 -0.482347
C15   C     C_3   0.916998 0.496759 0.496314 0.093871
C16   C     C_3   0.956321 0.666124 0.580039 -0.269522
C17   C     C_3   0.054127 0.667706 0.583199 -0.236383
C18   C     C_1   0.824699 0.497705 0.492240 -0.060189
C19   C     C_1   0.175135 0.500068 0.507639 -0.077514
C20   C     C_1   0.250770 0.500330 0.507521 -0.033004
C21   C     C_2   0.496459 0.031794 0.426955 -0.158171
Cu1   Cu    Cu3+1 0.509300 0.517380 0.684380 0.953191
Cu2   Cu    Cu3+1 0.490700 0.482620 0.315620 0.956566
H1    H     H_    0.077289 0.427345 0.767333 0.068380
H2    H     H_    0.061694 0.318633 0.243796 0.119819
H3    H     H_    0.916883 0.321758 0.232241 0.157839
H4    H     H_    0.922050 0.522931 0.210652 0.094810
H5    H     H_    0.082289 0.712553 0.727679 0.117147
H6    H     H_    0.076776 0.750327 0.500165 0.127022
H7    H     H_    0.937636 0.708397 0.723345 0.104809
H8    H     H_    0.827386 0.066977 0.580927 0.156854
H9    H     H_    0.824730 0.257035 0.732328 0.126938
H10   H     H_    0.968403 0.023030 0.735635 0.168839
H11   H     H_    0.963306 0.209246 0.898664 0.139897
H12   H     H_    0.934789 0.432259 0.762129 0.078114
H13   H     H_    0.827202 0.111863 0.000341 0.156702
H14   H     H_    0.913697 0.988253 0.030707 0.153878
H15   H     H_    0.834326 0.923388 0.839595 0.145380
H16   H     H_    0.932069 0.749583 0.497548 0.128521
H17   H     H_    0.489406 0.960118 0.286210 0.134644
H18   H     H_    0.511028 0.039911 0.713782 0.133705
H19   H     H_    0.434919 0.376762 0.948636 0.239695
H20   H     H_    0.565092 0.623222 0.051358 0.238852
H21   H     H_    0.071005 0.265688 0.569038 0.146741
H22   H     H_    0.066574 0.518086 0.214559 0.110917
N1    N     N_2   0.476670 0.456430 0.038530 -0.255322
N2    N     N_2   0.523330 0.543570 0.961470 -0.255913
O1    O     O_R   0.506050 0.286130 0.619770 -0.506024
O2    O     O_R   0.490330 0.256780 0.308370 -0.497753
O3    O     O_R   0.387300 0.514690 0.655770 -0.498829
O4    O     O_R   0.371580 0.485340 0.344370 -0.493943
O5    O     O_R   0.509670 0.743220 0.691630 -0.497999
O6    O     O_R   0.493950 0.713870 0.380230 -0.505081
O7    O     O_R   0.628420 0.514660 0.655630 -0.498394
O8    O     O_R   0.612700 0.485310 0.344230 -0.498914
O9    O     O_3   0.918026 0.226799 0.541101 -0.584874

loop_
_geom_bond_atom_site_label_1
_geom_bond_atom_site_label_2
_ccdc_geom_bond_type
C6    C10   S    
C15   C18   S    
Cu1   O1    S    
C1    O1    A    
C1    C21   S    
C7    C8    S    
C4    O6    A    
C7    C10   S    
C17   H6    S    
C16   H16   S    
C5    O7    A    
C2    C4    S    
C19   C20   T    
C7    H2    S    
C12   C15   S    
C10   C19   S    
Cu1   O3    S    
C6    H1    S    
C2    C21   D    
Cu1   N2    S    
C11   H8    S    
C3    C20   S    
Cu1   O7    S    
Cu2   N1    S    
C6    H21   S    
C13   C14   S    
C12   H12   S    
Cu2   O8    S    
C11   C13   S    
C5    C9    S    
C12   O9    S    
C21   H17   S    
H20   N2    S    
C4    O5    A    
C7    H22   S    
C3    O3    A    
C11   H9    S    
Cu2   O6    S    
C8    C15   S    
C6    C12   S    
Cu2   O2    S    
C14   H15   S    
C11   O9    S    
C10   C17   S    
C16   H7    S    
C15   C16   S    
C9    C18   T    
C13   H11   S    
C8    H3    S    
Cu1   O5    S    
C13   H10   S    
H19   N1    S    
C8    H4    S    
C3    O4    A    
N1    N2    D    
C14   H13   S    
C2    H18   S    
Cu1   Cu2   S    
C17   H5    S    
C1    O2    A    
C5    O8    A    
Cu2   O4    S    
C16   C17   S    
C14   H14   S    
