data_mof_unit_24880.cif
_audit_creation_date              2012-12-11T14:06:50-0500
_audit_creation_method            fapswitch 2.2
_symmetry_space_group_name_H-M    P1
_symmetry_Int_Tables_number       1
_space_group_crystal_system       triclinic
_cell_length_a                    6.929739
_cell_length_b                    17.296806
_cell_length_c                    24.061891
_cell_angle_alpha                 104.50987
_cell_angle_beta                  90.262342
_cell_angle_gamma                 90.037709
_cell_volume                      2792.09040435

loop_
_atom_site_label
_atom_site_type_symbol
_atom_type_description
_atom_site_fract_x
_atom_site_fract_y
_atom_site_fract_z
_atom_type_partial_charge
O1    O     O_R   0.494290 0.391990 0.999150 -0.539894
O2    O     O_R   0.827170 0.534410 0.082350 -0.525837
O3    O     O_R   0.994360 0.608010 0.000850 -0.528252
C1    C     C_R   0.658887 0.551054 0.105840 0.753806
O4    O     O_R   0.824210 0.388010 0.004470 -0.548056
O5    O     O_R   0.991370 0.460560 0.922410 -0.536788
C2    C     C_R   0.654499 0.354851 0.001356 0.772093
O6    O     O_R   0.497270 0.539440 0.077590 -0.549183
O7    O     O_3   0.659770 0.523970 0.973170 -0.370156
V1    V     V_3+5 0.935840 0.495550 0.004980 1.430621
O8    O     O_R   0.320910 0.465590 0.917650 -0.535976
C3    C     C_R   0.151869 0.449505 0.894321 0.668512
O9    O     O_R   0.323870 0.611990 0.995530 -0.554293
C4    C     C_R   0.155111 0.645663 0.000795 0.702996
V2    V     V_3+5 0.435470 0.504450 0.995020 1.414296
O10   O     O_3   0.161670 0.476030 0.026830 -0.372913
C5    C     C_2   0.147046 0.733272 0.009757 -0.200080
C6    C     C_2   0.977610 0.770146 0.002924 -0.338619
H1    H     H_    0.846703 0.734865 0.992158 0.131106
C7    C     C_R   0.005181 0.246032 0.628267 0.608333
N1    N     N_R   0.115362 0.312665 0.650047 -0.557740
C8    C     C_R   0.220249 0.347175 0.614385 0.614465
C9    C     C_R   0.209729 0.317137 0.553831 -0.048391
C10   C     C_R   0.097106 0.247948 0.531168 -0.065604
C11   C     C_R   0.996924 0.211645 0.568717 -0.047180
C12   C     C_R   0.309258 0.353065 0.515247 0.283327
C13   C     C_R   0.293078 0.320547 0.455867 -0.184724
C14   C     C_R   0.179821 0.252615 0.433298 -0.052366
C15   C     C_R   0.084238 0.214937 0.470915 -0.067748
C16   C     C_R   0.975979 0.144444 0.448318 -0.060036
C17   C     C_R   0.882922 0.106665 0.487012 0.273850
C18   C     C_R   0.890972 0.141559 0.546238 -0.204179
C19   C     C_R   0.158210 0.222102 0.373630 0.577159
N2    N     N_R   0.048391 0.155420 0.352048 -0.555585
C20   C     C_R   0.962079 0.115391 0.387759 0.607077
O11   O     O_2   0.902356 0.213325 0.664115 -0.521376
O12   O     O_2   0.336235 0.409595 0.637742 -0.486193
H2    H     H_    0.368829 0.349644 0.427370 0.171600
O13   O     O_2   0.245278 0.259144 0.337345 -0.500710
O14   O     O_2   0.861356 0.048436 0.364490 -0.515171
H3    H     H_    0.816330 0.112188 0.574775 0.177474
C21   C     C_R   0.129233 0.065171 0.258120 0.340625
C22   C     C_R   0.110168 0.042304 0.198302 -0.217081
H4    H     H_    0.198986 0.994058 0.174045 0.160275
C23   C     C_R   0.976140 0.079141 0.169574 -0.166332
C24   C     C_R   0.855223 0.140188 0.201857 -0.091596
C25   C     C_R   0.880695 0.166565 0.262642 -0.100888
C26   C     C_R   0.018157 0.128425 0.290544 0.261804
C27   C     C_R   0.061079 0.425517 0.734804 -0.038673
H5    H     H_    0.006508 0.459566 0.705972 0.180809
C28   C     C_R   0.070536 0.460310 0.794333 -0.079535
C29   C     C_R   0.141971 0.414727 0.831460 -0.201899
C30   C     C_R   0.200879 0.334574 0.808102 -0.043727
C31   C     C_R   0.191967 0.302113 0.748336 -0.048448
H6    H     H_    0.239239 0.241438 0.729927 0.177609
C32   C     C_R   0.122428 0.346917 0.711509 0.272013
C33   C     C_R   0.451404 0.879125 0.611181 0.594940
N3    N     N_R   0.517056 0.835636 0.647868 -0.545308
C34   C     C_R   0.602230 0.762573 0.627008 0.556248
C35   C     C_R   0.620927 0.730067 0.567352 -0.080168
C36   C     C_R   0.551010 0.773126 0.529177 -0.008114
C37   C     C_R   0.465928 0.848621 0.551220 -0.021925
C38   C     C_R   0.703229 0.654666 0.545370 -0.150743
C39   C     C_R   0.713493 0.620236 0.485938 -0.016214
C40   C     C_R   0.651488 0.664983 0.446705 -0.103819
C41   C     C_R   0.566213 0.740910 0.468973 -0.008768
C42   C     C_R   0.495112 0.784985 0.431184 -0.021430
C43   C     C_R   0.410520 0.860131 0.453725 -0.162299
C44   C     C_R   0.396593 0.891629 0.512939 -0.179290
C45   C     C_R   0.673927 0.638207 0.386151 0.630818
N4    N     N_R   0.596437 0.680480 0.350295 -0.524925
C46   C     C_R   0.509329 0.752745 0.371579 0.611470
O15   O     O_2   0.372251 0.951619 0.632571 -0.532792
O16   O     O_2   0.668942 0.721497 0.663934 -0.491408
H7    H     H_    0.751946 0.620413 0.574809 0.205842
O17   O     O_2   0.776216 0.571862 0.362902 -0.513661
O18   O     O_2   0.436643 0.793301 0.335109 -0.530284
H8    H     H_    0.355785 0.895196 0.425616 0.170577
H9    H     H_    0.330922 0.949793 0.528578 0.160685
C47   C     C_R   0.750897 0.676894 0.257933 -0.168731
H10   H     H_    0.845746 0.724482 0.280349 0.144539
C48   C     C_R   0.772592 0.645122 0.198495 0.231279
C49   C     C_R   0.648983 0.583251 0.169078 -0.068450
C50   C     C_R   0.505869 0.554683 0.200017 -0.349966
H11   H     H_    0.409869 0.507602 0.177395 0.137719
C51   C     C_R   0.482574 0.586529 0.259381 -0.009248
C52   C     C_R   0.608350 0.648064 0.288845 0.347716
C53   C     C_R   0.356832 0.835643 0.740278 -0.072549
C54   C     C_R   0.342761 0.865959 0.800126 -0.249409
H12   H     H_    0.235857 0.841742 0.823894 0.183435
C55   C     C_R   0.468541 0.925474 0.830219 -0.132718
C56   C     C_R   0.607261 0.958180 0.799535 0.189171
C57   C     C_R   0.620139 0.929365 0.738960 0.286155
C58   C     C_R   0.497467 0.867040 0.709423 0.250451
C59   C     C_2   0.642810 0.269649 0.001668 -0.346763
H13   H     H_    0.777239 0.238802 0.005029 0.145757
C60   C     C_2   0.472756 0.230131 0.997765 -0.324325
H14   H     H_    0.338324 0.260931 0.994330 0.146842
O19   O     O_R   0.618210 0.960470 0.922400 -0.519161
O20   O     O_R   0.291310 0.111960 0.995450 -0.549065
O21   O     O_R   0.124210 0.039530 0.077580 -0.522610
C61   C     C_R   0.461035 0.145061 0.998399 0.761653
O22   O     O_R   0.288310 0.965490 0.917650 -0.550871
O23   O     O_R   0.121180 0.892010 0.999220 -0.520971
C62   C     C_R   0.457266 0.951535 0.893927 0.744909
O24   O     O_R   0.621230 0.107990 0.000760 -0.542317
O25   O     O_3   0.455770 0.976060 0.026840 -0.352475
V3    V     V_3+5 0.179680 0.004440 0.995020 1.481770
O26   O     O_R   0.791670 0.888040 0.004570 -0.548688
C63   C     C_R   0.962123 0.855640 0.003421 0.798126
O27   O     O_R   0.794680 0.034510 0.082370 -0.548827
C64   C     C_R   0.963728 0.050640 0.105944 0.704121
V4    V     V_3+5 0.680070 0.995560 0.005010 1.482960
O28   O     O_3   0.953840 0.023940 0.973160 -0.371478
C65   C     C_2   0.326979 0.777499 0.032085 0.426622
H15   H     H_    0.465517 0.755552 0.013938 0.029230
O29   O     O_2   0.322932 0.835277 0.073443 -0.526104
C66   C     C_2   0.770481 0.234962 0.298214 0.558756
H16   H     H_    0.735901 0.236448 0.342416 0.010845
O30   O     O_2   0.725284 0.292005 0.279677 -0.482560
C67   C     C_2   0.008221 0.544592 0.816973 0.460986
H17   H     H_    0.020521 0.573698 0.862339 0.014203
O31   O     O_2   0.942447 0.582993 0.785051 -0.482970
C68   C     C_2   0.267088 0.283238 0.845655 0.355057
H18   H     H_    0.281065 0.306975 0.891670 0.044904
O32   O     O_2   0.304765 0.212861 0.825603 -0.546694
C69   C     C_2   0.772868 0.535168 0.467380 0.406749
H19   H     H_    0.711949 0.495745 0.429089 0.117759
O33   O     O_2   0.885305 0.507028 0.496210 -0.550464
N5    N     N_2   0.910036 0.679301 0.167909 -0.526977
H20   H     H_    0.903971 0.740839 0.177955 0.264162
C70   C     C_3   0.105020 0.651175 0.171327 -0.461121
H21   H     H_    0.161015 0.671867 0.215965 0.195195
H22   H     H_    0.199478 0.675159 0.142390 0.193014
H23   H     H_    0.109891 0.584927 0.157657 0.199957
C71   C     C_2   0.322322 0.554833 0.288095 0.449441
H24   H     H_    0.239211 0.503960 0.264237 0.072145
O34   O     O_2   0.277892 0.585283 0.337778 -0.510565
C72   C     C_2   0.221716 0.772057 0.710037 0.491312
H25   H     H_    0.223646 0.751047 0.663630 0.040085
O35   O     O_2   0.104749 0.742609 0.736583 -0.481378
N6    N     N_2   0.735669 0.018823 0.829960 -0.524101
H26   H     H_    0.872643 0.017014 0.813224 0.266173
C73   C     C_3   0.655522 0.098497 0.845102 -0.435991
H27   H     H_    0.627644 0.119474 0.805816 0.221225
H28   H     H_    0.759456 0.139961 0.872819 0.188216
H29   H     H_    0.518951 0.099787 0.869259 0.195735
N7    N     N_2   0.747419 0.965951 0.706737 -0.499871
H30   H     H_    0.761914 0.026909 0.721953 0.281059
C74   C     C_3   0.930192 0.926060 0.692229 -0.483965
H31   H     H_    0.010331 0.955422 0.663353 0.235628
H32   H     H_    0.908493 0.862524 0.669433 0.211772
H33   H     H_    0.017559 0.929876 0.731585 0.186848
N8    N     N_2   0.426332 0.422080 0.535372 -0.480994
H34   H     H_    0.553506 0.420362 0.513016 0.261529
C75   C     C_3   0.324922 0.496704 0.541128 -0.365548
H35   H     H_    0.285945 0.504839 0.498096 0.194253
H36   H     H_    0.419161 0.546848 0.563361 0.191457
H37   H     H_    0.192479 0.498304 0.567248 0.240509
N9    N     N_2   0.780667 0.033453 0.467251 -0.472093
H38   H     H_    0.654433 0.030843 0.489296 0.253004
C76   C     C_3   0.898760 0.963301 0.463189 -0.435714
H39   H     H_    0.946373 0.959634 0.506638 0.169490
H40   H     H_    0.027274 0.964940 0.436066 0.211543
H41   H     H_    0.813902 0.908977 0.443135 0.204165
N10   N     N_2   0.257331 0.022670 0.285918 -0.510658
H42   H     H_    0.254596 0.961814 0.268234 0.270582
C77   C     C_3   0.452121 0.053450 0.292193 -0.443972
H43   H     H_    0.539877 0.017293 0.314871 0.244336
H44   H     H_    0.454303 0.116415 0.317861 0.214124
H45   H     H_    0.517068 0.049418 0.249400 0.194811
C78   C     C_2   0.703548 0.174967 0.171604 0.501399
H46   H     H_    0.733000 0.185837 0.129950 0.007516
O36   O     O_2   0.541907 0.188404 0.191685 -0.506091

loop_
_geom_bond_atom_site_label_1
_geom_bond_atom_site_label_2
_ccdc_geom_bond_type
C57   C58   A    
C55   C62   S    
N5    C70   S    
C59   H13   S    
C1    O6    A    
C60   H14   S    
C23   C64   S    
C33   C37   A    
C30   C31   A    
C78   H46   S    
O21   C64   A    
C12   C13   A    
C19   O13   S    
C16   C20   A    
C35   C38   A    
C75   H35   S    
N7    C74   S    
N2    C20   A    
C47   C52   A    
O5    C3    A    
C16   C17   A    
C7    C11   A    
C13   H2    S    
C33   O15   S    
V2    O10   S    
C57   N7    S    
C6    H1    S    
C9    C12   A    
V3    O28   S    
C27   H5    S    
C66   H16   S    
O25   V4    S    
V4    O28   S    
C10   C15   A    
O8    V2    S    
C36   C41   A    
O22   C62   A    
C77   H45   S    
C17   C18   A    
C43   C44   A    
C27   C28   A    
C74   H33   S    
C18   H3    S    
C61   O24   A    
O22   V3    S    
O1    V2    S    
C48   N5    S    
C15   C16   A    
C56   N6    S    
O7    V1    S    
N8    C75   S    
C60   C61   S    
O26   V4    S    
C53   C54   A    
O21   V3    S    
C77   H44   S    
C41   C42   A    
C34   C35   A    
N1    C8    A    
N10   C77   S    
C4    C5    S    
C73   H29   S    
C3    C29   S    
C78   O36   D    
C5    C6    D    
C76   H40   S    
C25   C66   S    
C43   H8    S    
O19   C62   A    
C53   C58   A    
O20   V3    S    
O24   V4    S    
C42   C43   A    
C6    C63   S    
C42   C46   A    
C10   C11   A    
C47   C48   A    
C55   C56   A    
O4    C2    A    
C51   C52   A    
C70   H21   S    
C65   O29   D    
N3    C34   A    
C23   C24   A    
C8    O12   S    
C28   C29   A    
C37   C44   A    
C35   C36   A    
N9    C76   S    
O2    C1    A    
C22   H4    S    
C69   O33   D    
C53   C72   S    
O19   V4    S    
C46   O18   S    
C76   H41   S    
C25   C26   A    
O25   V3    S    
C39   C69   S    
O20   C61   A    
C19   N2    A    
N8    H34   S    
O27   V4    S    
C44   H9    S    
C21   C26   A    
C50   H11   S    
C22   C23   A    
C34   O16   S    
C67   H17   S    
C45   N4    A    
O3    C4    A    
N4    C52   S    
C73   H28   S    
C77   H43   S    
C14   C19   A    
C40   C41   A    
O6    V2    S    
O9    V2    S    
C45   O17   S    
N10   H42   S    
C28   C67   S    
N6    C73   S    
C49   C50   A    
N2    C26   S    
C21   C22   A    
C69   H19   S    
O2    V1    S    
O23   V3    S    
C29   C30   A    
C5    C65   S    
C71   O34   D    
C68   O32   D    
C76   H39   S    
C51   C71   S    
C31   H6    S    
C24   C25   A    
C14   C15   A    
O27   C64   A    
O1    C2    A    
C75   H37   S    
C17   N9    S    
C50   C51   A    
C47   H10   S    
C30   C68   S    
O5    V1    S    
N1    C32   S    
C72   H25   S    
C59   C60   D    
C31   C32   A    
C27   C32   A    
C2    C59   S    
C74   H31   S    
C73   H27   S    
C39   C40   A    
C75   H36   S    
N5    H20   S    
O7    V2    S    
N4    C46   A    
O3    V1    S    
V1    O10   S    
O26   C63   A    
N9    H38   S    
O23   C63   A    
C72   O35   D    
C33   N3    A    
C1    C49   S    
C38   H7    S    
C11   C18   A    
C70   H23   S    
C54   C55   A    
C56   C57   A    
C24   C78   S    
C20   O14   S    
C74   H32   S    
N7    H30   S    
N3    C58   S    
C36   C37   A    
C66   O30   D    
C67   O31   D    
C12   N8    S    
C9    C10   A    
C38   C39   A    
C7    O11   S    
C21   N10   S    
O4    V1    S    
C7    N1    A    
C70   H22   S    
C48   C49   A    
C13   C14   A    
N6    H26   S    
C8    C9    A    
C71   H24   S    
C65   H15   S    
C54   H12   S    
O9    C4    A    
C40   C45   A    
O8    C3    A    
C68   H18   S    
