data_mof_unit_49084.cif
_audit_creation_date              2013-03-05T15:45:10-0500
_audit_creation_method            fapswitch 2.2
_symmetry_space_group_name_H-M    P1
_symmetry_Int_Tables_number       1
_space_group_crystal_system       triclinic
_cell_length_a                    10.85749
_cell_length_b                    10.947395
_cell_length_c                    10.00795
_cell_angle_alpha                 111.877513
_cell_angle_beta                  99.807073
_cell_angle_gamma                 91.540725
_cell_volume                      1082.43367599

loop_
_atom_site_label
_atom_site_type_symbol
_atom_site_description
_atom_site_fract_x
_atom_site_fract_y
_atom_site_fract_z
_atom_type_partial_charge
O1    O     O_R   0.511700 0.332330 0.577400 -0.527560
O2    O     O_R   0.474680 0.295500 0.332650 -0.590066
C1    C     C_R   0.496795 0.253669 0.438857 0.787678
O3    O     O_R   0.338160 0.518420 0.622400 -0.557609
O4    O     O_R   0.301140 0.481590 0.377650 -0.542188
C2    C     C_R   0.262848 0.508210 0.501558 0.854534
Cu1   Cu    Cu3+1 0.521920 0.521810 0.644910 1.014007
Cu2   Cu    Cu3+1 0.478080 0.478190 0.355090 1.066179
O5    O     O_R   0.525320 0.704500 0.667350 -0.590809
O6    O     O_R   0.488300 0.667670 0.422600 -0.486756
O7    O     O_R   0.698860 0.518410 0.622350 -0.581018
O8    O     O_R   0.661840 0.481580 0.377600 -0.615345
C3    C     C_R   0.512775 0.746842 0.561161 0.860294
C4    C     C_R   0.736785 0.487150 0.498511 0.775477
H1    H     H_    0.080945 0.385572 0.272740 0.213220
C5    C     C_R   0.150365 0.674740 0.762137 0.054342
C6    C     C_R   0.113252 0.703003 0.898119 -0.044807
C7    C     C_R   0.007086 0.630884 0.904004 0.197975
C8    C     C_R   0.931624 0.544752 0.774092 -0.190663
H2    H     H_    0.853509 0.487617 0.783781 0.205263
C9    C     C_R   0.960207 0.528284 0.636194 0.046337
C10   C     C_R   0.081927 0.572603 0.633367 0.058569
C11   C     C_R   0.127924 0.513779 0.501687 -0.099796
C12   C     C_R   0.044974 0.435448 0.371823 -0.117586
C13   C     C_R   0.916966 0.415365 0.368849 -0.035407
C14   C     C_R   0.872067 0.470697 0.501269 -0.157283
C15   C     C_2   0.500652 0.111507 0.399658 -0.285754
C16   C     C_2   0.543867 0.067613 0.505475 0.204684
C17   C     C_2   0.531137 0.890136 0.602008 -0.194041
C18   C     C_2   0.479438 0.946381 0.509050 -0.010395
N1    N     N_2   0.445130 0.445430 0.137370 -0.104199
C19   C     C_2   0.520255 0.499786 0.078578 0.074116
H3    H     H_    0.612556 0.636018 0.937250 0.213278
N2    N     N_2   0.554930 0.554500 0.862630 -0.313780
C20   C     C_2   0.496811 0.478783 0.915570 0.243651
C21   C     C_2   0.470038 0.021060 0.242131 0.323134
H4    H     H_    0.416488 0.053181 0.161369 0.129974
O9    O     O_2   0.508313 0.911753 0.200675 -0.501619
I1    I     I_    0.375244 0.300869 0.776914 -0.183073
C22   C     C_2   0.640910 0.572520 0.165361 0.416021
H5    H     H_    0.725920 0.523911 0.152050 0.091671
O10   O     O_2   0.646693 0.688381 0.247198 -0.471846
I2    I     I_    0.255278 0.470198 0.077099 -0.145894
I3    I     I_    0.266780 0.825303 0.744966 -0.251949
C23   C     C_2   0.185968 0.807761 0.031983 0.448792
H6    H     H_    0.287206 0.819337 0.047319 0.103687
O11   O     O_2   0.133656 0.885093 0.122463 -0.511289
I4    I     I_    0.950658 0.651337 0.103760 -0.194406
C24   C     C_2   0.834841 0.324642 0.230130 0.403914
H7    H     H_    0.745139 0.279720 0.231763 0.097061
O12   O     O_2   0.867412 0.297009 0.112162 -0.500696
C25   C     C_2   0.348088 0.898962 0.420930 0.480394
H8    H     H_    0.299077 0.958313 0.367612 0.097389
O13   O     O_2   0.290153 0.798406 0.412338 -0.498757
I5    I     I_    0.731915 0.151336 0.620718 -0.222672
C26   C     C_2   0.601440 0.968835 0.753089 0.457139
H9    H     H_    0.674728 0.926307 0.804936 0.096311
O14   O     O_2   0.572996 0.078072 0.823891 -0.487829

loop_
_geom_bond_atom_site_label_1
_geom_bond_atom_site_label_2
_geom_bond_distance
_ccdc_geom_bond_type
O4    Cu2   1.971908 S    
C20   I1    2.164456 S    
C9    C14   1.424624 A    
C17   C18   1.351781 D    
C17   C26   1.487195 S    
C15   C21   1.488885 S    
C5    I3    2.125325 S    
C8    H2    1.079179 S    
Cu2   O8    1.967108 S    
C5    C10   1.420704 A    
C21   O9    1.221571 D    
C6    C7    1.401550 A    
Cu1   Cu2   2.711598 S    
C23   O11   1.220257 D    
O1    Cu1   1.920730 S    
C9    C10   1.404013 A    
C4    C14   1.481466 S    
Cu1   O7    1.971908 S    
C5    C6    1.410631 A    
N1    I2    2.101134 S    
C21   H4    1.085218 S    
C25   H8    1.081802 S    
O3    Cu1   1.967108 S    
C2    C11   1.468036 S    
C22   O10   1.219645 D    
H1    C12   1.083452 S    
C8    C9    1.413125 A    
C16   I5    2.155996 S    
O8    C4    1.317971 A    
H3    N2    1.029415 S    
O2    C1    1.295716 A    
C1    C15   1.460077 S    
C26   O14   1.220843 D    
O4    C2    1.307049 A    
N2    C20   1.333810 D    
O7    C4    1.299252 A    
C13   C24   1.487266 S    
C26   H9    1.085578 S    
C11   C12   1.401705 A    
C19   C20   1.534567 S    
Cu1   O5    1.926186 S    
C19   C22   1.464715 S    
C12   C13   1.394803 A    
C6    C23   1.476263 S    
O3    C2    1.304291 A    
C7    C8    1.390230 A    
Cu1   N2    2.037205 S    
C3    C17   1.464639 S    
C15   C16   1.339644 D    
C24   H7    1.084577 S    
C18   C25   1.507190 S    
C10   C11   1.417703 A    
C22   H5    1.080882 S    
O5    C3    1.297703 A    
C24   O12   1.221583 D    
C13   C14   1.413709 A    
C23   H6    1.080915 S    
Cu2   N1    2.037038 S    
Cu2   O6    1.920730 S    
O2    Cu2   1.926186 S    
N1    C19   1.328132 D    
C25   O13   1.220118 D    
C16   C18   1.498671 S    
O1    C1    1.310135 A    
O6    C3    1.308115 A    
C7    I4    2.124409 S    
