data_mof_unit_46104.cif
_audit_creation_date              2012-12-10T17:20:13-0500
_audit_creation_method            fapswitch 2.2
_symmetry_space_group_name_H-M    P1
_symmetry_Int_Tables_number       1
_space_group_crystal_system       triclinic
_cell_length_a                    18.345447
_cell_length_b                    18.345371
_cell_length_c                    27.630499
_cell_angle_alpha                 90.000889
_cell_angle_beta                  89.996022
_cell_angle_gamma                 90.0
_cell_volume                      9299.15580384

loop_
_atom_site_label
_atom_site_type_symbol
_atom_type_description
_atom_site_fract_x
_atom_site_fract_y
_atom_site_fract_z
_atom_type_partial_charge
C1    C     C_1   0.500003 0.000002 0.930954 -0.001292
C2    C     C_1   0.500006 0.000002 0.025493 -0.051406
C3    C     C_R   0.775682 0.170947 0.125317 0.318719
C4    C     C_R   0.828484 0.774561 0.874795 0.302027
C5    C     C_R   0.170740 0.224193 0.125379 0.318828
C6    C     C_R   0.774887 0.171059 0.874715 0.302356
C7    C     C_R   0.224140 0.829280 0.125412 0.320682
C8    C     C_R   0.239854 0.705955 0.708176 -0.037823
C9    C     C_R   0.760074 0.294301 0.291641 -0.037385
C10   C     C_R   0.293942 0.239769 0.708147 -0.038055
C11   C     C_R   0.705403 0.759833 0.291584 -0.037257
C12   C     C_R   0.760008 0.294280 0.708388 -0.040617
C13   C     C_1   0.000005 0.499909 0.974511 -0.048130
C14   C     C_R   0.239924 0.705685 0.291627 -0.037517
C15   C     C_R   0.705984 0.760120 0.708164 -0.037916
C16   C     C_R   0.294355 0.239973 0.291620 -0.037413
C17   C     C_R   0.759741 0.705544 0.291584 -0.041089
C18   C     C_R   0.239850 0.294241 0.708284 -0.038370
C19   C     C_R   0.705829 0.239938 0.291615 -0.041372
C20   C     C_R   0.294338 0.760035 0.708308 -0.038441
C21   C     C_R   0.239999 0.294226 0.291598 -0.041341
C22   C     C_R   0.760031 0.705632 0.708298 -0.037536
C23   C     C_R   0.294175 0.760040 0.291603 -0.041357
C24   C     C_1   0.000012 0.499891 0.025492 -0.049772
C25   C     C_R   0.705620 0.240020 0.708385 -0.038256
C26   C     C_R   0.739779 0.206057 0.208143 -0.038054
C27   C     C_R   0.259979 0.794409 0.791594 -0.037344
C28   C     C_R   0.794330 0.740035 0.208398 -0.040608
C29   C     C_R   0.205707 0.260097 0.791652 -0.037361
C30   C     C_R   0.260138 0.794008 0.208166 -0.037919
C31   C     C_R   0.740115 0.205461 0.791612 -0.037305
C32   C     C_R   0.205996 0.260180 0.208169 -0.037831
C33   C     C_R   0.794333 0.739959 0.791612 -0.037541
C34   C     C_R   0.260068 0.205849 0.791625 -0.041361
C35   C     C_1   0.000091 0.500007 0.474511 -0.048142
C36   C     C_R   0.740066 0.794421 0.208392 -0.038264
C37   C     C_R   0.205706 0.740073 0.791567 -0.041370
C38   C     C_R   0.794257 0.260144 0.208284 -0.038369
C39   C     C_R   0.739979 0.794209 0.791586 -0.041395
C40   C     C_R   0.260075 0.205697 0.208303 -0.038432
C41   C     C_R   0.794383 0.259818 0.791617 -0.041067
C42   C     C_R   0.205654 0.739958 0.208297 -0.037534
C43   C     C_R   0.196068 0.696155 0.749912 0.040605
C44   C     C_R   0.803980 0.303908 0.249990 0.042225
C45   C     C_R   0.303855 0.196084 0.749918 0.040404
C46   C     C_1   0.000109 0.500009 0.525492 -0.049767
C47   C     C_R   0.696033 0.803933 0.249993 0.042301
C48   C     C_R   0.803945 0.303859 0.750020 0.039523
C49   C     C_R   0.195996 0.696116 0.249986 0.042351
C50   C     C_R   0.696142 0.803903 0.749903 0.040335
C51   C     C_R   0.303900 0.196017 0.249987 0.042137
C52   C     C_R   0.803855 0.696050 0.250014 0.039572
C53   C     C_R   0.196088 0.303979 0.749993 0.042246
C54   C     C_R   0.696081 0.196145 0.249911 0.040407
C55   C     C_R   0.303988 0.803896 0.749980 0.042202
C56   C     C_R   0.196150 0.303926 0.249918 0.040565
C57   C     C_1   0.499995 0.000008 0.474512 -0.048762
C58   C     C_R   0.803881 0.695996 0.749983 0.042331
C59   C     C_R   0.303899 0.803859 0.249911 0.040336
C60   C     C_R   0.696071 0.196029 0.750000 0.042240
C61   C     C_3   0.304550 0.881686 0.929706 -0.100235
C62   C     C_3   0.756178 0.056094 0.092432 -0.089966
C63   C     C_3   0.118652 0.305111 0.929763 -0.101436
C64   C     C_3   0.942842 0.793459 0.093852 -0.073565
C65   C     C_3   0.695523 0.117988 0.929655 -0.101669
C66   C     C_3   0.242531 0.944427 0.092823 -0.088643
C67   C     C_3   0.881610 0.695102 0.929654 -0.101966
C68   C     C_1   0.499999 0.000009 0.525493 -0.051423
C69   C     C_3   0.055973 0.244642 0.092474 -0.088790
C70   C     C_3   0.696468 0.868609 0.066215 -0.100263
C71   C     C_3   0.203665 0.058403 0.906538 -0.079243
C72   C     C_3   0.867549 0.305453 0.066206 -0.100467
C73   C     C_3   0.057817 0.797066 0.906079 -0.079168
C74   C     C_3   0.305002 0.132661 0.066069 -0.100175
C75   C     C_3   0.796878 0.941634 0.906489 -0.080768
C76   C     C_3   0.120993 0.693484 0.069867 -0.100538
C77   C     C_3   0.942323 0.203170 0.906128 -0.079368
C78   C     C_3   0.805062 0.381625 0.429648 -0.101899
C79   C     C_R   0.500002 0.000003 0.620860 0.482371
C80   C     C_3   0.255487 0.555847 0.592523 -0.088781
C81   C     C_3   0.617996 0.804243 0.429676 -0.100316
C82   C     C_3   0.443915 0.256109 0.592438 -0.090072
C83   C     C_3   0.194994 0.618706 0.429774 -0.101491
C84   C     C_3   0.706674 0.442692 0.593777 -0.073465
C85   C     C_3   0.381432 0.195227 0.429766 -0.101539
C86   C     C_3   0.555562 0.742456 0.592828 -0.088585
C87   C     C_3   0.194544 0.367467 0.566195 -0.100445
C88   C     C_3   0.702449 0.557448 0.405895 -0.079221
C89   C     C_3   0.367362 0.804856 0.566055 -0.100251
C90   C     C_R   0.499998 0.000001 0.379141 0.488883
C91   C     C_3   0.558312 0.296180 0.406517 -0.080816
C92   C     C_3   0.806488 0.620931 0.569871 -0.100589
C93   C     C_3   0.296268 0.442015 0.406278 -0.079275
C94   C     C_3   0.631428 0.196297 0.566227 -0.100161
C95   C     C_3   0.441587 0.703318 0.406506 -0.079075
C96   C     C_R   0.000036 0.500001 0.620860 0.485382
C97   C     C_1   0.500005 0.000000 0.069050 -0.008545
C98   C     C_R   0.000009 0.500001 0.379141 0.488846
C99   C     C_R   0.000003 0.499963 0.120860 0.485371
C100  C     C_R   0.999998 0.499991 0.879140 0.488852
C101  C     C_R   0.500002 1.000000 0.120860 0.482374
C102  C     C_R   0.500001 0.000001 0.879141 0.488888
C103  C     C_R   0.640004 0.859973 0.749970 0.485660
C104  C     C_R   0.359981 0.139963 0.249979 0.487205
C105  C     C_R   0.140008 0.640017 0.749985 0.485702
C106  C     C_R   0.860031 0.359990 0.249986 0.486910
C107  C     C_R   0.359990 0.140018 0.749980 0.485725
C108  C     C_1   0.999998 0.499946 0.930953 -0.001005
C109  C     C_R   0.640013 0.860034 0.249973 0.487064
C110  C     C_R   0.860020 0.359963 0.750026 0.485158
C111  C     C_R   0.139974 0.640006 0.249992 0.487310
C112  C     C_R   0.359975 0.859993 0.249975 0.485684
C113  C     C_R   0.639972 0.140008 0.749979 0.487077
C114  C     C_R   0.859963 0.639979 0.250025 0.485148
C115  C     C_R   0.140007 0.360028 0.749987 0.486900
C116  C     C_R   0.640020 0.140007 0.249975 0.485703
C117  C     C_R   0.360043 0.859976 0.749973 0.487192
C118  C     C_R   0.140017 0.359991 0.249986 0.485718
C119  C     C_1   0.000012 0.499909 0.069049 -0.005315
C120  C     C_R   0.859992 0.639972 0.749991 0.487318
C121  C     C_R   0.338943 0.768398 0.666876 -0.148764
C122  C     C_R   0.661118 0.231807 0.333022 -0.137956
C123  C     C_R   0.231383 0.338763 0.666821 -0.148859
C124  C     C_R   0.767580 0.660593 0.332891 -0.138139
C125  C     C_R   0.660941 0.231765 0.666904 -0.147752
C126  C     C_R   0.338909 0.768136 0.332999 -0.138046
C127  C     C_R   0.768396 0.660977 0.666877 -0.152960
C128  C     C_R   0.231932 0.338997 0.332982 -0.138277
C129  C     C_R   0.660498 0.767972 0.332985 -0.152901
C130  C     C_1   0.000055 0.500004 0.430953 -0.001021
C131  C     C_R   0.338091 0.231103 0.666456 -0.149827
C132  C     C_R   0.768356 0.339005 0.333125 -0.152724
C133  C     C_R   0.231253 0.661716 0.666521 -0.149881
C134  C     C_R   0.339113 0.231738 0.333082 -0.152731
C135  C     C_R   0.661795 0.768708 0.666517 -0.149207
C136  C     C_R   0.231650 0.660957 0.333105 -0.152733
C137  C     C_R   0.768157 0.339031 0.666979 -0.138381
C138  C     C_R   0.838795 0.268607 0.166826 -0.148846
C139  C     C_R   0.160843 0.732107 0.832916 -0.138096
C140  C     C_R   0.731842 0.839127 0.166921 -0.147725
C141  C     C_1   0.000090 0.500005 0.569049 -0.005298
C142  C     C_R   0.268198 0.161147 0.833035 -0.138166
C143  C     C_R   0.161021 0.731584 0.166868 -0.152990
C144  C     C_R   0.839235 0.267763 0.832961 -0.138290
C145  C     C_R   0.268468 0.161114 0.166864 -0.148786
C146  C     C_R   0.731900 0.838973 0.832973 -0.137730
C147  C     C_R   0.161015 0.268402 0.833144 -0.152815
C148  C     C_R   0.839123 0.731923 0.167005 -0.138370
C149  C     C_R   0.268177 0.839217 0.833038 -0.152876
C150  C     C_R   0.731120 0.161914 0.166450 -0.149819
C151  C     C_R   0.839082 0.731718 0.833078 -0.152615
C152  C     C_1   0.499994 0.000005 0.430954 -0.001295
C153  C     C_R   0.161792 0.268808 0.166502 -0.149900
C154  C     C_R   0.731936 0.160605 0.833031 -0.152830
C155  C     C_R   0.268740 0.838195 0.166517 -0.149208
C156  C     C_R   0.327964 0.726206 0.625100 0.312451
C157  C     C_R   0.669986 0.276320 0.373764 0.312738
C158  C     C_R   0.273475 0.327704 0.625005 0.312448
C159  C     C_R   0.722810 0.669272 0.373528 0.313279
C160  C     C_R   0.671661 0.274542 0.625321 0.302476
C161  C     C_R   0.330040 0.723607 0.373731 0.312337
C162  C     C_R   0.726222 0.671926 0.624950 0.313602
C163  C     C_1   0.500003 0.000007 0.569051 -0.008560
C164  C     C_R   0.276528 0.330204 0.373691 0.312530
C165  C     C_R   0.670855 0.724928 0.374634 0.302303
C166  C     C_R   0.329058 0.275652 0.625319 0.318741
C167  C     C_R   0.725554 0.328364 0.374860 0.302197
C168  C     C_R   0.275889 0.670638 0.625405 0.318797
C169  C     C_R   0.328559 0.274623 0.374783 0.302364
C170  C     C_R   0.670706 0.724089 0.625417 0.320653
C171  C     C_R   0.274469 0.671568 0.374825 0.302089
C172  C     C_R   0.723572 0.330193 0.626245 0.310163
C173  C     C_R   0.827744 0.226521 0.125009 0.312463
C174  C     C_1   0.500005 0.000003 0.974512 -0.048754
C175  C     C_R   0.169580 0.776771 0.873596 0.313260
C176  C     C_R   0.774657 0.828437 0.125351 0.302471
C177  C     C_R   0.223688 0.170029 0.873778 0.312458
C178  C     C_R   0.171984 0.773757 0.124940 0.313589
C179  C     C_R   0.830491 0.223070 0.873629 0.312587
C180  C     C_R   0.226305 0.172114 0.125079 0.312462
C181  C     C_R   0.776438 0.830127 0.873698 0.312589
C182  C     C_R   0.171653 0.225606 0.874875 0.302140
C183  C     C_R   0.830317 0.776536 0.126280 0.310149
C184  C     C_R   0.225205 0.828754 0.874710 0.302327
H1    H     H_    0.383437 0.806983 0.666627 0.122325
H2    H     H_    0.379514 0.189400 0.665362 0.125728
H3    H     H_    0.330035 0.163186 0.426622 0.135323
H4    H     H_    0.397943 0.194118 0.468390 0.169336
H5    H     H_    0.542860 0.800154 0.601614 0.100629
H6    H     H_    0.535961 0.705362 0.622008 0.128244
H7    H     H_    0.524830 0.728554 0.559508 0.186259
H8    H     H_    0.156168 0.400658 0.588130 0.095372
H9    H     H_    0.175205 0.310012 0.563570 0.141271
H10   H     H_    0.194314 0.390411 0.529040 0.169980
H11   H     H_    0.732018 0.527526 0.376888 0.103266
H12   H     H_    0.643401 0.561683 0.396926 0.132387
H13   H     H_    0.807148 0.383248 0.333166 0.120350
H14   H     H_    0.707157 0.524926 0.439598 0.181480
H15   H     H_    0.390772 0.805013 0.529027 0.169985
H16   H     H_    0.309743 0.823568 0.563045 0.141612
H17   H     H_    0.399867 0.843763 0.588029 0.096261
H18   H     H_    0.528296 0.266736 0.377500 0.104060
H19   H     H_    0.562324 0.355303 0.397723 0.133559
H20   H     H_    0.526009 0.291125 0.440293 0.180489
H21   H     H_    0.834031 0.577335 0.590924 0.098918
H22   H     H_    0.837045 0.673266 0.572722 0.134196
H23   H     H_    0.807778 0.604134 0.531305 0.172946
H24   H     H_    0.189524 0.620323 0.665452 0.125237
H25   H     H_    0.266550 0.471922 0.377336 0.103135
H26   H     H_    0.355339 0.438136 0.397302 0.133641
H27   H     H_    0.291371 0.474355 0.440048 0.181793
H28   H     H_    0.688688 0.176342 0.563755 0.142900
H29   H     H_    0.597638 0.158165 0.587943 0.095750
H30   H     H_    0.608790 0.196528 0.528991 0.170009
H31   H     H_    0.471707 0.732426 0.377384 0.103825
H32   H     H_    0.437271 0.644160 0.397881 0.134244
H33   H     H_    0.473951 0.708427 0.440250 0.181532
H34   H     H_    0.383345 0.192929 0.333133 0.120473
H35   H     H_    0.620404 0.810446 0.665394 0.125982
H36   H     H_    0.192853 0.616716 0.333159 0.120435
H37   H     H_    0.808930 0.381537 0.665552 0.134606
H38   H     H_    0.883299 0.307175 0.166596 0.122170
H39   H     H_    0.118102 0.691563 0.834302 0.134791
H40   H     H_    0.693028 0.883411 0.166556 0.122518
H41   H     H_    0.618415 0.191227 0.334422 0.134954
H42   H     H_    0.308766 0.118432 0.834432 0.134968
H43   H     H_    0.116554 0.693035 0.166915 0.120371
H44   H     H_    0.881916 0.308370 0.834367 0.134534
H45   H     H_    0.307044 0.116614 0.166618 0.122359
H46   H     H_    0.691350 0.881708 0.834368 0.135017
H47   H     H_    0.116774 0.307199 0.833195 0.120406
H48   H     H_    0.881630 0.691149 0.165582 0.134546
H49   H     H_    0.307017 0.883420 0.833094 0.120443
H50   H     H_    0.689410 0.120498 0.165352 0.125736
H51   H     H_    0.883321 0.692921 0.833124 0.120386
H52   H     H_    0.192809 0.383262 0.666586 0.122179
H53   H     H_    0.120397 0.310536 0.165432 0.125274
H54   H     H_    0.693099 0.116397 0.833063 0.120355
H55   H     H_    0.310472 0.879593 0.165398 0.125992
H56   H     H_    0.330624 0.926245 0.908714 0.098677
H57   H     H_    0.336598 0.830289 0.926590 0.136194
H58   H     H_    0.305618 0.898226 0.968326 0.170156
H59   H     H_    0.698152 0.044277 0.100800 0.100131
H60   H     H_    0.792525 0.035821 0.121819 0.127549
H61   H     H_    0.770115 0.025279 0.059151 0.184185
H62   H     H_    0.073901 0.330890 0.908793 0.099285
H63   H     H_    0.808144 0.617867 0.334283 0.134523
H64   H     H_    0.169915 0.337331 0.926460 0.135339
H65   H     H_    0.102282 0.306350 0.968413 0.169385
H66   H     H_    0.972105 0.761030 0.121769 0.103855
H67   H     H_    0.941112 0.852043 0.104394 0.142262
H68   H     H_    0.974569 0.789501 0.059771 0.181500
H69   H     H_    0.669577 0.073374 0.908648 0.099370
H70   H     H_    0.663386 0.169323 0.926510 0.135343
H71   H     H_    0.694413 0.101456 0.968275 0.169238
H72   H     H_    0.300233 0.957116 0.101603 0.100623
H73   H     H_    0.205444 0.964034 0.122005 0.128161
H74   H     H_    0.616647 0.192962 0.666544 0.122550
H75   H     H_    0.228634 0.975166 0.059504 0.186225
H76   H     H_    0.926394 0.669392 0.908672 0.100013
H77   H     H_    0.830390 0.662814 0.926356 0.135327
H78   H     H_    0.897990 0.693874 0.968299 0.172240
H79   H     H_    0.044878 0.302930 0.100476 0.099406
H80   H     H_    0.035306 0.208958 0.122097 0.129467
H81   H     H_    0.024938 0.230618 0.059301 0.186070
H82   H     H_    0.658248 0.902303 0.087928 0.095805
H83   H     H_    0.676609 0.811321 0.063692 0.142935
H84   H     H_    0.696725 0.891306 0.028994 0.169946
H85   H     H_    0.381637 0.808692 0.334396 0.134981
H86   H     H_    0.232976 0.028351 0.877474 0.103445
H87   H     H_    0.144527 0.062528 0.897817 0.134001
H88   H     H_    0.208752 0.026071 0.940298 0.181290
H89   H     H_    0.890502 0.305684 0.029052 0.169914
H90   H     H_    0.810101 0.324811 0.063580 0.141218
H91   H     H_    0.900747 0.343813 0.088145 0.095355
H92   H     H_    0.027848 0.767617 0.877042 0.103274
H93   H     H_    0.062056 0.856147 0.897204 0.132608
H94   H     H_    0.025339 0.792236 0.939795 0.181126
H95   H     H_    0.343833 0.100065 0.088042 0.096222
H96   H     H_    0.806942 0.616508 0.666927 0.120368
H97   H     H_    0.323801 0.190258 0.063107 0.141577
H98   H     H_    0.305176 0.109308 0.029026 0.170045
H99   H     H_    0.767937 0.971777 0.877307 0.104442
H100  H     H_    0.856060 0.937198 0.897965 0.133947
H101  H     H_    0.791701 0.974043 0.940211 0.180692
H102  H     H_    0.173315 0.662909 0.072737 0.134251
H103  H     H_    0.077372 0.665965 0.090914 0.098919
H104  H     H_    0.104223 0.692185 0.031296 0.173016
H105  H     H_    0.972212 0.232899 0.877181 0.103172
H106  H     H_    0.938371 0.144116 0.897122 0.133391
H107  H     H_    0.191341 0.381690 0.334383 0.134770
H108  H     H_    0.974717 0.207988 0.939877 0.182131
H109  H     H_    0.830570 0.426533 0.408676 0.100013
H110  H     H_    0.837488 0.330507 0.426249 0.135297
H111  H     H_    0.806366 0.397921 0.468309 0.172318
H112  H     H_    0.197203 0.544733 0.600530 0.099424
H113  H     H_    0.291178 0.535211 0.622149 0.129478
H114  H     H_    0.269523 0.524799 0.559355 0.186103
H115  H     H_    0.573550 0.830476 0.408668 0.098791
H116  H     H_    0.669475 0.836178 0.426649 0.136255
H117  H     H_    0.601367 0.805253 0.468280 0.170076
H118  H     H_    0.616318 0.806842 0.333029 0.120369
H119  H     H_    0.455703 0.198072 0.600788 0.100125
H120  H     H_    0.464199 0.292429 0.621838 0.127471
H121  H     H_    0.474747 0.270052 0.559164 0.184171
H122  H     H_    0.169031 0.574069 0.408796 0.099243
H123  H     H_    0.162908 0.670065 0.426557 0.135342
H124  H     H_    0.193815 0.602266 0.468411 0.169331
H125  H     H_    0.739074 0.471975 0.621699 0.103810
H126  H     H_    0.648079 0.440971 0.604293 0.142314
H127  H     H_    0.710668 0.474395 0.559689 0.181477
H128  H     H_    0.426004 0.169170 0.408775 0.099226
O1    O     O_3   0.500000 0.000000 0.750000 -0.436316
O2    O     O_R   0.439270 0.000000 0.356260 -0.539910
O3    O     O_R   0.000000 0.560730 0.643740 -0.542376
O4    O     O_R   0.000000 0.439270 0.356260 -0.539949
O5    O     O_R   0.939270 0.500000 0.143740 -0.539315
O6    O     O_R   0.060730 0.500000 0.856260 -0.539650
O7    O     O_R   0.500000 0.939270 0.143740 -0.541145
O8    O     O_R   0.500000 0.060730 0.856260 -0.539847
O9    O     O_R   0.060730 0.500000 0.143740 -0.542390
O10   O     O_R   0.939270 0.500000 0.856260 -0.539982
O11   O     O_R   0.500000 0.060730 0.143740 -0.541850
O12   O     O_3   0.500000 0.000000 0.250000 -0.436316
O13   O     O_R   0.500000 0.939270 0.856260 -0.539722
O14   O     O_R   0.646150 0.914560 0.722140 -0.540919
O15   O     O_R   0.353850 0.085440 0.277860 -0.542049
O16   O     O_R   0.085440 0.646150 0.722140 -0.541504
O17   O     O_R   0.914560 0.353850 0.277860 -0.542109
O18   O     O_R   0.353850 0.085440 0.722140 -0.541257
O19   O     O_R   0.646150 0.914560 0.277860 -0.542125
O20   O     O_R   0.914560 0.353850 0.722140 -0.539967
O21   O     O_R   0.085440 0.646150 0.277860 -0.542339
O22   O     O_R   0.353850 0.914560 0.277860 -0.538542
O23   O     O_3   0.000000 0.500000 0.750000 -0.436646
O24   O     O_R   0.646150 0.085440 0.722140 -0.543365
O25   O     O_R   0.914560 0.646150 0.277860 -0.538614
O26   O     O_R   0.085440 0.353850 0.722140 -0.544051
O27   O     O_R   0.646150 0.085440 0.277860 -0.538461
O28   O     O_R   0.353850 0.914560 0.722140 -0.543619
O29   O     O_R   0.085440 0.353850 0.277860 -0.538428
O30   O     O_R   0.914560 0.646150 0.722140 -0.543186
O31   O     O_R   0.146150 0.414560 0.222140 -0.541442
O32   O     O_R   0.853850 0.585440 0.777860 -0.542323
O33   O     O_R   0.585440 0.146150 0.222140 -0.541272
O34   O     O_3   0.000000 0.500000 0.250000 -0.436642
O35   O     O_R   0.414560 0.853850 0.777860 -0.541963
O36   O     O_R   0.853850 0.585440 0.222140 -0.540015
O37   O     O_R   0.146150 0.414560 0.777860 -0.542111
O38   O     O_R   0.414560 0.853850 0.222140 -0.540892
O39   O     O_R   0.585440 0.146150 0.777860 -0.542205
O40   O     O_R   0.853850 0.414560 0.777860 -0.538830
O41   O     O_R   0.146150 0.585440 0.222140 -0.543189
O42   O     O_R   0.414560 0.146150 0.777860 -0.538502
O43   O     O_R   0.585440 0.853850 0.222140 -0.543377
O44   O     O_R   0.146150 0.585440 0.777860 -0.538198
O45   O     O_R   0.439270 0.000000 0.643740 -0.541840
O46   O     O_R   0.853850 0.414560 0.222140 -0.544039
O47   O     O_R   0.585440 0.853850 0.777860 -0.538480
O48   O     O_R   0.414560 0.146150 0.222140 -0.543596
O49   O     O_3   0.231115 0.872646 0.915553 -0.549683
O50   O     O_3   0.765996 0.131085 0.082958 -0.524051
O51   O     O_3   0.127901 0.231626 0.915782 -0.549715
O52   O     O_3   0.872332 0.765679 0.085362 -0.537509
O53   O     O_3   0.768967 0.127159 0.915554 -0.549842
O54   O     O_3   0.234009 0.869326 0.083155 -0.522881
O55   O     O_3   0.872260 0.768580 0.915688 -0.551875
O56   O     O_R   0.560730 0.000000 0.356260 -0.539668
O57   O     O_3   0.130828 0.233768 0.083018 -0.524086
O58   O     O_3   0.767963 0.872724 0.084927 -0.554302
O59   O     O_3   0.234656 0.127693 0.914516 -0.536483
O60   O     O_3   0.872182 0.233856 0.084697 -0.544925
O61   O     O_3   0.127029 0.766025 0.914265 -0.533211
O62   O     O_3   0.233585 0.127590 0.084812 -0.545675
O63   O     O_3   0.765487 0.872514 0.914414 -0.537721
O64   O     O_3   0.127993 0.767063 0.084212 -0.541548
O65   O     O_3   0.872954 0.233850 0.914332 -0.536132
O66   O     O_3   0.731567 0.372093 0.415778 -0.551581
O67   O     O_R   1.000000 0.439270 0.643740 -0.539327
O68   O     O_3   0.266331 0.630701 0.583051 -0.524213
O69   O     O_3   0.626897 0.730822 0.415446 -0.549959
O70   O     O_3   0.368931 0.265968 0.582962 -0.524058
O71   O     O_3   0.268466 0.627779 0.415710 -0.549856
O72   O     O_3   0.734459 0.372174 0.585317 -0.537401
O73   O     O_3   0.372408 0.268677 0.415641 -0.549681
O74   O     O_3   0.630666 0.733950 0.583160 -0.522946
O75   O     O_3   0.266136 0.372127 0.584689 -0.545015
O76   O     O_3   0.733441 0.626657 0.414177 -0.533176
O77   O     O_3   0.372502 0.733471 0.584839 -0.545789
O78   O     O_R   0.000000 0.560730 0.356260 -0.539693
O79   O     O_3   0.627663 0.265336 0.414511 -0.537365
O80   O     O_3   0.732912 0.627914 0.584229 -0.541497
O81   O     O_3   0.265645 0.372602 0.414415 -0.536222
O82   O     O_3   0.627394 0.267829 0.584890 -0.554173
O83   O     O_3   0.372403 0.734556 0.414455 -0.536756
O84   O     O_R   0.560730 0.000000 0.643740 -0.541162
Zn1   Zn    Zn3+2 0.500000 0.913240 0.789820 0.927269
Zn2   Zn    Zn3+2 0.000000 0.586760 0.710180 0.922541
Zn3   Zn    Zn3+2 0.586760 1.000000 0.289820 0.927113
Zn4   Zn    Zn3+2 0.413240 0.000000 0.710180 0.921906
Zn5   Zn    Zn3+2 0.000000 0.586760 0.289820 0.927414
Zn6   Zn    Zn3+2 0.000000 0.413240 0.710180 0.924853
Zn7   Zn    Zn3+2 0.413240 1.000000 0.289820 0.927070
Zn8   Zn    Zn3+2 0.586760 0.000000 0.710180 0.922664
Zn9   Zn    Zn3+2 0.500000 0.086760 0.210180 0.921911
Zn10  Zn    Zn3+2 0.086760 0.500000 0.789820 0.927166
Zn11  Zn    Zn3+2 0.913240 0.500000 0.210180 0.924857
Zn12  Zn    Zn3+2 0.500000 0.086760 0.789820 0.926942
Zn13  Zn    Zn3+2 0.500000 0.913240 0.210180 0.922680
Zn14  Zn    Zn3+2 0.913240 0.500000 0.789820 0.927120
Zn15  Zn    Zn3+2 0.086760 0.500000 0.210180 0.922541
Zn16  Zn    Zn3+2 0.000000 0.413240 0.289820 0.926844

loop_
_geom_bond_atom_site_label_1
_geom_bond_atom_site_label_2
_ccdc_geom_bond_type
C19   C122  A    
C6    C179  A    
C88   H12   S    
C66   H73   S    
C60   C113  S    
C40   C145  A    
C67   O55   S    
C4    O55   S    
C81   H115  S    
C69   H81   S    
C94   O82   S    
O45   Zn4   S    
C27   C55   A    
C68   C163  T    
C142  C177  A    
C171  O71   S    
C177  C182  A    
C57   C152  T    
C175  O61   S    
C36   C47   A    
C143  C178  A    
C10   C131  A    
C96   O67   A    
C81   O69   S    
C147  H47   S    
C9    C19   A    
C128  H107  S    
C11   C17   A    
C131  C166  A    
C83   O71   S    
C3    C150  A    
C134  C169  A    
C65   H69   S    
C93   H27   S    
C8    C43   A    
C76   H103  S    
C160  O82   S    
C25   C60   A    
C127  H96   S    
C67   H76   S    
C7    O54   S    
C49   C111  S    
C110  O40   A    
C85   H4    S    
C50   C103  S    
C11   C129  A    
C17   C52   A    
C46   C141  T    
C61   H57   S    
C74   H95   S    
C129  H118  S    
C94   H30   S    
C86   H6    S    
C71   O59   S    
C72   H89   S    
C90   C152  S    
C113  O39   A    
C62   H61   S    
C73   H93   S    
C51   C104  S    
C150  H50   S    
C122  H41   S    
C115  O37   A    
C95   H33   S    
O29   Zn16  S    
O4    Zn16  S    
C120  O32   A    
C136  C171  A    
C140  C176  A    
C38   C138  A    
C70   O58   S    
C96   O3    A    
O7    Zn13  S    
O22   Zn7   S    
C64   H66   S    
C82   H121  S    
C166  O70   S    
C66   H75   S    
O25   Zn5   S    
O31   Zn15  S    
O30   Zn2   S    
C55   C117  S    
C139  H39   S    
C89   H16   S    
C82   O70   S    
C146  C181  A    
C116  O33   A    
C143  H43   S    
C81   H117  S    
C22   C58   A    
C70   H84   S    
C79   O84   A    
O23   Zn14  S    
C78   H111  S    
C10   C18   A    
C65   H71   S    
C6    O53   S    
C86   O74   S    
C179  O65   S    
C99   C119  S    
C158  O75   S    
C159  C165  A    
C75   O63   S    
C176  O58   S    
C42   C143  A    
O34   Zn15  S    
O13   Zn1   S    
C53   C115  S    
C87   H8    S    
C14   C23   A    
C48   C110  S    
C94   H28   S    
C16   C21   A    
C121  C156  A    
C72   H91   S    
C16   C51   A    
C183  O52   S    
C16   C134  A    
O84   Zn8   S    
C22   C127  A    
C125  C160  A    
C62   H59   S    
C69   H79   S    
O42   Zn12  S    
C106  O17   A    
O16   Zn2   S    
C173  O60   S    
C65   O53   S    
O8    Zn12  S    
O23   Zn2   S    
C138  H38   S    
C111  O41   A    
O1    Zn12  S    
C128  C164  A    
C145  C180  A    
C80   O68   S    
C135  C170  A    
C99   O5    A    
C92   H21   S    
C177  O59   S    
C64   H68   S    
O40   Zn14  S    
C101  O11   A    
C74   H97   S    
C149  C184  A    
O67   Zn6   S    
C4    C181  A    
C72   O60   S    
C91   H20   S    
C170  O74   S    
C95   H32   S    
C76   H102  S    
C167  O66   S    
C13   C108  T    
C178  O64   S    
C26   C54   A    
C114  O25   A    
C84   H125  S    
C157  O79   S    
C80   H112  S    
C70   H82   S    
C85   H128  S    
C78   O66   S    
C100  C108  S    
C93   O81   S    
C91   O79   S    
C87   H9    S    
C33   C151  A    
C133  C168  A    
C77   H106  S    
C140  H40   S    
C78   H109  S    
C47   C109  S    
C75   H100  S    
C149  H49   S    
C123  H52   S    
C54   C116  S    
C36   C140  A    
C17   C124  A    
C90   O56   A    
C151  H51   S    
C30   C59   A    
C10   C45   A    
C21   C128  A    
C35   C130  T    
C28   C36   A    
O12   Zn7   S    
C80   H113  S    
C23   C126  A    
C19   C54   A    
C66   H72   S    
C127  C162  A    
C168  O68   S    
C57   C68   S    
O21   Zn5   S    
C109  O19   A    
C31   C154  A    
C145  H45   S    
C31   C41   A    
C85   O73   S    
C172  O72   S    
C52   C114  S    
C40   C51   A    
C61   O49   S    
O46   Zn11  S    
C92   H23   S    
O27   Zn3   S    
C83   H124  S    
C148  C183  A    
C82   H120  S    
C32   C56   A    
C67   H77   S    
C91   H19   S    
C91   H18   S    
C73   O61   S    
O20   Zn6   S    
C161  C171  A    
C107  O42   A    
O24   Zn8   S    
C93   H26   S    
C76   H104  S    
O35   Zn1   S    
C84   H127  S    
C45   C107  S    
C85   H3    S    
O15   Zn7   S    
C33   C58   A    
C100  O10   A    
O11   Zn9   S    
C11   C47   A    
C132  C167  A    
C12   C48   A    
C157  C167  A    
C77   H108  S    
C112  O22   A    
C133  H24   S    
C72   H90   S    
C103  O47   A    
C88   O76   S    
C73   H92   S    
C63   O51   S    
C156  O77   S    
C137  H37   S    
O12   Zn3   S    
C102  O13   A    
C88   H14   S    
C63   H62   S    
C25   C125  A    
C137  C172  A    
O12   Zn9   S    
C90   O2    A    
C18   C53   A    
C96   C141  S    
C15   C22   A    
C2    C97   T    
C71   H88   S    
C9    C44   A    
C180  O62   S    
C159  O76   S    
C148  H48   S    
C126  C161  A    
O6    Zn10  S    
C98   O78   A    
C95   O83   S    
C162  O80   S    
C18   C123  A    
C109  O43   A    
C155  H55   S    
C88   H11   S    
O37   Zn10  S    
C142  H42   S    
O23   Zn6   S    
C89   H15   S    
C28   C148  A    
C104  O48   A    
C26   C150  A    
C41   C144  A    
C110  O20   A    
C81   H116  S    
C115  O26   A    
O44   Zn10  S    
C134  H34   S    
C29   C34   A    
C105  O16   A    
C7    C178  A    
O32   Zn14  S    
C31   C60   A    
C37   C43   A    
C23   C59   A    
C5    C180  A    
C38   C44   A    
C118  O31   A    
C99   O9    A    
C162  C170  A    
C65   H70   S    
C75   H101  S    
C138  C173  A    
C58   C120  S    
C59   C112  S    
C8    C20   A    
C169  O73   S    
C69   O57   S    
C76   O64   S    
O19   Zn3   S    
C161  O83   S    
C147  C182  A    
C30   C155  A    
C63   H65   S    
C165  O69   S    
O14   Zn8   S    
O34   Zn16  S    
C158  C166  A    
C9    C132  A    
C61   H58   S    
C154  H54   S    
C34   C142  A    
C94   H29   S    
O1    Zn4   S    
C61   H56   S    
C56   C118  S    
C26   C38   A    
C29   C147  A    
C21   C56   A    
C62   H60   S    
C136  H36   S    
C44   C106  S    
C73   H94   S    
C118  O29   A    
C83   H122  S    
C129  C165  A    
O9    Zn15  S    
C14   C136  A    
C4    C151  A    
C71   H86   S    
C39   C146  A    
C132  H13   S    
C122  C157  A    
C116  O27   A    
C104  O15   A    
C92   H22   S    
C32   C153  A    
O41   Zn15  S    
C7    C155  A    
C74   H98   S    
C156  C168  A    
C30   C42   A    
O39   Zn12  S    
C35   C46   S    
C112  O38   A    
C1    C102  S    
O3    Zn2   S    
C117  O28   A    
C100  O6    A    
C175  C184  A    
C101  O7    A    
C176  C183  A    
C102  O8    A    
C181  O63   S    
C84   O72   S    
C95   H31   S    
C164  O81   S    
C111  O21   A    
C126  H85   S    
C139  C175  A    
C84   H126  S    
C70   H83   S    
C66   O54   S    
C63   H64   S    
C86   H7    S    
C33   C39   A    
O56   Zn3   S    
C117  O35   A    
O34   Zn5   S    
C77   H105  S    
C184  O49   S    
C78   H110  S    
C14   C49   A    
C15   C135  A    
O28   Zn4   S    
C124  C159  A    
C75   H99   S    
C43   C105  S    
C15   C50   A    
C5    O57   S    
C3    C173  A    
C103  O14   A    
C62   O50   S    
C80   H114  S    
C79   O45   A    
O33   Zn9   S    
C27   C149  A    
C98   C130  S    
C164  C169  A    
C182  O51   S    
C20   C55   A    
O47   Zn1   S    
O26   Zn6   S    
C69   H80   S    
C160  C172  A    
C1    C174  T    
C77   O65   S    
O12   Zn13  S    
C105  O44   A    
O10   Zn14  S    
O2    Zn7   S    
C121  H1    S    
C13   C24   S    
O48   Zn9   S    
C64   H67   S    
C144  C179  A    
C83   H123  S    
C135  H35   S    
O36   Zn11  S    
C34   C45   A    
C6    C154  A    
O5    Zn11  S    
C20   C121  A    
O23   Zn10  S    
C93   H25   S    
C113  O24   A    
C67   H78   S    
C82   H119  S    
C24   C119  T    
C146  H46   S    
C87   O75   S    
O78   Zn5   S    
O18   Zn4   S    
C86   H5    S    
C8    C133  A    
C125  H74   S    
C106  O46   A    
C87   H10   S    
C79   C163  S    
O34   Zn11  S    
C123  C158  A    
C89   H17   S    
C153  H53   S    
C12   C25   A    
C107  O18   A    
C124  H63   S    
C2    C174  S    
C28   C52   A    
C92   O80   S    
C29   C53   A    
C27   C37   A    
O38   Zn13  S    
C5    C153  A    
O43   Zn13  S    
O17   Zn16  S    
C41   C48   A    
C64   O52   S    
C32   C40   A    
C3    O50   S    
C74   O62   S    
C89   O77   S    
C42   C49   A    
C120  O30   A    
C131  H2    S    
C39   C50   A    
O1    Zn1   S    
C71   H87   S    
C37   C139  A    
O1    Zn8   S    
C12   C137  A    
C144  H44   S    
C98   O4    A    
C97   C101  S    
C114  O36   A    
