data_mof_unit_14895.cif
_audit_creation_date              2012-12-11T17:39:33-0500
_audit_creation_method            fapswitch 2.2
_symmetry_space_group_name_H-M    P1
_symmetry_Int_Tables_number       1
_space_group_crystal_system       triclinic
_cell_length_a                    15.115793
_cell_length_b                    15.074296
_cell_length_c                    15.045668
_cell_angle_alpha                 108.860468
_cell_angle_beta                  109.627006
_cell_angle_gamma                 110.447141
_cell_volume                      2621.62920493

loop_
_atom_site_label
_atom_site_type_symbol
_atom_type_description
_atom_site_fract_x
_atom_site_fract_y
_atom_site_fract_z
_atom_type_partial_charge
Br1   Br    Br    0.097724 0.319328 0.262260 -0.623300
C1    C     C_R   0.907757 0.918538 0.714766 -0.144722
C2    C     C_R   0.907184 0.684731 0.443542 -0.149974
C3    C     C_R   0.702621 0.788058 0.196960 -0.108312
C4    C     C_R   0.093311 0.300123 0.498819 -0.106480
C5    C     C_R   0.300522 0.001898 0.593486 -0.156768
C6    C     C_R   0.643338 0.690617 0.190728 0.142980
C7    C     C_R   0.361167 0.058575 0.559966 0.058356
C8    C     C_R   0.999262 0.676101 0.463986 0.052216
C9    C     C_R   0.002505 0.949871 0.179399 0.040443
C10   C     C_R   0.480342 0.676643 0.344991 -0.123784
C11   C     C_R   0.500875 0.783622 0.386438 -0.109876
C12   C     C_R   0.003851 0.302852 0.440987 0.086783
C13   C     C_R   0.519540 0.840731 0.491655 0.116269
C14   C     C_R   0.515657 0.788644 0.553861 -0.193627
C15   C     C_R   0.495749 0.681919 0.512279 -0.089943
C16   C     C_R   0.247552 0.221648 0.812099 -0.157070
C17   C     C_R   0.478220 0.625993 0.407984 -0.076809
C18   C     C_R   0.460150 0.967571 0.551125 -0.237548
C19   C     C_R   0.461448 0.065283 0.572277 0.062602
C20   C     C_R   0.548199 0.156153 0.587357 0.025746
C21   C     C_R   0.632482 0.144301 0.578389 -0.245727
C22   C     C_R   0.627022 0.043875 0.551238 0.067993
C23   C     C_R   0.273013 0.323256 0.821568 0.135741
C24   C     C_R   0.539228 0.953685 0.535567 0.013256
C25   C     C_R   0.573149 0.308137 0.544697 -0.167777
C26   C     C_R   0.563100 0.398958 0.553548 -0.106446
C27   C     C_R   0.527449 0.441312 0.622091 -0.069413
C28   C     C_R   0.741074 0.054842 0.463950 -0.148047
C29   C     C_R   0.504194 0.394439 0.683665 -0.098390
C30   C     C_R   0.518774 0.306841 0.678866 -0.146869
C31   C     C_R   0.549427 0.259964 0.606127 0.115075
C32   C     C_R   0.879541 0.150585 0.091970 -0.171107
C33   C     C_R   0.941067 0.248959 0.191027 0.348431
C34   C     C_R   0.710403 0.032048 0.534452 0.049933
C35   C     C_R   0.887317 0.294714 0.233651 0.026784
C36   C     C_R   0.772596 0.241884 0.173984 -0.226759
C37   C     C_R   0.712106 0.144001 0.074972 -0.097756
C38   C     C_R   0.765456 0.098090 0.034367 -0.152126
C39   C     C_R   0.944816 0.487723 0.351528 -0.237468
C40   C     C_R   0.248195 0.312727 0.720197 -0.133063
C41   C     C_R   0.002929 0.580631 0.454619 0.059293
C42   C     C_R   0.066333 0.582852 0.549586 0.015984
C43   C     C_R   0.070941 0.491527 0.539402 -0.248861
C44   C     C_R   0.010127 0.397687 0.437956 0.101573
C45   C     C_R   0.702474 0.694996 0.286192 -0.160638
C46   C     C_R   0.948666 0.394451 0.342013 0.078174
C47   C     C_R   0.235730 0.735839 0.725659 -0.184567
C48   C     C_R   0.287168 0.819398 0.832959 -0.119712
C49   C     C_R   0.224357 0.840378 0.877617 -0.096388
C50   C     C_R   0.110143 0.778194 0.814844 -0.109116
C51   C     C_R   0.058318 0.696225 0.706813 -0.127501
C52   C     C_R   0.747787 0.967930 0.560747 -0.106454
C53   C     C_R   0.120920 0.674445 0.661675 0.130469
C54   C     C_2   0.369367 0.521559 0.931400 -0.125222
C55   C     C_2   0.323453 0.423326 0.922804 -0.197445
C56   C     C_R   0.301780 0.090811 0.500356 -0.141308
C57   C     C_2   0.465541 0.616158 0.033769 -0.114789
C58   C     C_2   0.533622 0.602488 0.105184 -0.243686
C59   C     C_R   0.379991 0.262792 0.135176 -0.102506
C60   C     C_R   0.296001 0.155257 0.087332 -0.188851
C61   C     C_R   0.186056 0.128016 0.039861 0.104413
C62   C     C_R   0.161430 0.209650 0.040143 -0.075040
C63   C     C_R   0.245799 0.317439 0.089603 -0.071476
C64   C     C_R   0.910815 0.210933 0.409056 -0.152748
C65   C     C_R   0.354976 0.344069 0.137723 -0.136688
C66   C     C_R   0.103537 0.000823 0.092151 -0.208903
C67   C     C_R   0.091154 0.778778 0.530041 -0.096977
C68   C     C_R   0.009785 0.923646 0.080963 0.047903
C69   C     C_R   0.917842 0.844635 0.976762 0.028403
C70   C     C_R   0.916447 0.856401 0.888130 -0.267730
C71   C     C_R   0.004235 0.946604 0.904288 0.047472
C72   C     C_R   0.098826 0.019723 0.008020 0.010741
C73   C     C_R   0.841493 0.689809 0.009365 -0.140393
C74   C     C_R   0.753802 0.607226 0.000723 -0.095331
C75   C     C_R   0.647911 0.586263 0.943696 -0.069925
C76   C     C_R   0.090080 0.006798 0.803105 -0.131221
C77   C     C_R   0.629236 0.647293 0.894525 -0.127406
C78   C     C_R   0.910369 0.937925 0.187809 -0.105293
C79   C     C_R   0.716454 0.728916 0.901522 -0.181443
C80   C     C_R   0.823617 0.751740 0.960270 0.122911
C81   C     C_R   0.999986 0.960936 0.812739 0.058677
C82   C     C_R   0.092727 0.022329 0.282549 -0.081343
H1    H     H_    0.824031 0.862910 0.688281 0.092512
H2    H     H_    0.465620 0.632828 0.263885 0.120223
H3    H     H_    0.502091 0.821899 0.336744 0.111185
H4    H     H_    0.177699 0.355152 0.526288 0.118001
H5    H     H_    0.528977 0.831105 0.634752 0.109268
H6    H     H_    0.493620 0.642494 0.560822 0.100854
H7    H     H_    0.390621 0.896822 0.535057 0.137370
H8    H     H_    0.701268 0.212182 0.590073 0.132261
H9    H     H_    0.596064 0.273487 0.487364 0.107107
H10   H     H_    0.580437 0.434874 0.505272 0.103050
H11   H     H_    0.517074 0.509897 0.626942 0.092923
H12   H     H_    0.329854 0.145025 0.470706 0.116259
H13   H     H_    0.473266 0.424899 0.734069 0.104238
H14   H     H_    0.501125 0.272435 0.728085 0.115187
H15   H     H_    0.718405 0.022011 0.957914 0.114694
H16   H     H_    0.258137 0.202550 0.876775 0.119341
H17   H     H_    0.920225 0.114854 0.059303 0.146397
H18   H     H_    0.729871 0.275433 0.205314 0.121022
H19   H     H_    0.623680 0.103289 0.030047 0.107060
H20   H     H_    0.897510 0.488418 0.279555 0.134215
H21   H     H_    0.115927 0.491079 0.612652 0.130868
H22   H     H_    0.285043 0.719172 0.692177 0.113478
H23   H     H_    0.175681 0.799965 0.564717 0.101838
H24   H     H_    0.375643 0.867086 0.881813 0.101065
H25   H     H_    0.264096 0.903994 0.961120 0.096846
H26   H     H_    0.061748 0.792482 0.850300 0.129258
H27   H     H_    0.720736 0.099094 0.424502 0.099570
H28   H     H_    0.969720 0.648366 0.659093 0.107562
H29   H     H_    0.349827 0.530771 0.859901 0.115695
H30   H     H_    0.338483 0.416219 0.994755 0.138245
H31   H     H_    0.489089 0.696157 0.041453 0.121813
H32   H     H_    0.513540 0.522830 0.096988 0.131597
H33   H     H_    0.420236 0.427713 0.176933 0.090449
H34   H     H_    0.826381 0.892420 0.122979 0.112379
H35   H     H_    0.464541 0.283579 0.172468 0.101354
H36   H     H_    0.316519 0.093808 0.089951 0.105363
H37   H     H_    0.077373 0.190699 0.006428 0.119003
H38   H     H_    0.226652 0.380660 0.091878 0.128243
H39   H     H_    0.257770 0.375595 0.698506 0.084859
H40   H     H_    0.176123 0.060862 0.170783 0.137951
H41   H     H_    0.846548 0.796086 0.807336 0.129624
H42   H     H_    0.923472 0.706250 0.055158 0.112751
H43   H     H_    0.768028 0.560007 0.038910 0.109111
H44   H     H_    0.580187 0.522186 0.937112 0.114159
H45   H     H_    0.177096 0.049433 0.306821 0.089588
H46   H     H_    0.547055 0.631159 0.850797 0.098592
H47   H     H_    0.700956 0.776563 0.864335 0.106070
H48   H     H_    0.734875 0.934174 0.611448 0.105634
H49   H     H_    0.826957 0.184567 0.355433 0.102007
H50   H     H_    0.172568 0.028170 0.854543 0.106871
H51   H     H_    0.672668 0.638576 0.313196 0.092000
H52   H     H_    0.822972 0.619248 0.399937 0.098248
H53   H     H_    0.674759 0.816868 0.142318 0.086911
H54   H     H_    0.327729 0.975910 0.651284 0.098160
H55   H     H_    0.462513 0.543273 0.375867 0.112433
N1    N     N_R   0.941940 0.944580 0.650780 -0.038721
N2    N     N_R   0.204460 0.150250 0.707090 -0.043133
N3    N     N_R   0.794270 0.003240 0.446420 -0.041485
N4    N     N_R   0.204920 0.207570 0.650770 -0.043732
N5    N     N_R   0.793810 0.945920 0.502740 -0.041913
N6    N     N_R   0.943620 0.152590 0.446420 -0.039242
N7    N     N_R   0.055110 0.000900 0.707100 -0.039600
N8    N     N_R   0.795080 0.792430 0.349230 -0.039186
N9    N     N_R   0.206190 0.054080 0.497260 -0.043540
N10   N     N_R   0.056380 0.847410 0.553580 -0.042439
N11   N     N_R   0.944890 0.999100 0.292900 -0.043162
N12   N     N_R   0.058060 0.055420 0.349220 -0.036096
N13   N     N_R   0.943200 0.791100 0.497260 -0.039444
N14   N     N_R   0.795540 0.849750 0.292910 -0.048377
N15   N     N_R   0.205730 0.996760 0.553580 -0.038592
N16   N     N_R   0.056800 0.208900 0.502740 -0.044967
Ni1   Ni    Ni4+2 0.869690 0.869690 0.500000 0.213450
Ni2   Ni    Ni4+2 0.130310 0.130310 0.500000 0.228804
Ni3   Ni    Ni4+2 0.129250 0.998840 0.629170 0.214478
Ni4   Ni    Ni4+2 0.870750 0.001160 0.370830 0.213637

loop_
_geom_bond_atom_site_label_1
_geom_bond_atom_site_label_2
_ccdc_geom_bond_type
C39   C46   A    
C36   H18   S    
C54   C55   D    
C10   C17   A    
C25   C31   A    
C54   H29   S    
C34   C52   A    
C1    H1    S    
C18   C19   A    
N10   N13   A    
C82   H45   S    
C74   C75   A    
C43   H21   S    
C48   H24   S    
C12   C64   A    
C47   C53   A    
C25   C26   A    
C7    C19   S    
C65   H33   S    
C1    N1    A    
C35   C36   A    
C77   H46   S    
C75   C77   A    
N3    N5    A    
N15   Ni3   S    
C37   C38   A    
C7    C56   A    
C77   C79   A    
C73   H42   S    
C60   H36   S    
C25   H9    S    
C63   H38   S    
C9    C82   A    
C35   C46   S    
C27   H11   S    
C17   H55   S    
C69   C80   S    
C29   H13   S    
N8    Ni1   S    
C30   C31   A    
C21   H8    S    
C61   C72   S    
C59   H35   S    
C69   C70   A    
C66   C72   A    
N13   Ni1   S    
N11   Ni4   S    
N16   Ni2   S    
C67   N10   A    
C3    H53   S    
C82   N12   A    
C39   C41   A    
C59   C65   A    
C15   H6    S    
C50   H26   S    
N12   Ni2   S    
C20   C21   A    
C49   H25   S    
C23   C40   A    
C68   C69   A    
C76   H50   S    
C67   H23   S    
C3    C6    A    
N9    N15   A    
C6    C58   S    
C51   C53   A    
Br1   C33   S    
C49   C50   A    
C44   C46   A    
C3    N14   A    
C20   C31   S    
N14   Ni4   S    
C16   C23   A    
C79   H47   S    
C73   C74   A    
C50   C51   A    
C6    C45   A    
C70   H41   S    
C64   N6    A    
C71   C72   A    
C38   H15   S    
C5    C7    A    
C51   H28   S    
C57   C58   D    
C59   C60   A    
C66   C68   A    
C63   C65   A    
C40   H39   S    
C42   C43   A    
C36   C37   A    
C2    C8    A    
N2    Ni3   S    
C45   H51   S    
N7    Ni3   S    
C28   H27   S    
C42   C53   S    
N5    Ni1   S    
C47   H22   S    
C2    H52   S    
N1    Ni1   S    
C29   C30   A    
C55   H30   S    
C28   N3    A    
C61   C62   A    
C32   C33   A    
C8    C41   S    
C32   C38   A    
N9    Ni2   S    
C16   H16   S    
N8    N14   A    
C15   C17   A    
C47   C48   A    
C11   C13   A    
C22   C34   S    
C56   N9    A    
C1    C81   A    
C41   C42   A    
C73   C80   A    
N6    Ni4   S    
C76   N7    A    
C64   H49   S    
C43   C44   A    
N1    N7    A    
C13   C14   A    
C4    C12   A    
C52   H48   S    
N2    N4    A    
C79   C80   A    
C66   H40   S    
C9    C78   A    
C11   H3    S    
C23   C55   S    
C28   C34   A    
C2    N13   A    
C78   N11   A    
C32   H17   S    
N4    Ni2   S    
C74   H43   S    
C5    H54   S    
C27   C29   A    
C8    C67   A    
C40   N4    A    
C37   H19   S    
C18   H7    S    
N11   N12   A    
C39   H20   S    
C12   C44   S    
C62   H37   S    
C45   N8    A    
C76   C81   A    
C10   H2    S    
C14   C15   A    
C78   H34   S    
C16   N2    A    
C33   C35   A    
N10   Ni3   S    
C30   H14   S    
C13   C24   S    
N6    N16   A    
C60   C61   A    
C18   C24   A    
C5    N15   A    
C26   H10   S    
C62   C63   A    
C4    H4    S    
C9    C68   S    
N3    Ni4   S    
C70   C71   A    
C22   C24   A    
C19   C20   A    
C58   H32   S    
C48   C49   A    
C56   H12   S    
C54   C57   S    
C26   C27   A    
C57   H31   S    
C75   H44   S    
C21   C22   A    
C52   N5    A    
C71   C81   S    
C4    N16   A    
C10   C11   A    
C14   H5    S    
