data_mof_unit_50134.cif
_audit_creation_date              2012-12-11T21:09:25-0500
_audit_creation_method            fapswitch 2.2
_symmetry_space_group_name_H-M    P1
_symmetry_Int_Tables_number       1
_space_group_crystal_system       triclinic
_cell_length_a                    8.303822
_cell_length_b                    19.142121
_cell_length_c                    26.857553
_cell_angle_alpha                 99.583903
_cell_angle_beta                  92.612845
_cell_angle_gamma                 88.017272
_cell_volume                      4203.54077964

loop_
_atom_site_label
_atom_site_type_symbol
_atom_type_description
_atom_site_fract_x
_atom_site_fract_y
_atom_site_fract_z
_atom_type_partial_charge
Ba1   Ba    Ba6+2 0.160260 0.465850 0.521400 1.638635
Ba2   Ba    Ba6+2 0.649930 0.534160 0.478640 1.641037
C1    C     C_3   0.365448 0.321270 0.708767 -0.331080
C2    C     C_R   0.990566 0.727481 0.516818 0.060432
C3    C     C_R   0.130174 0.811741 0.456495 -0.154117
C4    C     C_3   0.993830 0.283628 0.624055 0.337987
C5    C     C_R   0.198542 0.745322 0.461543 0.003234
C6    C     C_R   0.685155 0.187340 0.542613 -0.149602
C7    C     C_R   0.617524 0.254767 0.539619 0.013881
C8    C     C_R   0.849003 0.198425 0.472797 -0.154236
C9    C     C_R   0.817881 0.272567 0.481991 0.057160
C10   C     C_R   0.017727 0.845809 0.491418 0.000514
C11   C     C_R   0.117526 0.700956 0.486952 -0.246823
C12   C     C_3   0.464398 0.301465 0.661458 0.369900
C13   C     C_R   0.793733 0.153936 0.506228 0.003611
C14   C     C_R   0.693496 0.298992 0.512852 -0.241164
C15   C     C_R   0.222935 0.963976 0.465190 -0.078604
C16   C     C_3   0.030078 0.211767 0.640088 -0.360569
C17   C     C_R   0.313754 0.014763 0.448818 -0.077170
C18   C     C_R   0.268321 0.085213 0.460865 -0.064682
C19   C     C_R   0.126445 0.103282 0.485631 -0.082526
C20   C     C_R   0.011214 0.052516 0.489838 0.014470
C21   C     C_R   0.064263 0.979125 0.482305 0.038363
C22   C     C_R   0.850826 0.075035 0.503721 -0.016958
C23   C     C_3   0.469178 0.317194 0.399123 0.308479
C24   C     C_R   0.747565 0.020682 0.513641 0.039627
C25   C     C_R   0.800321 0.947378 0.505703 0.014063
C26   C     C_R   0.961128 0.924781 0.492619 -0.017897
C27   C     C_R   0.588458 0.035749 0.530442 -0.084766
C28   C     C_3   0.826530 0.632260 0.635490 0.304472
C29   C     C_R   0.497573 0.984706 0.546432 -0.084586
C30   C     C_R   0.542464 0.914285 0.533498 -0.064703
C31   C     C_R   0.684136 0.896633 0.508421 -0.077994
C32   C     C_R   0.287483 0.446539 0.172616 0.587473
C33   C     C_R   0.181548 0.565306 0.175852 0.580785
C34   C     C_3   0.475234 0.237060 0.383886 -0.386222
C35   C     C_2   0.029769 0.523270 0.268687 -0.068200
C36   C     C_3   0.994908 0.517769 0.322907 -0.054979
C37   C     C_1   0.279475 0.490814 0.336049 0.013237
C38   C     C_2   0.313501 0.492988 0.288748 -0.096770
C39   C     C_2   0.181412 0.509129 0.251948 0.209602
C40   C     C_3   0.796658 0.661714 0.690640 -0.369119
C41   C     C_R   0.299405 0.503943 0.098307 -0.078840
C42   C     C_R   0.331191 0.444513 0.122243 -0.032760
C43   C     C_R   0.405770 0.384073 0.095397 -0.062301
C44   C     C_R   0.222699 0.564504 0.125299 -0.030707
C45   C     C_3   0.858414 0.716877 0.372882 0.353174
C46   C     C_2   0.148454 0.522874 0.355610 -0.285909
C47   C     C_2   0.653031 0.477651 0.639178 -0.278721
C48   C     C_R   0.474135 0.441410 0.970857 0.020939
C49   C     C_R   0.351397 0.561000 0.972286 0.020500
C50   C     C_R   0.435479 0.500672 0.946470 0.049096
C51   C     C_R   0.562956 0.383846 0.944027 -0.101359
C52   C     C_3   0.981033 0.368997 0.364591 0.302609
C53   C     C_R   0.607922 0.383603 0.894786 -0.063287
C54   C     C_R   0.567441 0.440795 0.869906 -0.026993
C55   C     C_R   0.481614 0.499602 0.895674 -0.079335
C56   C     C_3   0.848240 0.788713 0.355638 -0.361691
C57   C     C_R   0.442434 0.557432 0.870703 -0.032763
C58   C     C_R   0.488669 0.555656 0.820552 0.589448
C59   C     C_R   0.611014 0.440128 0.819643 0.574313
C60   C     C_2   0.762364 0.479454 0.727440 -0.081229
C61   C     C_3   0.802462 0.482943 0.673511 -0.051467
C62   C     C_1   0.520756 0.510830 0.656822 0.046321
C63   C     C_2   0.482519 0.511134 0.704275 -0.104673
C64   C     C_3   0.011558 0.339707 0.309434 -0.363688
C65   C     C_2   0.609711 0.494830 0.742702 0.193556
C66   C     C_R   0.424384 0.441686 0.021059 0.020572
C67   C     C_3   0.364143 0.697579 0.346284 0.302259
C68   C     C_R   0.344321 0.502774 0.047384 0.049305
C69   C     C_R   0.308886 0.562715 0.023423 0.020587
C70   C     C_R   0.451104 0.382517 0.046050 -0.100887
C71   C     C_R   0.190395 0.623402 0.101480 -0.062436
C72   C     C_R   0.312596 0.617737 0.945717 -0.100362
C73   C     C_R   0.357456 0.615935 0.896257 -0.062529
C74   C     C_R   0.232355 0.622690 0.051847 -0.099856
C75   C     C_3   0.333752 0.681602 0.589873 0.314991
C76   C     C_3   0.333460 0.761850 0.604509 -0.382127
C77   C     C_3   0.611049 0.255012 0.673290 -0.182969
C78   C     C_3   0.416001 0.710078 0.295027 -0.354963
C79   C     C_3   0.569489 0.180071 0.680788 -0.392803
C80   C     C_R   0.957850 0.801742 0.524680 -0.150929
H1    H     H_    0.507448 0.351957 0.652110 -0.009296
H2    H     H_    0.209085 0.664631 0.580063 0.003855
H3    H     H_    0.409894 0.666514 0.556655 0.080434
H4    H     H_    0.252815 0.349030 0.699850 0.170230
H5    H     H_    0.254091 0.778923 0.636737 0.127602
H6    H     H_    0.288414 0.787100 0.572103 0.058603
H7    H     H_    0.457916 0.779660 0.615463 0.124475
H8    H     H_    0.434015 0.356842 0.738337 0.108904
H9    H     H_    0.593593 0.335307 0.409326 0.019061
H10   H     H_    0.393395 0.330299 0.432614 0.071356
H11   H     H_    0.553293 0.221720 0.351126 0.133083
H12   H     H_    0.720976 0.711086 0.693208 0.141269
H13   H     H_    0.525251 0.212122 0.415947 0.056566
H14   H     H_    0.351833 0.217457 0.373529 0.122730
H15   H     H_    0.331591 0.274063 0.724389 0.103457
H16   H     H_    0.926741 0.194157 0.658891 0.105912
H17   H     H_    0.762071 0.715423 0.400021 0.103759
H18   H     H_    0.977511 0.710224 0.391580 -0.044100
H19   H     H_    0.854218 0.831673 0.388911 0.071590
H20   H     H_    0.949881 0.793647 0.331073 0.119791
H21   H     H_    0.732420 0.794780 0.334243 0.141070
H22   H     H_    0.235407 0.714789 0.350274 -0.018182
H23   H     H_    0.732434 0.623200 0.708424 0.078935
H24   H     H_    0.377451 0.639854 0.347386 0.051130
H25   H     H_    0.338901 0.679802 0.264725 0.127257
H26   H     H_    0.543294 0.692000 0.289415 0.155458
H27   H     H_    0.098665 0.297957 0.604490 0.132993
H28   H     H_    0.403987 0.767345 0.292460 0.115089
H29   H     H_    0.879720 0.823499 0.554858 0.074159
H30   H     H_    0.165257 0.834908 0.424788 0.065929
H31   H     H_    0.651096 0.161956 0.573275 0.065824
H32   H     H_    0.923585 0.177085 0.441589 0.072263
H33   H     H_    0.159694 0.646634 0.485856 0.060616
H34   H     H_    0.913238 0.673680 0.711764 0.122465
H35   H     H_    0.651391 0.353418 0.514492 0.064751
H36   H     H_    0.288103 0.915584 0.467240 0.076274
H37   H     H_    0.430419 0.000365 0.433077 0.079879
H38   H     H_    0.348706 0.125833 0.454423 0.090957
H39   H     H_    0.891230 0.279107 0.596368 -0.023893
H40   H     H_    0.107342 0.157514 0.501688 0.128866
H41   H     H_    0.523443 0.084315 0.528429 0.079629
H42   H     H_    0.380941 0.998931 0.562245 0.077709
H43   H     H_    0.461341 0.873700 0.539358 0.094549
H44   H     H_    0.703604 0.842998 0.490820 0.128142
H45   H     H_    0.096743 0.386209 0.384035 0.024677
H46   H     H_    0.435880 0.482652 0.276380 0.112165
H47   H     H_    0.430102 0.337241 0.112590 0.122790
H48   H     H_    0.858957 0.470634 0.754505 0.108986
H49   H     H_    0.675300 0.337900 0.876163 0.120693
H50   H     H_    0.602236 0.337950 0.960061 0.068611
H51   H     H_    0.056379 0.171701 0.606307 0.085401
H52   H     H_    0.505420 0.333266 0.028468 0.069087
H53   H     H_    0.930690 0.532277 0.242510 0.100684
H54   H     H_    0.132484 0.670922 0.121325 0.121246
H55   H     H_    0.245761 0.664612 0.961726 0.069118
H56   H     H_    0.893851 0.414501 0.366912 0.034478
H57   H     H_    0.324383 0.661001 0.877934 0.122094
H58   H     H_    0.359548 0.523029 0.715557 0.128304
H59   H     H_    0.204327 0.670898 0.037247 0.068766
H60   H     H_    0.150753 0.551035 0.394242 0.066427
H61   H     H_    0.654030 0.447551 0.601156 0.069980
H62   H     H_    0.135797 0.214560 0.666892 0.145867
H63   H     H_    0.709808 0.616140 0.616200 0.023375
H64   H     H_    0.911852 0.586099 0.633115 0.035819
H65   H     H_    0.508009 0.181308 0.716717 0.128180
H66   H     H_    0.491957 0.153701 0.648860 0.151720
H67   H     H_    0.089781 0.291084 0.306925 0.145765
H68   H     H_    0.682032 0.147504 0.682734 0.113425
H69   H     H_    0.690045 0.250496 0.641308 0.067127
H70   H     H_    0.680272 0.281541 0.707193 0.153178
H71   H     H_    0.073098 0.378736 0.291410 0.081914
H72   H     H_    0.895378 0.326451 0.288411 0.118667
N1    N     N_R   0.215811 0.506925 0.199141 -0.426820
N2    N     N_R   0.569845 0.496896 0.795185 -0.424704
O1    O     O_2   0.103290 0.325410 0.465600 -0.472054
O2    O     O_2   0.665509 0.556119 0.332300 -0.485387
O3    O     O_3   0.841273 0.663446 0.330735 -0.595295
O4    O     O_3   0.857760 0.414170 0.470020 -0.482931
O5    O     O_3   0.459840 0.537690 0.560170 -0.493273
O6    O     O_2   0.582520 0.462630 0.379680 -0.457465
O7    O     O_3   0.403771 0.348196 0.358525 -0.632568
O8    O     O_2   0.525397 0.753894 0.482424 -0.508418
O9    O     O_3   0.461535 0.736709 0.384400 -0.600928
O10   O     O_2   0.312199 0.394239 0.192816 -0.596784
O11   O     O_2   0.684069 0.388529 0.797452 -0.613198
O12   O     O_3   0.393747 0.651112 0.631041 -0.627431
O13   O     O_2   0.116869 0.618273 0.199313 -0.601323
O14   O     O_2   0.458343 0.606924 0.799663 -0.599422
O15   O     O_3   0.374170 0.371120 0.556000 -0.463887
O16   O     O_2   0.293661 0.243198 0.524996 -0.512597
O17   O     O_3   0.915211 0.315366 0.385836 -0.635610
O18   O     O_3   0.366371 0.265026 0.621822 -0.616005
O19   O     O_2   0.227790 0.537410 0.620340 -0.459455
O20   O     O_3   0.969630 0.407570 0.582610 -0.490115
O21   O     O_2   0.131030 0.446611 0.668624 -0.500793
O22   O     O_3   0.957386 0.335185 0.666141 -0.617626
O23   O     O_2   0.707020 0.674640 0.534420 -0.466399
O24   O     O_3   0.952550 0.585840 0.530020 -0.486718
O25   O     O_3   0.436140 0.628890 0.444040 -0.464402
O26   O     O_3   0.895181 0.685168 0.614180 -0.633358
O27   O     O_3   0.350480 0.462320 0.439870 -0.480235
O28   O     O_3   0.840680 0.592440 0.417430 -0.488994
P1    P     P_3+3 0.926760 0.336170 0.451740 0.978266
P2    P     P_3+3 0.399470 0.558680 0.614150 0.996524
P3    P     P_3+3 0.964095 0.419157 0.648253 0.941299
P4    P     P_3+3 0.883550 0.663840 0.548300 0.983327
P5    P     P_3+3 0.835803 0.581306 0.351122 0.970165
P6    P     P_3+3 0.417589 0.283409 0.562544 0.907529
P7    P     P_3+3 0.401185 0.440434 0.376629 0.960993
P8    P     P_3+3 0.403110 0.718062 0.442316 0.920122

loop_
_geom_bond_atom_site_label_1
_geom_bond_atom_site_label_2
_ccdc_geom_bond_type
C76   H5    S    
C53   C54   A    
Ba1   O20   S    
C43   H47   S    
C47   C61   S    
O3    P5    S    
C17   C18   A    
C49   C72   A    
Ba2   O6    S    
Ba1   O27   S    
C45   O3    S    
C75   C76   S    
C25   C31   A    
C75   O12   S    
C78   H25   S    
O17   P1    S    
C24   C25   A    
C35   C36   S    
Ba2   O24   S    
C60   C65   D    
O20   P3    S    
C1    H8    S    
O4    P1    S    
C52   O17   S    
C77   H69   S    
C7    C14   A    
C33   N1    Am   
C29   H42   S    
C56   H19   S    
C8    C13   A    
C17   H37   S    
C69   C74   A    
O25   P8    S    
C55   C57   A    
C45   C56   S    
C79   H68   S    
C38   H46   S    
C27   H41   S    
C2    C11   A    
O9    P8    S    
C45   H17   S    
C54   C55   A    
C16   H51   S    
Ba1   Ba2   S    
C19   H40   S    
C1    H15   S    
O24   P4    S    
C15   C17   A    
C63   H58   S    
C32   O10   D    
C34   H11   S    
Ba1   O19   S    
C6    C7    A    
C79   H65   S    
C48   C50   A    
C35   H53   S    
C68   C69   A    
C56   H20   S    
C36   C46   S    
C8    H32   S    
C74   H59   S    
C79   H66   S    
C75   H3    S    
C57   C58   A    
C47   C62   D    
C9    P1    S    
C19   C20   A    
C4    O22   S    
C1    H4    S    
C28   O26   S    
C49   C69   A    
C12   H1    S    
Ba2   O5    S    
O6    P7    D    
C40   H23   S    
C28   H64   S    
Ba2   P4    S    
C51   C53   A    
C76   H7    S    
C4    C16   S    
C72   H55   S    
C23   H9    S    
C48   C51   A    
O12   P2    S    
C72   C73   A    
C46   H60   S    
C49   C50   A    
C32   C42   A    
C64   H67   S    
C50   C55   A    
O2    P5    D    
C37   C38   D    
C3    C5    A    
O26   P4    S    
O23   P4    D    
C75   H2    S    
C63   C65   S    
C32   N1    Am   
Ba1   O15   S    
C45   H18   S    
O15   P6    S    
C65   N2    S    
C59   O11   D    
Ba2   O25   S    
C30   H43   S    
C41   C42   A    
C58   N2    Am   
C60   C61   S    
C37   P7    S    
C9    C14   A    
C34   H14   S    
C70   H52   S    
C29   C30   A    
C15   C21   A    
C71   H54   S    
C66   C70   A    
C36   P5    S    
C10   C80   A    
C54   C59   A    
C51   H50   S    
Ba2   O28   S    
C21   C26   A    
C11   H33   S    
C1    C12   S    
C6    H31   S    
C3    C10   A    
O22   P3    S    
C15   H36   S    
C40   H34   S    
C13   C22   S    
O18   P6    S    
C41   C68   A    
C53   H49   S    
C33   O13   D    
C71   C74   A    
C20   C22   A    
C5    P8    S    
Ba2   O23   S    
Ba2   O4    S    
C7    P6    S    
C59   N2    Am   
C57   C73   A    
C18   H38   S    
C42   C43   A    
C28   H63   S    
C64   H72   S    
C67   H22   S    
C76   H6    S    
C38   C39   S    
C23   H10   S    
C40   H12   S    
Ba1   O4    S    
C22   C24   A    
O1    P1    D    
O27   P7    S    
C64   H71   S    
C67   H24   S    
C77   C79   S    
C52   C64   S    
C3    H30   S    
Ba1   P1    S    
C4    H27   S    
C6    C13   A    
C52   H45   S    
C78   H26   S    
C61   P3    S    
C60   H48   S    
O21   P3    D    
O16   P6    D    
C62   C63   D    
C2    P4    S    
Ba1   O1    S    
C58   O14   D    
C12   O18   S    
C73   H57   S    
C14   H35   S    
C80   H29   S    
O19   P2    D    
C34   H13   S    
Ba1   P2    S    
C52   H56   S    
C23   O7    S    
C47   H61   S    
C16   H62   S    
C31   H44   S    
Ba1   O24   S    
Ba2   O27   S    
C35   C39   D    
C30   C31   A    
C41   C44   A    
C67   O9    S    
C12   C77   S    
C8    C9    A    
C23   C34   S    
Ba1   O5    S    
C5    C11   A    
C2    C80   A    
C18   C19   A    
C10   C26   S    
C24   C27   A    
C27   C29   A    
C78   H28   S    
C25   C26   A    
C66   C68   A    
C20   C21   A    
C28   C40   S    
C67   C78   S    
O7    P7    S    
C56   H21   S    
C16   H16   S    
C4    H39   S    
C39   N1    S    
O8    P8    D    
C33   C44   A    
C48   C66   A    
C77   H70   S    
O28   P5    S    
C44   C71   A    
C62   P2    S    
C37   C46   D    
C43   C70   A    
O5    P2    S    
