data_mof_unit_23609.cif
_audit_creation_date              2012-12-11T15:55:50-0500
_audit_creation_method            fapswitch 2.2
_symmetry_space_group_name_H-M    P1
_symmetry_Int_Tables_number       1
_space_group_crystal_system       triclinic
_cell_length_a                    6.954462
_cell_length_b                    14.554039
_cell_length_c                    16.083536
_cell_angle_alpha                 89.967118
_cell_angle_beta                  89.94653
_cell_angle_gamma                 89.993909
_cell_volume                      1627.90233162

loop_
_atom_site_label
_atom_site_type_symbol
_atom_type_description
_atom_site_fract_x
_atom_site_fract_y
_atom_site_fract_z
_atom_type_partial_charge
O1    O     O_R   0.505680 0.583900 0.413320 -0.543077
O2    O     O_R   0.176010 0.594950 0.586080 -0.522059
O3    O     O_R   0.005680 0.416100 0.586680 -0.532185
C1    C     C_R   0.344426 0.616025 0.615890 0.744366
O4    O     O_R   0.175960 0.594930 0.413930 -0.545010
O5    O     O_R   0.005640 0.416080 0.413300 -0.544133
C2    C     C_R   0.345047 0.617155 0.385065 0.680070
O6    O     O_R   0.505720 0.583920 0.586700 -0.537014
O7    O     O_3   0.339190 0.441320 0.500000 -0.375997
V1    V     V_3+5 0.064350 0.510890 0.500000 1.448194
O8    O     O_R   0.675920 0.405050 0.413920 -0.546534
C3    C     C_R   0.845007 0.382827 0.385028 0.674361
O9    O     O_R   0.675960 0.405070 0.586070 -0.543776
C4    C     C_R   0.845043 0.382357 0.614388 0.729799
V2    V     V_3+5 0.564340 0.489110 0.500000 1.424683
O10   O     O_3   0.839370 0.558680 0.500000 -0.362034
C5    C     C_R   0.031472 0.290451 0.719535 0.111517
C6    C     C_R   0.857275 0.309871 0.679254 -0.109139
C7    C     C_R   0.697508 0.254742 0.700388 -0.181391
H1    H     H_    0.562346 0.262817 0.667894 0.134212
C8    C     C_R   0.708816 0.190336 0.765883 -0.158797
H2    H     H_    0.581878 0.150876 0.781520 0.136986
C9    C     C_R   0.880011 0.179466 0.812177 -0.102780
C10   C     C_R   0.042584 0.226978 0.784047 0.121856
C11   C     C_3   0.182531 0.284346 0.831365 -0.423962
C12   C     C_3   0.170414 0.353785 0.760953 -0.391310
H3    H     H_    0.325690 0.251062 0.836382 0.177351
H4    H     H_    0.122401 0.310190 0.891033 0.175381
H5    H     H_    0.306617 0.360868 0.725411 0.174871
H6    H     H_    0.103206 0.419600 0.780127 0.206090
C13   C     C_R   0.046349 0.224566 0.217556 -0.154256
H7    H     H_    0.186720 0.205990 0.193723 0.116239
C14   C     C_R   0.035262 0.288108 0.282788 -0.148137
H8    H     H_    0.167645 0.316639 0.306982 0.118314
C15   C     C_R   0.856203 0.314480 0.316151 -0.042755
C16   C     C_R   0.688550 0.275510 0.282328 -0.152838
H9    H     H_    0.548178 0.294092 0.306156 0.116716
C17   C     C_R   0.699638 0.211966 0.217098 -0.148610
H10   H     H_    0.567254 0.183438 0.192901 0.118064
C18   C     C_R   0.878699 0.185576 0.183750 -0.043034
C19   C     C_R   0.188073 0.716260 0.725829 0.137954
C20   C     C_R   0.199442 0.794263 0.776882 0.146332
C21   C     C_R   0.377052 0.818000 0.813170 -0.126007
C22   C     C_R   0.542749 0.777179 0.780203 -0.130646
H11   H     H_    0.680871 0.791252 0.807093 0.189260
C23   C     C_R   0.531112 0.720698 0.709878 -0.133541
H12   H     H_    0.660547 0.701378 0.677627 0.182749
C24   C     C_R   0.353730 0.685282 0.684133 -0.123214
C25   C     C_R   0.188604 0.724374 0.282295 -0.151104
H13   H     H_    0.048208 0.705711 0.306057 0.117441
C26   C     C_R   0.199735 0.787918 0.217047 -0.145404
H14   H     H_    0.067346 0.816385 0.192753 0.119289
C27   C     C_R   0.378854 0.814376 0.183804 -0.043726
C28   C     C_R   0.546527 0.775499 0.217713 -0.150981
H15   H     H_    0.686919 0.794165 0.193949 0.117703
C29   C     C_R   0.535396 0.711951 0.282963 -0.146499
H16   H     H_    0.667779 0.683481 0.307260 0.119206
C30   C     C_R   0.356274 0.685500 0.316209 -0.043901
O11   O     O_R   0.229200 0.915950 0.913350 -0.519699
O12   O     O_R   0.559090 0.905000 0.086080 -0.545296
O13   O     O_R   0.729280 0.083880 0.086680 -0.544415
C31   C     C_R   0.390032 0.882734 0.114957 0.681104
O14   O     O_R   0.558920 0.904980 0.913920 -0.536006
O15   O     O_R   0.729110 0.083860 0.913300 -0.540074
C32   C     C_R   0.389892 0.884971 0.883278 0.747090
O16   O     O_R   0.229360 0.915970 0.086730 -0.542525
O17   O     O_3   0.395680 0.058580 0.000030 -0.377574
V3    V     V_3+5 0.670570 0.989070 0.999990 1.443332
O18   O     O_R   0.058820 0.094950 0.913870 -0.535319
C33   C     C_R   0.889935 0.116273 0.884552 0.732939
O19   O     O_R   0.058990 0.094970 0.086020 -0.547520
C34   C     C_R   0.889902 0.117190 0.114907 0.671114
V4    V     V_3+5 0.170560 0.010930 0.999930 1.442002
O20   O     O_3   0.895590 0.941310 0.999960 -0.358261
I1    I     I_    0.972385 0.619521 0.756852 -0.474697
I2    I     I_    0.990072 0.898066 0.756127 -0.431349

loop_
_geom_bond_atom_site_label_1
_geom_bond_atom_site_label_2
_ccdc_geom_bond_type
O14   C32   A    
V4    O20   S    
C4    C6    S    
C15   C16   A    
C1    O6    A    
C27   C28   A    
C29   H16   S    
C11   H4    S    
C5    C12   S    
O15   V3    S    
C16   H9    S    
C7    C8    A    
O5    C3    A    
C17   H10   S    
V3    O20   S    
V2    O10   S    
C13   C18   A    
O12   C31   A    
C6    C7    A    
C19   C20   A    
C28   H15   S    
O8    V2    S    
C7    H1    S    
C25   C26   A    
C9    C10   A    
C13   C14   A    
O18   V4    S    
O17   V4    S    
O15   C33   A    
O7    V1    S    
O11   V4    S    
C2    C30   S    
O9    C4    A    
C9    C33   S    
C22   C23   A    
C5    C6    A    
C28   C29   A    
C8    C9    A    
C23   C24   A    
C5    C10   A    
C31   O16   A    
C26   H14   S    
C10   C11   S    
O19   V4    S    
C11   C12   S    
O16   V4    S    
C25   C30   A    
O17   V3    S    
C26   C27   A    
O2    C1    A    
C21   C22   A    
C19   I1    S    
C27   C31   S    
C13   H7    S    
C21   C32   S    
C14   H8    S    
C3    C15   S    
O3    C4    A    
O1    V2    S    
O13   C34   A    
C12   H6    S    
O6    V2    S    
O9    V2    S    
C20   C21   A    
O2    V1    S    
C22   H11   S    
O4    C2    A    
C1    C24   S    
C23   H12   S    
C18   C34   S    
O1    C2    A    
O5    V1    S    
O8    C3    A    
C11   H3    S    
O14   V3    S    
C20   I2    S    
C16   C17   A    
O7    V2    S    
O4    V1    S    
O3    V1    S    
V1    O10   S    
O11   C32   A    
C17   C18   A    
O13   V3    S    
C14   C15   A    
C19   C24   A    
C29   C30   A    
O18   C33   A    
O19   C34   A    
O12   V3    S    
C12   H5    S    
C25   H13   S    
C8    H2    S    
