data_mof_unit_60376.cif
_audit_creation_date              2012-12-10T18:02:36-0500
_audit_creation_method            fapswitch 2.2
_symmetry_space_group_name_H-M    P1
_symmetry_Int_Tables_number       1
_space_group_crystal_system       triclinic
_cell_length_a                    21.745115
_cell_length_b                    21.744991
_cell_length_c                    55.817534
_cell_angle_alpha                 90.158815
_cell_angle_beta                  89.759665
_cell_angle_gamma                 90.076407
_cell_volume                      26392.8152728

loop_
_atom_site_label
_atom_site_type_symbol
_atom_type_description
_atom_site_fract_x
_atom_site_fract_y
_atom_site_fract_z
_atom_type_partial_charge
C1    C     C_R   0.499889 0.381149 0.499837 0.799924
C2    C     C_R   0.618701 0.500089 0.499827 0.800611
C3    C     C_R   0.499756 0.618740 0.499895 0.797999
C4    C     C_R   0.381255 0.500010 0.499908 0.799271
C5    C     C_R   0.000016 0.881255 0.999840 0.799018
C6    C     C_R   0.118848 0.999882 0.999824 0.799969
C7    C     C_R   0.999878 0.118708 0.999897 0.800936
C8    C     C_R   0.881261 0.999999 0.999909 0.798002
C9    C     C_R   0.218777 0.461928 0.514041 0.121009
C10   C     C_R   0.528247 0.218741 0.517142 0.112229
C11   C     C_R   0.780627 0.457950 0.512104 0.128593
C12   C     C_R   0.538379 0.781120 0.513828 0.124558
C13   C     C_R   0.718801 0.961462 0.013847 0.121285
C14   C     C_R   0.038332 0.719153 0.013869 0.120905
C15   C     C_R   0.281263 0.028415 0.017131 0.112455
C16   C     C_R   0.041196 0.281010 0.012544 0.128233
C17   C     C_3   0.214050 0.413083 0.532595 -0.461014
C18   C     C_3   0.562576 0.214193 0.540067 -0.474719
C19   C     C_3   0.784720 0.404022 0.528392 -0.456908
C20   C     C_3   0.587647 0.785726 0.532187 -0.466923
C21   C     C_3   0.714089 0.911991 0.032149 -0.460314
C22   C     C_3   0.086706 0.714914 0.032583 -0.462173
C23   C     C_3   0.285813 0.063372 0.040006 -0.474623
C24   C     C_3   0.094725 0.285581 0.028997 -0.457257
C25   C     C_3   0.284945 0.414101 0.533018 -0.467415
C26   C     C_3   0.561411 0.285076 0.540427 -0.452594
C27   C     C_3   0.713827 0.404754 0.528697 -0.488559
C28   C     C_3   0.586576 0.714829 0.532608 -0.465765
C29   C     C_3   0.784985 0.912996 0.032573 -0.467444
C30   C     C_3   0.085710 0.785815 0.032972 -0.466954
C31   C     C_3   0.214926 0.062293 0.040347 -0.452741
C32   C     C_3   0.093953 0.214691 0.029341 -0.487074
C33   C     C_R   0.499382 0.000106 0.623080 0.347829
C34   C     C_R   0.000386 0.500424 0.623082 0.347689
C35   C     C_R   0.999396 0.499912 0.123083 0.347803
C36   C     C_R   0.500075 0.000526 0.123087 0.347603
C37   C     C_R   0.553849 0.988229 0.610345 -0.104141
C38   C     C_R   0.011915 0.554850 0.610392 -0.103496
C39   C     C_R   0.445057 0.011925 0.610445 -0.104104
C40   C     C_R   0.988692 0.445895 0.610403 -0.104294
C41   C     C_R   0.053904 0.488266 0.110342 -0.104251
C42   C     C_R   0.510971 0.055074 0.110393 -0.103897
C43   C     C_R   0.945018 0.511526 0.110453 -0.103659
C44   C     C_R   0.489056 0.945852 0.110410 -0.104843
C45   C     C_R   0.999853 0.499563 0.376626 0.347201
C46   C     C_R   0.500727 0.000397 0.376630 0.347044
C47   C     C_R   0.499807 0.999566 0.876624 0.347212
C48   C     C_R   0.000763 0.500282 0.876626 0.347191
C49   C     C_R   0.989198 0.554398 0.414376 -0.217929
C50   C     C_R   0.445833 0.989014 0.414343 -0.218618
C51   C     C_R   0.010603 0.445038 0.414292 -0.213112
C52   C     C_R   0.555078 0.011280 0.414334 -0.213590
C53   C     C_R   0.489361 0.054435 0.914375 -0.215764
C54   C     C_R   0.945777 0.489310 0.914338 -0.218062
C55   C     C_R   0.510363 0.944997 0.914289 -0.216159
C56   C     C_R   0.055164 0.510863 0.914331 -0.213098
C57   C     C_R   0.999993 0.499927 0.453585 0.796650
C58   C     C_R   0.500112 0.000009 0.453586 0.794763
C59   C     C_R   0.499981 0.999926 0.953585 0.795072
C60   C     C_R   0.000113 0.499998 0.953585 0.796528
C61   C     C_R   0.118719 0.500070 0.499851 0.803415
C62   C     C_R   0.500017 0.118613 0.499891 0.802157
C63   C     C_R   0.881240 0.500040 0.499781 0.804661
C64   C     C_R   0.499907 0.881277 0.499837 0.804013
C65   C     C_R   0.618725 0.000071 0.999846 0.803760
C66   C     C_R   0.000002 0.618718 0.999822 0.803212
C67   C     C_R   0.381385 0.999947 0.999883 0.802460
C68   C     C_R   0.999891 0.381245 0.999811 0.804850
C69   C     C_R   0.000008 0.500069 0.546131 0.795783
C70   C     C_R   0.499893 0.000017 0.546130 0.794079
C71   C     C_R   0.499959 0.000076 0.046132 0.794184
C72   C     C_R   0.999893 0.499987 0.046131 0.795694
C73   C     C_R   0.499682 0.000026 0.572602 -0.040186
C74   C     C_R   0.000090 0.500212 0.572605 -0.039945
C75   C     C_R   0.999682 0.499927 0.072605 -0.039728
C76   C     C_R   0.499933 0.000250 0.072607 -0.041900
C77   C     C_R   0.958110 0.460843 0.262622 0.041460
C78   C     C_R   0.540046 0.959812 0.262465 0.041512
C79   C     C_R   0.041052 0.538533 0.262561 0.041560
C80   C     C_R   0.461634 0.041861 0.262723 0.041520
C81   C     C_R   0.457924 0.961095 0.762614 0.041500
C82   C     C_R   0.039815 0.459307 0.762468 0.041487
C83   C     C_R   0.541154 0.038476 0.762563 0.041557
C84   C     C_R   0.962169 0.542084 0.762713 0.041524
C85   C     C_R   0.999630 0.499647 0.275195 0.068635
C86   C     C_R   0.500870 0.000823 0.275197 0.068636
C87   C     C_R   0.499590 0.999731 0.775192 0.068631
C88   C     C_R   0.001007 0.500680 0.775194 0.068634
C89   C     C_R   0.915499 0.425695 0.276105 -0.203988
C90   C     C_R   0.575536 0.917518 0.275782 -0.204116
C91   C     C_R   0.083790 0.573570 0.275962 -0.204210
C92   C     C_R   0.426243 0.084157 0.276287 -0.204157
C93   C     C_R   0.415186 0.926090 0.776093 -0.204019
C94   C     C_R   0.074913 0.416702 0.775794 -0.204091
C95   C     C_R   0.584023 0.073341 0.775969 -0.204165
C96   C     C_R   0.927137 0.584689 0.776272 -0.204123
C97   C     C_R   0.915264 0.426924 0.301007 -0.145673
C98   C     C_R   0.574260 0.917117 0.300683 -0.145894
C99   C     C_R   0.084212 0.572190 0.300858 -0.146164
C100  C     C_R   0.427603 0.084474 0.301183 -0.146006
C101  C     C_R   0.414957 0.927295 0.800995 -0.145909
C102  C     C_R   0.073616 0.416324 0.800695 -0.145790
C103  C     C_R   0.584442 0.071934 0.800864 -0.146073
C104  C     C_R   0.928457 0.584980 0.801168 -0.146029
C105  C     C_R   0.957440 0.463134 0.313538 -0.020539
C106  C     C_R   0.537671 0.958814 0.313377 -0.020313
C107  C     C_R   0.042108 0.535930 0.313462 -0.020091
C108  C     C_R   0.464187 0.042692 0.313627 -0.020180
C109  C     C_R   0.457268 0.963336 0.813531 -0.020231
C110  C     C_R   0.037389 0.458348 0.813381 -0.020440
C111  C     C_R   0.542205 0.035818 0.813464 -0.020175
C112  C     C_R   0.964649 0.542871 0.813618 -0.020227
C113  C     C_R   0.999728 0.499568 0.300711 -0.043974
C114  C     C_R   0.500915 0.000781 0.300713 -0.044003
C115  C     C_R   0.499689 0.999626 0.800708 -0.044002
C116  C     C_R   0.001020 0.500637 0.800710 -0.043979
C117  C     C_R   0.554102 0.988456 0.585325 -0.222482
C118  C     C_R   0.011500 0.554848 0.585371 -0.214584
C119  C     C_R   0.445102 0.011620 0.585420 -0.216673
C120  C     C_R   0.988812 0.445687 0.585381 -0.222776
C121  C     C_R   0.054150 0.488539 0.085323 -0.222692
C122  C     C_R   0.510627 0.055037 0.085372 -0.218107
C123  C     C_R   0.945057 0.511267 0.085429 -0.214825
C124  C     C_R   0.489254 0.945616 0.085389 -0.220753
C125  C     C_R   0.957890 0.464173 0.338733 0.533080
C126  C     C_R   0.536561 0.959082 0.338574 0.532830
C127  C     C_R   0.041798 0.534805 0.338654 0.532701
C128  C     C_R   0.465269 0.042242 0.338818 0.532808
C129  C     C_R   0.457722 0.964351 0.838727 0.532967
C130  C     C_R   0.036263 0.458637 0.838578 0.532907
C131  C     C_R   0.541891 0.034672 0.838656 0.532863
C132  C     C_R   0.965690 0.542408 0.838809 0.532787
C133  C     C_R   0.459954 0.959037 0.737130 0.041525
C134  C     C_R   0.041926 0.461461 0.736992 0.041588
C135  C     C_R   0.538913 0.040771 0.737098 0.041631
C136  C     C_R   0.959930 0.539931 0.737241 0.041581
C137  C     C_R   0.960151 0.458766 0.237138 0.041526
C138  C     C_R   0.542121 0.962001 0.236989 0.041578
C139  C     C_R   0.038804 0.540795 0.237096 0.041621
C140  C     C_R   0.459367 0.039668 0.237252 0.041619
C141  C     C_R   0.499390 0.999956 0.724511 0.068546
C142  C     C_R   0.000885 0.500684 0.724513 0.068560
C143  C     C_R   0.999433 0.499821 0.224514 0.068548
C144  C     C_R   0.500685 0.000819 0.224517 0.068556
C145  C     C_R   0.988893 0.554191 0.389356 -0.102850
C146  C     C_R   0.446121 0.988893 0.389322 -0.103301
C147  C     C_R   0.010829 0.445031 0.389267 -0.102811
C148  C     C_R   0.555159 0.011712 0.389311 -0.102712
C149  C     C_R   0.489048 0.054232 0.889356 -0.103243
C150  C     C_R   0.946075 0.489161 0.889317 -0.103035
C151  C     C_R   0.510580 0.944992 0.889264 -0.103139
C152  C     C_R   0.055262 0.511249 0.889308 -0.102687
C153  C     C_R   0.574598 0.082969 0.723651 -0.204282
C154  C     C_R   0.917639 0.575416 0.723924 -0.204179
C155  C     C_R   0.424144 0.916979 0.723692 -0.204069
C156  C     C_R   0.084139 0.425967 0.723425 -0.204165
C157  C     C_R   0.074331 0.583114 0.223644 -0.204291
C158  C     C_R   0.416699 0.074719 0.223943 -0.204263
C159  C     C_R   0.924500 0.416561 0.223706 -0.204074
C160  C     C_R   0.584680 0.926938 0.223417 -0.204159
C161  C     C_R   0.573224 0.083412 0.698756 -0.146747
C162  C     C_R   0.917195 0.574076 0.699025 -0.146358
C163  C     C_R   0.425369 0.916724 0.698790 -0.146180
C164  C     C_R   0.084390 0.427237 0.698527 -0.146532
C165  C     C_R   0.072954 0.583530 0.198749 -0.146707
C166  C     C_R   0.416225 0.073358 0.199044 -0.146621
C167  C     C_R   0.925725 0.416289 0.198803 -0.146199
C168  C     C_R   0.584899 0.928217 0.198518 -0.146422
C169  C     C_R   0.536325 0.041866 0.686197 -0.019791
C170  C     C_R   0.958838 0.537418 0.686333 -0.020169
C171  C     C_R   0.462230 0.958331 0.686213 -0.020398
C172  C     C_R   0.042629 0.463835 0.686083 -0.019967
C173  C     C_R   0.036208 0.541837 0.186196 -0.019870
C174  C     C_R   0.458216 0.037115 0.186345 -0.019790
C175  C     C_R   0.962429 0.458024 0.186222 -0.020372
C176  C     C_R   0.542755 0.964390 0.186082 -0.020082
C177  C     C_R   0.499311 0.000054 0.698994 -0.044040
C178  C     C_R   0.000787 0.500649 0.698997 -0.044051
C179  C     C_R   0.999353 0.499896 0.198998 -0.044048
C180  C     C_R   0.500555 0.000778 0.199002 -0.044104
C181  C     C_R   0.463289 0.958751 0.661017 0.532556
C182  C     C_R   0.042141 0.464860 0.660891 0.532382
C183  C     C_R   0.535210 0.041558 0.661005 0.531889
C184  C     C_R   0.959081 0.536269 0.661138 0.532339
C185  C     C_R   0.963481 0.458431 0.161025 0.532451
C186  C     C_R   0.542234 0.965413 0.160890 0.532610
C187  C     C_R   0.035089 0.541508 0.161004 0.532100
C188  C     C_R   0.458434 0.035954 0.161149 0.532058
C189  C     C_R   0.999933 0.499777 0.427108 -0.038141
C190  C     C_R   0.500356 0.000082 0.427111 -0.038545
C191  C     C_R   0.499902 0.999775 0.927106 -0.039481
C192  C     C_R   0.000365 0.500042 0.927108 -0.038111
C193  C     C_R   0.280777 0.463237 0.514584 0.121084
C194  C     C_R   0.526807 0.280744 0.517507 0.125630
C195  C     C_R   0.718625 0.459015 0.512609 0.126816
C196  C     C_R   0.537027 0.719121 0.514373 0.120382
C197  C     C_R   0.780800 0.962751 0.014395 0.119865
C198  C     C_R   0.037050 0.781154 0.014375 0.121419
C199  C     C_R   0.219259 0.027058 0.017478 0.125670
C200  C     C_R   0.040075 0.219012 0.013086 0.126467
C201  C     C_R   0.315051 0.501348 0.499811 -0.085940
C202  C     C_R   0.499051 0.314726 0.499557 -0.100331
C203  C     C_R   0.684827 0.501156 0.499594 -0.083948
C204  C     C_R   0.498501 0.684939 0.499773 -0.085790
C205  C     C_R   0.815068 0.001341 0.999814 -0.085302
C206  C     C_R   0.998965 0.815042 0.999605 -0.088769
C207  C     C_R   0.185264 0.998987 0.999530 -0.100151
C208  C     C_R   0.998553 0.184840 0.999805 -0.082513
C209  C     C_R   0.282697 0.540891 0.484328 -0.203612
C210  C     C_R   0.470366 0.281765 0.480807 -0.200727
C211  C     C_R   0.717557 0.544802 0.485905 -0.209777
C212  C     C_R   0.458635 0.717376 0.484450 -0.203158
C213  C     C_R   0.782724 0.041380 0.984524 -0.203967
C214  C     C_R   0.959567 0.782286 0.984097 -0.207584
C215  C     C_R   0.218205 0.969854 0.980805 -0.200799
C216  C     C_R   0.955448 0.217199 0.985870 -0.204632
C217  C     C_R   0.217839 0.541294 0.484464 -0.200599
C218  C     C_R   0.469934 0.216912 0.480927 -0.205784
C219  C     C_R   0.782420 0.545141 0.486077 -0.198940
C220  C     C_R   0.458297 0.782237 0.484589 -0.200297
C221  C     C_R   0.717866 0.041779 0.984661 -0.200412
C222  C     C_R   0.959142 0.717422 0.984265 -0.201586
C223  C     C_R   0.283064 0.969350 0.980941 -0.205785
C224  C     C_R   0.955114 0.282060 0.986012 -0.198379
C225  C     C_R   0.184966 0.500617 0.499472 -0.088880
C226  C     C_R   0.499839 0.184639 0.499374 -0.078595
C227  C     C_R   0.814920 0.500550 0.499322 -0.093051
C228  C     C_R   0.499349 0.815025 0.499434 -0.087615
C229  C     C_R   0.684983 0.000623 0.999471 -0.089400
C230  C     C_R   0.999643 0.684952 0.999336 -0.088866
C231  C     C_R   0.315355 0.999621 0.999381 -0.078787
C232  C     C_R   0.999220 0.314928 0.999462 -0.092575
Cu1   Cu    Cu3+1 0.500000 0.500000 0.523790 0.954398
Cu2   Cu    Cu3+1 0.000000 1.000000 0.023790 0.954155
Cu3   Cu    Cu3+1 0.500000 0.500000 0.476000 0.965183
Cu4   Cu    Cu3+1 1.000000 1.000000 0.976000 0.965060
Cu5   Cu    Cu3+1 0.000100 0.561790 0.499860 0.956327
Cu6   Cu    Cu3+1 0.438210 0.000100 0.499860 0.957586
Cu7   Cu    Cu3+1 0.999900 0.438210 0.499860 0.951819
Cu8   Cu    Cu3+1 0.561790 0.999900 0.499860 0.953632
Cu9   Cu    Cu3+1 0.500100 0.061790 0.999860 0.955675
Cu10  Cu    Cu3+1 0.938210 0.500100 0.999860 0.956251
Cu11  Cu    Cu3+1 0.499900 0.938210 0.999860 0.954127
Cu12  Cu    Cu3+1 0.061790 0.499900 0.999860 0.951860
H1    H     H_    0.601499 0.116670 0.689368 0.186286
H2    H     H_    0.883842 0.602168 0.689739 0.186535
H3    H     H_    0.397029 0.883544 0.689409 0.186697
H4    H     H_    0.117673 0.399122 0.689044 0.186361
H5    H     H_    0.101103 0.616887 0.189356 0.186307
H6    H     H_    0.382575 0.101106 0.189764 0.186317
H7    H     H_    0.897510 0.382995 0.189427 0.186706
H8    H     H_    0.618459 0.900444 0.189031 0.186427
H9    H     H_    0.306312 0.371413 0.525834 0.197042
H10   H     H_    0.607473 0.306346 0.538034 0.191248
H11   H     H_    0.693717 0.416700 0.546445 0.210112
H12   H     H_    0.569688 0.695378 0.549817 0.212525
H13   H     H_    0.806354 0.870556 0.025168 0.196702
H14   H     H_    0.128583 0.807144 0.025924 0.197388
H15   H     H_    0.193846 0.108314 0.037876 0.191006
H16   H     H_    0.081584 0.194933 0.047064 0.210795
H17   H     H_    0.596798 0.979075 0.575961 0.161588
H18   H     H_    0.020616 0.597510 0.576038 0.163562
H19   H     H_    0.402526 0.020962 0.576128 0.163216
H20   H     H_    0.979590 0.402942 0.576059 0.161273
H21   H     H_    0.096883 0.479351 0.075956 0.161288
H22   H     H_    0.519243 0.097801 0.076040 0.163539
H23   H     H_    0.902439 0.520452 0.076141 0.163218
H24   H     H_    0.480598 0.902746 0.076072 0.163178
H25   H     H_    0.880562 0.397501 0.267979 0.141182
H26   H     H_    0.604027 0.882937 0.267521 0.141091
H27   H     H_    0.118685 0.601790 0.267770 0.140992
H28   H     H_    0.397747 0.118782 0.268224 0.141074
H29   H     H_    0.380144 0.898033 0.767964 0.141116
H30   H     H_    0.103107 0.381867 0.767540 0.141105
H31   H     H_    0.619021 0.101439 0.767779 0.141008
H32   H     H_    0.898961 0.619571 0.768206 0.141092
H33   H     H_    0.881650 0.399101 0.310423 0.186927
H34   H     H_    0.602343 0.883753 0.309970 0.186761
H35   H     H_    0.117903 0.599949 0.310210 0.186545
H36   H     H_    0.399560 0.117814 0.310665 0.186656
H37   H     H_    0.381242 0.899587 0.810408 0.186694
H38   H     H_    0.101395 0.382715 0.809987 0.186873
H39   H     H_    0.618236 0.099559 0.810220 0.186586
H40   H     H_    0.900698 0.618566 0.810645 0.186675
H41   H     H_    0.596036 0.978639 0.619863 0.147972
H42   H     H_    0.021392 0.597199 0.619945 0.148605
H43   H     H_    0.402759 0.021544 0.620043 0.148358
H44   H     H_    0.979328 0.403625 0.619965 0.147853
H45   H     H_    0.096133 0.478833 0.119856 0.147789
H46   H     H_    0.519921 0.097543 0.119942 0.148677
H47   H     H_    0.902685 0.520962 0.120055 0.148398
H48   H     H_    0.480182 0.903482 0.119975 0.148289
H49   H     H_    0.979963 0.596546 0.379834 0.148143
H50   H     H_    0.403844 0.979688 0.379769 0.148175
H51   H     H_    0.019736 0.402599 0.379673 0.148503
H52   H     H_    0.597572 0.021043 0.379750 0.148815
H53   H     H_    0.480276 0.096622 0.879834 0.148493
H54   H     H_    0.903743 0.480233 0.879762 0.148047
H55   H     H_    0.519328 0.902528 0.879669 0.148485
H56   H     H_    0.097740 0.520279 0.879747 0.148568
H57   H     H_    0.980555 0.597231 0.423734 0.161935
H58   H     H_    0.403021 0.979963 0.423672 0.161998
H59   H     H_    0.019271 0.402291 0.423584 0.163151
H60   H     H_    0.597744 0.020231 0.423659 0.163378
H61   H     H_    0.480884 0.097301 0.923732 0.163440
H62   H     H_    0.902899 0.480558 0.923664 0.161843
H63   H     H_    0.518872 0.902216 0.923580 0.163157
H64   H     H_    0.097887 0.519540 0.923655 0.163169
H65   H     H_    0.603351 0.117426 0.731807 0.140935
H66   H     H_    0.883097 0.603961 0.732184 0.141014
H67   H     H_    0.395412 0.882483 0.731854 0.141087
H68   H     H_    0.118746 0.397449 0.731484 0.141009
H69   H     H_    0.102955 0.617686 0.231796 0.140933
H70   H     H_    0.381885 0.102917 0.232213 0.140960
H71   H     H_    0.895899 0.381964 0.231872 0.141113
H72   H     H_    0.619584 0.898776 0.231472 0.141033
H73   H     H_    0.307323 0.571761 0.472477 0.154328
H74   H     H_    0.447661 0.305858 0.466381 0.165821
H75   H     H_    0.693218 0.578837 0.475464 0.154224
H76   H     H_    0.427460 0.692814 0.472732 0.153523
H77   H     H_    0.807359 0.072625 0.972826 0.153715
H78   H     H_    0.928734 0.806597 0.972243 0.158324
H79   H     H_    0.194088 0.946878 0.966386 0.165648
H80   H     H_    0.921893 0.192571 0.975218 0.150736
H81   H     H_    0.193627 0.572391 0.472681 0.159346
H82   H     H_    0.447099 0.192221 0.466612 0.154548
H83   H     H_    0.806913 0.579388 0.475689 0.160219
H84   H     H_    0.426934 0.806518 0.472939 0.156888
H85   H     H_    0.693662 0.073254 0.973028 0.159621
H86   H     H_    0.928085 0.692888 0.972492 0.160063
H87   H     H_    0.307747 0.946216 0.966637 0.154534
H88   H     H_    0.921339 0.306263 0.975407 0.159221
H89   H     H_    0.192517 0.430174 0.549435 0.203083
H90   H     H_    0.534541 0.192872 0.554533 0.202584
H91   H     H_    0.804524 0.362983 0.519312 0.207954
H92   H     H_    0.630943 0.805248 0.524753 0.208161
H93   H     H_    0.692561 0.928510 0.049077 0.203317
H94   H     H_    0.069180 0.693707 0.049379 0.202459
H95   H     H_    0.306952 0.035716 0.054519 0.202655
H96   H     H_    0.135994 0.305268 0.020032 0.207813
H97   H     H_    0.194520 0.369639 0.525332 0.208698
H98   H     H_    0.609328 0.194580 0.537514 0.209313
H99   H     H_    0.805636 0.416165 0.545920 0.198271
H100  H     H_    0.570957 0.807207 0.549095 0.200059
H101  H     H_    0.694562 0.868792 0.024667 0.208417
H102  H     H_    0.130315 0.695318 0.025471 0.208894
H103  H     H_    0.305613 0.110034 0.037389 0.209301
H104  H     H_    0.082170 0.306867 0.046472 0.198737
H105  H     H_    0.304341 0.431361 0.550161 0.212080
H106  H     H_    0.533007 0.304599 0.555192 0.209874
H107  H     H_    0.692901 0.364468 0.519529 0.191259
H108  H     H_    0.629078 0.693448 0.525250 0.196627
H109  H     H_    0.804388 0.929677 0.049800 0.212734
H110  H     H_    0.068015 0.805515 0.050050 0.211313
H111  H     H_    0.195207 0.034317 0.055146 0.209964
H112  H     H_    0.134450 0.193672 0.020309 0.190608
N1    N     N_R   0.499260 0.000162 0.648901 -0.464739
N2    N     N_R   0.000545 0.500526 0.648904 -0.464692
N3    N     N_R   0.999291 0.499970 0.148904 -0.464741
N4    N     N_R   0.500252 0.000639 0.148909 -0.464536
N5    N     N_R   0.999862 0.499487 0.350804 -0.464825
N6    N     N_R   0.500884 0.000598 0.350807 -0.464755
N7    N     N_R   0.499824 0.999500 0.850802 -0.464704
N8    N     N_R   0.000933 0.500462 0.850804 -0.464832
O1    O     O_R   0.500120 0.409780 0.520070 -0.588089
O2    O     O_R   0.590220 0.500120 0.520070 -0.586647
O3    O     O_R   0.499880 0.590220 0.520070 -0.582560
O4    O     O_R   0.409780 0.499880 0.520070 -0.583268
O5    O     O_R   0.000120 0.909780 0.020070 -0.586110
O6    O     O_R   0.090220 0.000120 0.020070 -0.588079
O7    O     O_R   0.999880 0.090220 0.020070 -0.583843
O8    O     O_R   0.909780 0.999880 0.020070 -0.582688
O9    O     O_R   0.500100 0.409850 0.479710 -0.584501
O10   O     O_R   0.590150 0.500100 0.479710 -0.580612
O11   O     O_R   0.499900 0.590150 0.479710 -0.587659
O12   O     O_R   0.409850 0.499900 0.479710 -0.587644
O13   O     O_R   0.000100 0.909850 0.979710 -0.584641
O14   O     O_R   0.090150 0.000100 0.979710 -0.584371
O15   O     O_R   0.999900 0.090150 0.979710 -0.583845
O16   O     O_R   0.909850 0.999900 0.979710 -0.587634
O17   O     O_2   0.429048 0.917670 0.648735 -0.543847
O18   O     O_2   0.083319 0.430865 0.648484 -0.545635
O19   O     O_2   0.569417 0.082701 0.648717 -0.545983
O20   O     O_2   0.917787 0.570207 0.648975 -0.544432
O21   O     O_2   0.929391 0.417214 0.148748 -0.543869
O22   O     O_2   0.583760 0.931854 0.148479 -0.545407
O23   O     O_2   0.069137 0.582773 0.148711 -0.545841
O24   O     O_2   0.416770 0.069453 0.148993 -0.546042
O25   O     O_R   0.000080 0.552170 0.464990 -0.590712
O26   O     O_R   0.447830 0.000080 0.464990 -0.590435
O27   O     O_R   0.999920 0.447830 0.464990 -0.586085
O28   O     O_R   0.552170 0.999920 0.464990 -0.585958
O29   O     O_R   0.500080 0.052170 0.964990 -0.588251
O30   O     O_R   0.947830 0.500080 0.964990 -0.590687
O31   O     O_R   0.499920 0.947830 0.964990 -0.588342
O32   O     O_R   0.052170 0.499920 0.964990 -0.586109
O33   O     O_R   0.090280 0.552180 0.499860 -0.584350
O34   O     O_R   0.447820 0.090280 0.499860 -0.583303
O35   O     O_R   0.909720 0.447820 0.499860 -0.583290
O36   O     O_R   0.552180 0.909720 0.499860 -0.583158
O37   O     O_R   0.590280 0.052180 0.999860 -0.584461
O38   O     O_R   0.947820 0.590280 0.999860 -0.584986
O39   O     O_R   0.409720 0.947820 0.999860 -0.583402
O40   O     O_R   0.052180 0.409720 0.999860 -0.583474
O41   O     O_R   0.090280 0.447800 0.499890 -0.583597
O42   O     O_R   0.552200 0.090280 0.499890 -0.582519
O43   O     O_R   0.909720 0.552200 0.499890 -0.585943
O44   O     O_R   0.447800 0.909720 0.499890 -0.584416
O45   O     O_R   0.590280 0.947800 0.999890 -0.583590
O46   O     O_R   0.052200 0.590280 0.999890 -0.583352
O47   O     O_R   0.409720 0.052200 0.999890 -0.582351
O48   O     O_R   0.947800 0.409720 0.999890 -0.585223
O49   O     O_R   0.000120 0.552180 0.534730 -0.584824
O50   O     O_R   0.447820 0.000120 0.534730 -0.585291
O51   O     O_R   0.999880 0.447820 0.534730 -0.590615
O52   O     O_R   0.552180 0.999880 0.534730 -0.590350
O53   O     O_R   0.500120 0.052180 0.034730 -0.587696
O54   O     O_R   0.947820 0.500120 0.034730 -0.584828
O55   O     O_R   0.499880 0.947820 0.034730 -0.588425
O56   O     O_R   0.052180 0.499880 0.034730 -0.590618
O57   O     O_2   0.916290 0.430564 0.351059 -0.542857
O58   O     O_2   0.570460 0.917749 0.350737 -0.543588
O59   O     O_2   0.083473 0.568364 0.350898 -0.544484
O60   O     O_2   0.431365 0.083495 0.351220 -0.544333
O61   O     O_2   0.416000 0.930885 0.851048 -0.544296
O62   O     O_2   0.069800 0.417025 0.850750 -0.543096
O63   O     O_2   0.583691 0.068065 0.850903 -0.544318
O64   O     O_2   0.932123 0.583946 0.851206 -0.544130

loop_
_geom_bond_atom_site_label_1
_geom_bond_atom_site_label_2
_ccdc_geom_bond_type
C79   C139  A    
C42   H46   S    
C73   C119  A    
C198  C206  A    
C182  O18   S    
C216  H80   S    
C36   C42   A    
Cu6   O50   S    
C59   O31   A    
Cu2   O7    S    
C17   H89   S    
C25   C193  S    
C19   H91   S    
C77   C89   A    
C150  H54   S    
C170  C178  A    
C82   C94   A    
C130  N8    A    
C11   C195  A    
C128  N6    A    
C126  N6    A    
C9    C193  A    
C195  C203  A    
C173  C179  A    
C193  C201  A    
Cu10  O38   S    
C201  C209  A    
C2    O2    A    
C80   C86   A    
C214  C222  A    
C59   C191  S    
C46   C148  A    
C126  O58   S    
C133  C155  A    
Cu10  Cu12  S    
C196  C204  A    
C30   H110  S    
C87   C115  A    
C50   H58   S    
C97   C105  A    
C206  C214  A    
C156  H68   S    
C67   C231  S    
C200  C208  A    
C214  H78   S    
C3    C204  S    
C12   C196  A    
C90   H26   S    
Cu2   Cu4   S    
C130  O62   S    
C1    C202  S    
C46   N6    S    
C153  H65   S    
C211  H75   S    
Cu6   Cu8   S    
C166  C174  A    
Cu9   O37   S    
C151  H55   S    
C37   H41   S    
C72   O54   A    
C63   C227  S    
C212  C220  A    
C39   H43   S    
C57   C189  S    
C21   C29   S    
C40   H44   S    
C29   H13   S    
C153  C161  A    
C23   C31   S    
C80   C92   A    
C216  C224  A    
C93   C101  A    
C12   C20   S    
C13   C21   S    
C69   C74   S    
C21   H101  S    
Cu7   O27   S    
C23   H95   S    
Cu4   O16   S    
C96   C104  A    
C26   H10   S    
C36   C44   A    
C59   O29   A    
Cu2   O5    S    
C26   C194  S    
C110  C116  A    
C79   C85   A    
C99   C107  A    
C128  O60   S    
C170  C184  A    
C171  C181  A    
C84   C88   A    
C21   H93   S    
C55   C151  A    
C222  H86   S    
C31   H111  S    
C74   C120  A    
C174  C180  A    
C98   C106  A    
C105  C125  A    
C76   C122  A    
C215  H79   S    
C51   H59   S    
C4    C201  S    
C46   C146  A    
C20   H92   S    
C181  O17   S    
C10   C18   S    
C159  C167  A    
C212  H76   S    
C160  C168  A    
C8    C205  S    
C14   C230  A    
C127  N5    A    
C107  C127  A    
Cu11  O39   S    
Cu3   O12   S    
C37   C117  A    
C139  C157  A    
Cu12  O56   S    
Cu6   O34   S    
Cu1   O1    S    
C58   O28   A    
C101  C109  A    
C218  C226  A    
C210  H74   S    
C209  C217  A    
C122  H22   S    
C162  H2    S    
C22   H102  S    
C54   C150  A    
C165  H5    S    
C161  H1    S    
C63   O43   A    
C166  H6    S    
C54   C192  A    
Cu9   O47   S    
C45   C145  A    
Cu10  O48   S    
C66   O38   A    
C184  O20   S    
C81   C93   A    
C172  C178  A    
Cu12  O40   S    
C97   H33   S    
C111  C131  A    
C140  C158  A    
C188  N4    A    
C99   H35   S    
C52   H60   S    
C107  C113  A    
C7    C208  S    
C144  C180  A    
C183  O19   S    
C68   O48   A    
C43   H47   S    
C58   C190  S    
C143  C179  A    
C221  H85   S    
C79   C91   A    
C16   C200  A    
C36   N4    S    
C161  C169  A    
C24   H96   S    
C65   O37   A    
C77   C85   A    
C52   C148  A    
C53   C149  A    
C132  N8    A    
C203  C211  A    
C48   N8    S    
C72   C75   S    
C50   C190  A    
C20   H100  S    
C169  C177  A    
C95   C103  A    
C224  H88   S    
C124  H24   S    
C74   C118  A    
Cu9   O29   S    
C100  C108  A    
C76   C124  A    
C32   H16   S    
C88   C116  A    
C127  O59   S    
C157  C165  A    
C104  C112  A    
C25   H9    S    
Cu8   O52   S    
C155  C163  A    
C108  C128  A    
C181  N1    A    
C53   H61   S    
C25   H105  S    
C138  C160  A    
Cu3   O10   S    
C27   H107  S    
C60   C192  S    
C219  H83   S    
Cu1   O3    S    
C58   O26   A    
C131  O63   S    
C51   C147  A    
C34   N2    S    
C17   H97   S    
C154  H66   S    
C129  O61   S    
C30   C198  S    
C19   H99   S    
C109  C129  A    
C96   H32   S    
C164  C172  A    
Cu9   O53   S    
C5    O13   A    
C112  C116  A    
C38   H42   S    
C167  C175  A    
C7    O7    A    
C168  C176  A    
C173  C187  A    
C22   C30   S    
C15   C231  A    
C30   H14   S    
C154  C162  A    
C2    C203  S    
Cu2   O8    S    
C31   H15   S    
C81   C133  A    
Cu5   O43   S    
C211  C219  A    
C29   C197  S    
C65   C229  S    
C14   C22   S    
C85   C113  A    
C4    O4    A    
C138  C144  A    
C187  O23   S    
C142  C178  A    
C55   H63   S    
C129  N7    A    
C149  H53   S    
C185  O21   S    
C28   C196  S    
C157  H69   S    
Cu6   O44   S    
C35   C41   A    
C186  N4    A    
C135  C141  A    
C222  C230  A    
C11   C227  A    
C171  C177  A    
C9    C225  A    
C64   O36   A    
C91   C99   A    
C182  N2    A    
C68   C232  S    
C217  C225  A    
C83   C87   A    
C56   C192  A    
C48   C150  A    
C197  C205  A    
C18   C26   S    
C18   H90   S    
C187  N3    A    
C31   C199  S    
C184  N2    A    
C78   C90   A    
C11   C19   S    
Cu8   O28   S    
C141  C177  A    
Cu7   O41   S    
C77   C137  A    
C47   N7    S    
C10   C194  A    
C67   O39   A    
C71   C76   S    
C92   H28   S    
C23   H103  S    
C12   C228  A    
C125  N5    A    
C6    O14   A    
Cu5   O25   S    
C194  C202  A    
C95   H31   S    
C220  C228  A    
C103  C111  A    
C108  C114  A    
C183  N1    A    
C136  C142  A    
C5    C206  S    
C213  C221  A    
C134  C156  A    
Cu5   O33   S    
C56   C152  A    
C163  C171  A    
C51   C189  A    
C29   H109  S    
Cu4   O13   S    
C28   H108  S    
C117  H17   S    
C50   C146  A    
C205  C213  A    
C75   C121  A    
C213  H77   S    
Cu2   O6    S    
C223  C231  A    
C72   O56   A    
C168  H8    S    
Cu8   O42   S    
C137  C159  A    
C28   H12   S    
C98   H34   S    
C8    O8    A    
C4    O12   A    
C132  O64   S    
C62   C226  S    
C61   O41   A    
C44   C124  A    
C33   C37   A    
C60   O30   A    
C134  C142  A    
C136  C154  A    
C162  C170  A    
C70   C73   S    
C207  C215  A    
C49   C145  A    
C42   C122  A    
C52   C190  A    
C112  C132  A    
C53   C191  A    
C81   C87   A    
C13   C197  A    
C64   O44   A    
C22   H94   S    
Cu3   O11   S    
C40   C120  A    
C47   C151  A    
Cu10  O30   S    
C185  N3    A    
C89   H25   S    
C102  C110  A    
C27   C195  S    
C159  H71   S    
C217  H81   S    
C158  C166  A    
C105  C113  A    
C84   C136  A    
C63   O35   A    
C131  N7    A    
C140  C144  A    
Cu12  O32   S    
C210  C218  A    
C94   H30   S    
C69   O49   A    
C101  H37   S    
C20   C28   S    
C106  C126  A    
C133  C141  A    
C68   O40   A    
Cu5   O49   S    
C32   C200  S    
C80   C140  A    
C104  H40   S    
C57   O25   A    
C147  H51   S    
C24   H104  S    
C49   H57   S    
C45   N5    S    
C110  C130  A    
C152  H56   S    
Cu10  O54   S    
C160  H72   S    
Cu4   O15   S    
C13   C229  A    
C38   C118  A    
C123  H23   S    
C49   C189  A    
C221  C229  A    
C66   O46   A    
C219  C227  A    
C220  H84   S    
C27   H11   S    
C55   C191  A    
C121  H21   S    
C125  O57   S    
C82   C134  A    
C102  H38   S    
Cu12  O46   S    
Cu7   O35   S    
C24   C32   S    
C1    O9    A    
Cu11  O45   S    
C14   C198  A    
C33   C39   A    
C3    O11   A    
C60   O32   A    
C75   C123  A    
C158  H70   S    
C61   O33   A    
C91   H27   S    
C224  C232  A    
C82   C88   A    
C175  C185  A    
C165  C173  A    
C167  H7    S    
C84   C96   A    
C41   C121  A    
C169  C183  A    
C62   O42   A    
C174  C188  A    
Cu3   O9    S    
C119  H19   S    
C47   C149  A    
C7    O15   A    
C120  H20   S    
C163  H3    S    
Cu1   O2    S    
C218  H82   S    
C71   O53   A    
C83   C135  A    
C5    O5    A    
C78   C86   A    
C15   C23   S    
C137  C143  A    
C208  C216  A    
C100  H36   S    
C204  C212  A    
C139  C143  A    
Cu8   O36   S    
C202  C210  A    
C78   C138  A    
C103  H39   S    
C19   C27   S    
C69   O51   A    
Cu11  O31   S    
C70   O52   A    
C188  O24   S    
C148  H52   S    
C155  H67   S    
Cu6   O26   S    
C73   C117  A    
C106  C114  A    
C56   H64   S    
C57   O27   A    
C175  C179  A    
C93   H29   S    
C16   C232  A    
C61   C225  S    
C89   C97   A    
Cu9   Cu11  S    
C26   H106  S    
C15   C199  A    
C118  H18   S    
C176  C180  A    
C209  H73   S    
C199  C207  A    
C2    O10   A    
C83   C95   A    
Cu1   Cu3   S    
C6    C207  S    
C18   H98   S    
C71   O55   A    
C33   N1    S    
C9    C17   S    
C186  O22   S    
C35   N3    S    
Cu5   Cu7   S    
Cu11  O55   S    
C43   C123  A    
C223  H87   S    
C39   C119  A    
C64   C228  S    
C35   C43   A    
C92   C100  A    
C67   O47   A    
C172  C182  A    
C6    O6    A    
C65   O45   A    
C44   H48   S    
C1    O1    A    
C34   C38   A    
C146  H50   S    
C8    O16   A    
C54   H62   S    
C3    O3    A    
C17   C25   S    
C215  C223  A    
C176  C186  A    
C41   H45   S    
C66   C230  S    
C135  C153  A    
C86   C114  A    
C48   C152  A    
C145  H49   S    
C62   O34   A    
Cu1   O4    S    
C164  H4    S    
C109  C115  A    
C156  C164  A    
C16   C24   S    
C45   C147  A    
C10   C226  A    
Cu7   O51   S    
C34   C40   A    
C111  C115  A    
C90   C98   A    
C32   H112  S    
C94   C102  A    
Cu4   O14   S    
C70   O50   A    
