data_mof_unit_20808.cif
_audit_creation_date              2012-12-10T16:57:08-0500
_audit_creation_method            fapswitch 2.2
_symmetry_space_group_name_H-M    P1
_symmetry_Int_Tables_number       1
_space_group_crystal_system       triclinic
_cell_length_a                    8.008898
_cell_length_b                    8.529319
_cell_length_c                    16.539275
_cell_angle_alpha                 94.273705
_cell_angle_beta                  77.398421
_cell_angle_gamma                 93.200518
_cell_volume                      1098.61391581

loop_
_atom_site_label
_atom_site_type_symbol
_atom_type_description
_atom_site_fract_x
_atom_site_fract_y
_atom_site_fract_z
_atom_type_partial_charge
C1    C     C_R   0.544855 0.793717 0.498125 0.967639
C2    C     C_R   0.468212 0.480317 0.206043 -0.281792
C3    C     C_R   0.586435 0.552762 0.863636 -0.167051
C4    C     C_R   0.490066 0.534028 0.127289 -0.129362
C5    C     C_R   0.476703 0.671065 0.904074 0.099825
C6    C     C_R   0.602772 0.663294 0.103638 0.098302
C7    C     C_R   0.351721 0.720007 0.865793 -0.275739
C8    C     C_R   0.702737 0.730724 0.157306 -0.265588
C9    C     C_R   0.334632 0.652233 0.788544 0.215705
C10   C     C_R   0.686253 0.673690 0.235692 0.212803
C11   C     C_2   0.474990 0.727328 0.990953 0.156700
C12   C     C_R   0.455288 0.206281 0.501528 0.955351
C13   C     C_2   0.618508 0.723544 0.021129 0.144185
C14   C     C_3   0.957379 0.686029 0.276242 -0.727748
C15   C     C_3   0.041574 0.580472 0.791230 -0.776872
C16   C     C_3   0.819757 0.902070 0.937822 -0.810831
C17   C     C_3   0.290589 0.912753 0.081039 -0.810454
C18   C     C_3   0.002930 0.296857 0.453450 -0.125402
C19   C     C_3   0.114635 0.279766 0.365038 -0.333452
C20   C     C_3   0.046452 0.149756 0.310546 -1.002280
C21   C     C_3   0.001004 0.706710 0.537738 -0.126242
C22   C     C_3   0.888270 0.742969 0.624402 -0.318273
C23   C     C_2   0.568250 0.957360 0.497706 -0.381988
C24   C     C_3   0.929649 0.906602 0.661422 -0.983138
C25   C     C_2   0.432335 0.042572 0.501221 -0.389734
C26   C     C_R   0.473144 0.507390 0.655116 0.838598
C27   C     C_R   0.529139 0.504536 0.345826 0.848584
C28   C     C_R   0.456884 0.546162 0.744368 -0.060144
C29   C     C_R   0.564030 0.550490 0.260813 -0.047881
C30   C     C_R   0.581044 0.495710 0.783335 -0.276244
H1    H     H_    0.673935 0.411738 0.751675 0.163640
H2    H     H_    0.034438 0.720840 0.215500 0.232687
H3    H     H_    0.951488 0.555765 0.276556 0.254592
H4    H     H_    0.021696 0.734932 0.326172 0.225146
H5    H     H_    0.157252 0.800906 0.769794 0.215841
H6    H     H_    0.921306 0.642506 0.797058 0.251564
H7    H     H_    0.043544 0.543905 0.854226 0.232861
H8    H     H_    0.040818 0.474056 0.748356 0.250748
H9    H     H_    0.884056 0.708763 0.992491 0.220953
H10   H     H_    0.950189 0.908190 0.897663 0.234917
H11   H     H_    0.813008 0.992979 0.990064 0.238419
H12   H     H_    0.377452 0.383731 0.223961 0.145247
H13   H     H_    0.726722 0.926859 0.899947 0.254030
H14   H     H_    0.208054 0.701512 0.027960 0.217032
H15   H     H_    0.163689 0.921626 0.124135 0.233200
H16   H     H_    0.296059 0.992541 0.030293 0.235129
H17   H     H_    0.391013 0.950704 0.116104 0.256355
H18   H     H_    0.040212 0.035081 0.338973 0.267566
H19   H     H_    0.916791 0.176830 0.303014 0.275805
H20   H     H_    0.133315 0.140674 0.248252 0.262759
H21   H     H_    0.121161 0.391708 0.334149 0.232574
H22   H     H_    0.245666 0.249033 0.367961 0.232653
H23   H     H_    0.260719 0.805443 0.897625 0.145251
H24   H     H_    0.049743 0.241724 0.501758 0.150310
H25   H     H_    0.887714 0.223318 0.452782 0.194839
H26   H     H_    0.066709 0.919943 0.664606 0.270345
H27   H     H_    0.901034 0.998325 0.622635 0.258507
H28   H     H_    0.850202 0.924670 0.725153 0.266336
H29   H     H_    0.751859 0.741988 0.622518 0.246943
H30   H     H_    0.904766 0.652452 0.665874 0.238752
H31   H     H_    0.116548 0.779367 0.535788 0.195889
H32   H     H_    0.957554 0.752327 0.485593 0.155985
H33   H     H_    0.791997 0.828421 0.138795 0.143116
H34   H     H_    0.416916 0.475789 0.085005 0.136227
H35   H     H_    0.676805 0.503713 0.893812 0.152022
H36   H     H_    0.697071 0.006993 0.495193 0.163923
H37   H     H_    0.303658 0.993044 0.503573 0.164130
H38   H     H_    0.789178 0.866633 0.292884 0.215016
N1    N     N_2   0.953500 0.457650 0.478520 -0.059940
N2    N     N_2   0.046500 0.542350 0.521480 -0.060751
N3    N     N_2   0.786936 0.745354 0.290396 -0.299924
N4    N     N_2   0.187079 0.684052 0.759349 -0.280440
N5    N     N_2   0.784870 0.747249 0.969442 -0.329367
N6    N     N_2   0.313935 0.752185 0.047195 -0.318701
O1    O     O_R   0.388470 0.738640 0.505270 -0.633810
O2    O     O_R   0.611530 0.261360 0.494730 -0.631468
O3    O     O_R   0.679650 0.711510 0.491500 -0.636907
O4    O     O_R   0.320350 0.288490 0.508500 -0.646359
O5    O     O_R   0.337210 0.515200 0.623500 -0.573771
O6    O     O_R   0.662790 0.484800 0.376500 -0.585259
O7    O     O_R   0.628380 0.488060 0.609730 -0.635702
O8    O     O_R   0.371620 0.511940 0.390270 -0.632823
Zn1   Zn    Zn3+2 0.305580 0.518120 0.509190 0.925584
Zn2   Zn    Zn3+2 0.694420 0.481880 0.490810 0.920853

loop_
_geom_bond_atom_site_label_1
_geom_bond_atom_site_label_2
_ccdc_geom_bond_type
C27   C29   S    
C1    O3    A    
C14   N3    S    
C19   C20   S    
C25   H37   S    
C9    N4    S    
O6    Zn2   S    
O2    Zn2   S    
C14   H3    S    
C15   N4    S    
C2    C29   A    
C23   H36   S    
C17   H15   S    
C5    C11   S    
C22   H30   S    
C30   H1    S    
C18   C19   S    
C15   H7    S    
C20   H20   S    
C19   H22   S    
C24   H27   S    
C12   O4    A    
C21   H31   S    
C10   N3    S    
C18   N1    S    
H9    N5    S    
C21   C22   S    
C3    H35   S    
O4    Zn1   S    
C16   N5    S    
C1    O1    A    
C17   H16   S    
C4    C6    A    
C27   O6    A    
C22   H29   S    
C5    C7    A    
C6    C8    A    
O3    Zn2   S    
C3    C30   A    
C2    C4    A    
C15   H8    S    
C20   H19   S    
H14   N6    S    
N2    Zn1   S    
C16   H13   S    
C21   H32   S    
C20   H18   S    
C18   H25   S    
C16   H10   S    
C24   H28   S    
C13   N5    S    
H5    N4    S    
C1    C23   S    
C26   O7    A    
C12   O2    A    
C17   N6    S    
C22   C24   S    
C7    H23   S    
C12   C25   S    
C15   H6    S    
O7    Zn2   S    
C7    C9    A    
C27   O8    A    
C17   H17   S    
C14   H2    S    
C3    C5    A    
C11   N6    S    
C14   H4    S    
C24   H26   S    
C4    H34   S    
C26   C28   S    
C26   O5    A    
C21   N2    S    
C28   C30   A    
N1    Zn2   S    
C6    C13   S    
O5    Zn1   S    
C11   C13   D    
C10   C29   A    
O1    Zn1   S    
C2    H12   S    
H38   N3    S    
C23   C25   D    
N1    N2    D    
C18   H24   S    
C8    H33   S    
C19   H21   S    
C8    C10   A    
O8    Zn1   S    
C16   H11   S    
C9    C28   A    
