data_mof_unit_23073.cif
_audit_creation_date              2012-12-11T16:35:20-0500
_audit_creation_method            fapswitch 2.2
_symmetry_space_group_name_H-M    P1
_symmetry_Int_Tables_number       1
_space_group_crystal_system       triclinic
_cell_length_a                    6.927061
_cell_length_b                    17.657043
_cell_length_c                    19.554324
_cell_angle_alpha                 109.047378
_cell_angle_beta                  90.101388
_cell_angle_gamma                 90.511866
_cell_volume                      2260.65022516

loop_
_atom_site_label
_atom_site_type_symbol
_atom_type_description
_atom_site_fract_x
_atom_site_fract_y
_atom_site_fract_z
_atom_type_partial_charge
O1    O     O_R   0.505700 0.440210 0.561730 -0.519527
O2    O     O_R   0.169350 0.406300 0.412660 -0.547246
O3    O     O_R   0.005650 0.559790 0.438270 -0.556025
C1    C     C_R   0.338440 0.383088 0.384944 0.660404
O4    O     O_R   0.175560 0.430650 0.559600 -0.532223
O5    O     O_R   0.011900 0.584320 0.586250 -0.525399
C2    C     C_R   0.344433 0.414169 0.579951 0.724469
O6    O     O_R   0.499450 0.415680 0.413750 -0.549200
O7    O     O_3   0.341370 0.550390 0.508570 -0.362669
V1    V     V_3+5 0.063940 0.490650 0.498410 1.492527
O8    O     O_R   0.682570 0.593700 0.587340 -0.502335
C3    C     C_R   0.852058 0.618167 0.614366 0.911137
O9    O     O_R   0.676370 0.569350 0.440400 -0.518238
C4    C     C_R   0.844294 0.579972 0.415272 0.758259
V2    V     V_3+5 0.564750 0.509350 0.501590 1.538286
O10   O     O_3   0.837190 0.449610 0.491430 -0.368368
C5    C     C_R   0.029161 0.721877 0.319781 -0.121874
H1    H     H_    0.153864 0.760701 0.324604 0.136280
C6    C     C_R   0.015485 0.675978 0.365925 -0.161871
H2    H     H_    0.130819 0.680524 0.404589 0.152226
C7    C     C_R   0.853608 0.626570 0.363908 -0.031791
C8    C     C_R   0.705440 0.622302 0.312296 0.160668
C9    C     C_R   0.721886 0.668623 0.265966 -0.138268
H3    H     H_    0.609782 0.664270 0.226137 0.099257
C10   C     C_R   0.882014 0.719335 0.269521 0.045854
C11   C     C_R   0.727732 0.804216 0.203061 -0.078517
H4    H     H_    0.588688 0.796397 0.225184 0.107801
C12   C     C_R   0.738435 0.850906 0.157442 -0.110600
H5    H     H_    0.606980 0.876824 0.145289 0.120118
C13   C     C_R   0.916369 0.864856 0.128826 -0.047020
C14   C     C_R   0.083299 0.830530 0.146959 -0.134795
H6    H     H_    0.222789 0.839654 0.125818 0.115750
C15   C     C_R   0.072390 0.783382 0.192280 -0.126435
H7    H     H_    0.203410 0.756832 0.203939 0.093562
C16   C     C_R   0.894396 0.769540 0.221033 0.104105
H8    H     H_    0.726225 0.643858 0.939297 0.131438
C17   C     C_R   0.027418 0.900605 0.749915 -0.154840
C18   C     C_R   0.052928 0.916294 0.685510 -0.184062
C19   C     C_R   0.989327 0.861086 0.621244 -0.085611
C20   C     C_R   0.909811 0.787702 0.620131 0.332406
C21   C     C_R   0.907248 0.765201 0.684026 -0.008722
C22   C     C_R   0.950258 0.826384 0.750691 0.043250
C23   C     C_R   0.861988 0.685772 0.684109 -0.181060
C24   C     C_R   0.835784 0.671513 0.751877 -0.009574
C25   C     C_R   0.848011 0.737939 0.817694 0.040109
C26   C     C_R   0.908566 0.814309 0.816925 -0.137620
C27   C     C_R   0.795972 0.593970 0.758058 0.341604
C28   C     C_R   0.754844 0.585749 0.825228 -0.110850
C29   C     C_R   0.757410 0.651412 0.887654 -0.197451
C30   C     C_R   0.806139 0.726363 0.884409 -0.139261
H9    H     H_    0.068666 0.947507 0.799065 0.115127
H10   H     H_    0.112072 0.973440 0.685982 0.140705
H11   H     H_    0.993525 0.877150 0.572321 0.164242
H12   H     H_    0.723002 0.527213 0.829376 0.151892
H13   H     H_    0.812488 0.775022 0.935257 0.104519
H14   H     H_    0.054175 0.450277 0.181820 0.116303
C31   C     C_R   0.518600 0.234385 0.381829 -0.202314
C32   C     C_R   0.617281 0.166123 0.382131 -0.150401
C33   C     C_R   0.651497 0.104877 0.317609 0.444907
C34   C     C_R   0.586072 0.111390 0.252279 -0.195911
C35   C     C_R   0.487582 0.180487 0.250055 0.011570
C36   C     C_R   0.453663 0.243593 0.316324 0.078579
C37   C     C_R   0.419843 0.186667 0.183545 -0.163097
C38   C     C_R   0.320294 0.256841 0.183691 0.072332
C39   C     C_R   0.286979 0.320058 0.249966 0.065858
C40   C     C_R   0.353462 0.313607 0.316495 -0.160777
C41   C     C_R   0.256137 0.266283 0.118167 -0.130121
C42   C     C_R   0.160083 0.335178 0.117883 -0.118073
C43   C     C_R   0.127644 0.396613 0.182382 -0.125016
C44   C     C_R   0.190975 0.389664 0.247701 -0.154643
H15   H     H_    0.492312 0.279334 0.433708 0.116187
H16   H     H_    0.666253 0.160757 0.432954 0.151972
H17   H     H_    0.613463 0.061654 0.203704 0.140448
H18   H     H_    0.281633 0.221172 0.066304 0.100336
H19   H     H_    0.111952 0.341162 0.067205 0.115423
H20   H     H_    0.164397 0.439736 0.296107 0.108675
C45   C     C_R   0.541482 0.284749 0.685596 -0.134565
H21   H     H_    0.679794 0.260414 0.693113 0.103890
C46   C     C_R   0.530377 0.330038 0.638842 -0.106915
H22   H     H_    0.660490 0.339335 0.611919 0.154164
C47   C     C_R   0.353971 0.362596 0.626841 -0.055627
C48   C     C_R   0.187557 0.345817 0.660657 -0.141501
H23   H     H_    0.048667 0.368223 0.651509 0.178647
C49   C     C_R   0.198620 0.300904 0.707789 -0.138521
H24   H     H_    0.068316 0.291527 0.734580 0.106852
C50   C     C_R   0.376252 0.270451 0.721574 0.092756
C51   C     C_R   0.241400 0.172080 0.778531 -0.147130
H25   H     H_    0.114920 0.163074 0.744083 0.117247
C52   C     C_R   0.255535 0.128912 0.826827 -0.202998
H26   H     H_    0.138245 0.088625 0.828299 0.122367
C53   C     C_R   0.419143 0.135981 0.871418 -0.061085
C54   C     C_R   0.569035 0.190290 0.867745 0.150682
C55   C     C_R   0.551977 0.233597 0.818971 -0.135594
H27   H     H_    0.665181 0.275611 0.817140 0.108891
C56   C     C_R   0.389932 0.224577 0.773533 0.054058
O11   O     O_R   0.273230 0.084330 0.086440 -0.531646
O12   O     O_R   0.596660 0.069390 0.940470 -0.537667
O13   O     O_R   0.760270 0.915710 0.913690 -0.533987
C57   C     C_R   0.428139 0.085919 0.920065 0.689465
O14   O     O_R   0.603330 0.093680 0.087390 -0.538598
O15   O     O_R   0.766990 0.940160 0.061660 -0.545725
C58   C     C_R   0.434352 0.117048 0.115118 0.696352
O16   O     O_R   0.266510 0.059870 0.938470 -0.546515
O17   O     O_3   0.431050 0.949630 0.991510 -0.368051
V3    V     V_3+5 0.708490 0.009340 0.001580 1.420564
O18   O     O_R   0.096270 0.930570 0.059390 -0.541108
C59   C     C_R   0.927313 0.915150 0.080774 0.694111
O19   O     O_R   0.089600 0.906290 0.912460 -0.541435
C60   C     C_R   0.920202 0.883069 0.885305 0.691871
V4    V     V_3+5 0.207670 0.990600 0.998190 1.425715
O20   O     O_3   0.935250 0.050360 0.008480 -0.367318
Cl1   Cl    Cl    0.776226 0.738479 0.541905 -0.700648
Cl2   Cl    Cl    0.805952 0.501916 0.687489 -0.738241
Cl3   Cl    Cl    0.775931 0.019104 0.318596 -0.651186
C61   C     C_3   0.532301 0.567367 0.303714 -0.777357
H28   H     H_    0.580095 0.505367 0.296474 0.192119
H29   H     H_    0.438124 0.588821 0.351911 0.223091
H30   H     H_    0.443431 0.565277 0.255771 0.196787
C62   C     C_3   0.745317 0.205315 0.915994 -0.757269
H31   H     H_    0.701147 0.221672 0.973529 0.202244
H32   H     H_    0.836735 0.151139 0.901172 0.219392
H33   H     H_    0.835944 0.255248 0.910559 0.192641

loop_
_geom_bond_atom_site_label_1
_geom_bond_atom_site_label_2
_ccdc_geom_bond_type
O15   C59   A    
C57   O16   A    
C51   H25   S    
C20   C21   A    
C55   H27   S    
O11   C58   A    
C13   C59   S    
C21   C22   A    
C6    H2    S    
C1    O6    A    
C47   C48   A    
C31   C36   A    
C20   Cl1   S    
C19   H11   S    
C45   H21   S    
C42   H19   S    
C28   H12   S    
H14   C43   S    
O14   V3    S    
O13   V3    S    
O16   V4    S    
C4    C7    S    
C12   H5    S    
C6    C7    A    
C54   C62   S    
C49   C50   A    
C3    C23   S    
O5    C3    A    
C13   C14   A    
C17   H9    S    
C18   H10   S    
O18   C59   A    
C39   C44   A    
C34   H17   S    
O19   C60   A    
C22   C26   A    
C17   C22   A    
C35   C37   A    
V4    O20   S    
C5    C6    A    
O8    V2    S    
C27   C28   A    
C42   C43   A    
C61   H29   S    
C51   C56   A    
C9    H3    S    
C14   C15   A    
O1    V2    S    
C52   C53   A    
O7    V1    S    
C24   C27   A    
O12   V3    S    
C45   C46   A    
V3    O20   S    
C33   C34   A    
C55   C56   A    
O13   C60   A    
O9    C4    A    
C21   C23   A    
C35   C36   A    
C37   C58   S    
O17   V3    S    
O12   C57   A    
C15   H7    S    
C62   H32   S    
O15   V3    S    
C36   C40   A    
C41   C42   A    
C38   C41   A    
C49   H24   S    
C53   C54   A    
O4    C2    A    
C32   C33   A    
C25   C26   A    
O11   V4    S    
C46   H22   S    
C34   C35   A    
O2    C1    A    
C23   C24   A    
C17   C18   A    
C14   H6    S    
C61   H28   S    
C62   H31   S    
C61   H30   S    
O14   C58   A    
C5    H1    S    
C11   H4    S    
C41   H18   S    
C31   H15   S    
O3    C4    A    
C10   C16   S    
C8    C61   S    
C2    C47   S    
C45   C50   A    
C29   C30   A    
O6    V2    S    
C48   C49   A    
O9    V2    S    
C44   H20   S    
O2    V1    S    
C19   C20   A    
C24   C25   A    
C46   C47   A    
O18   V4    S    
C62   H33   S    
C27   Cl2   S    
C28   C29   A    
O1    C2    A    
O5    V1    S    
O8    C3    A    
C11   C12   A    
C30   H13   S    
C5    C10   A    
C38   C39   A    
C51   C52   A    
O7    V2    S    
O4    V1    S    
O3    V1    S    
V1    O10   S    
O17   V4    S    
C32   H16   S    
C31   C32   A    
C18   C19   A    
C25   C30   A    
C33   Cl3   S    
C12   C13   A    
C54   C55   A    
C15   C16   A    
O19   V4    S    
C39   C40   A    
C43   C44   A    
C50   C56   S    
C37   C38   A    
C11   C16   A    
C9    C10   A    
C1    C40   S    
C48   H23   S    
C26   C60   S    
C8    C9    A    
C53   C57   S    
C52   H26   S    
C7    C8    A    
H8    C29   S    
V2    O10   S    
