data_mof_unit_17334.cif
_audit_creation_date              2012-12-10T19:28:28-0500
_audit_creation_method            fapswitch 2.2
_symmetry_space_group_name_H-M    P1
_symmetry_Int_Tables_number       1
_space_group_crystal_system       triclinic
_cell_length_a                    27.575568
_cell_length_b                    10.507587
_cell_length_c                    9.902549
_cell_angle_alpha                 91.21876
_cell_angle_beta                  87.193175
_cell_angle_gamma                 90.175502
_cell_volume                      2865.19365132

loop_
_atom_site_label
_atom_site_type_symbol
_atom_type_description
_atom_site_fract_x
_atom_site_fract_y
_atom_site_fract_z
_atom_type_partial_charge
C1    C     C_R   0.500209 0.257918 0.499150 0.874199
C2    C     C_R   0.499864 0.742086 0.500834 0.875494
C3    C     C_R   0.101216 0.510283 0.455809 -0.097093
C4    C     C_R   0.898726 0.484239 0.453372 -0.096847
C5    C     C_R   0.128428 0.396192 0.444634 -0.147261
C6    C     C_R   0.873056 0.577979 0.384357 -0.147544
C7    C     C_R   0.103070 0.278182 0.433762 0.464190
C8    C     C_R   0.899873 0.677717 0.318979 0.442628
C9    C     C_R   0.124422 0.629361 0.464180 -0.077868
C10   C     C_R   0.873974 0.383456 0.518284 -0.082299
C11   C     C_R   0.352987 0.514529 0.499913 -0.149855
C12   C     C_R   0.646135 0.488862 0.490841 -0.141677
C13   C     C_R   0.975819 0.390814 0.512776 -0.051795
C14   C     C_R   0.023232 0.617618 0.445137 -0.036132
C15   C     C_R   0.973850 0.602567 0.416992 0.027506
C16   C     C_R   0.026444 0.389351 0.483839 0.010783
C17   C     C_R   0.949414 0.492053 0.460063 0.064599
C18   C     C_R   0.050359 0.505681 0.460398 0.060531
C19   C     C_R   0.950363 0.298627 0.591038 0.385551
C20   C     C_R   0.046384 0.737188 0.461672 0.334261
C21   C     C_R   0.899815 0.293503 0.588523 -0.105494
C22   C     C_R   0.096841 0.741374 0.469534 -0.148564
C23   C     C_R   0.406064 0.502384 0.501844 0.911777
C24   C     C_R   0.593580 0.497968 0.497259 0.900026
C25   C     C_R   0.052737 0.276085 0.462879 -0.141733
C26   C     C_R   0.949573 0.689026 0.339019 -0.162008
C27   C     C_3   0.503935 0.044514 0.627025 -0.052973
C28   C     C_3   0.496251 0.955493 0.372915 -0.055413
C29   C     C_3   0.541734 0.959264 0.549313 -0.160745
C30   C     C_3   0.458452 0.040735 0.450616 -0.164556
C31   C     C_3   0.499862 0.877572 0.501017 -0.031103
C32   C     C_3   0.500314 0.122437 0.498928 -0.033001
C33   C     C_3   0.462028 0.960264 0.578312 -0.128200
C34   C     C_3   0.538157 0.039765 0.421621 -0.124546
C35   C     C_3   0.489725 0.389614 0.045718 0.442683
C36   C     C_3   0.510459 0.610499 0.954354 0.417754
C37   C     C_3   0.531685 0.420346 0.943838 -0.397946
C38   C     C_3   0.468573 0.579937 0.056243 -0.345052
C39   C     C_3   0.458501 0.468725 0.958835 0.402332
C40   C     C_3   0.541744 0.531603 0.041804 0.309939
C41   C     C_R   0.179391 0.406748 0.448028 0.690292
C42   C     C_R   0.821940 0.567525 0.387246 0.700340
C43   C     C_R   0.174555 0.633124 0.476103 0.684904
C44   C     C_R   0.823434 0.381130 0.521525 0.683716
C45   C     C_R   0.282881 0.568449 0.372474 0.394000
C46   C     C_R   0.719529 0.396854 0.387192 0.449435
C47   C     C_R   0.332899 0.564434 0.384649 -0.253764
C48   C     C_R   0.669104 0.402542 0.399897 -0.193294
C49   C     C_R   0.322172 0.472498 0.605678 -0.201745
C50   C     C_R   0.673257 0.564148 0.577233 -0.284645
C51   C     C_R   0.271965 0.483824 0.600349 0.378418
C52   C     C_R   0.723778 0.557175 0.569906 0.397182
C53   C     C_R   0.252075 0.528430 0.481333 0.031114
C54   C     C_R   0.747056 0.474726 0.472480 0.015560
H1    H     H_    0.336721 0.426457 0.690028 0.246684
H2    H     H_    0.654870 0.629392 0.648506 0.203361
H3    H     H_    0.507528 0.084113 0.730809 0.218207
H4    H     H_    0.492640 0.915867 0.269155 0.215087
H5    H     H_    0.880470 0.223261 0.649154 0.236588
H6    H     H_    0.114443 0.832426 0.484343 0.259763
N1    N     N_R   0.200737 0.523103 0.467095 -0.344446
N2    N     N_R   0.798836 0.472969 0.458216 -0.345545
N3    N     N_3   0.499960 0.500030 0.863290 -0.196710
N4    N     N_3   0.500040 0.499970 0.136710 -0.194860
O1    O     O_R   0.500000 0.313960 0.616610 -0.612740
O2    O     O_R   0.500000 0.686040 0.383390 -0.621178
O3    O     O_R   0.500020 0.313950 0.383350 -0.541820
O4    O     O_R   0.499980 0.686050 0.616650 -0.539377
O5    O     O_R   0.428750 0.500030 0.616610 -0.548552
O6    O     O_R   0.571250 0.499970 0.383390 -0.551635
O7    O     O_R   0.428770 0.500020 0.383360 -0.605416
O8    O     O_R   0.571230 0.499980 0.616640 -0.622363
O9    O     O_2   0.207813 0.302726 0.438209 -0.431201
O10   O     O_2   0.794784 0.651836 0.324052 -0.411889
O11   O     O_2   0.798763 0.289786 0.590051 -0.480317
O12   O     O_2   0.197027 0.745198 0.499423 -0.468311
Zn1   Zn    Zn3+2 0.499990 0.500010 0.655740 1.079351
Zn2   Zn    Zn3+2 0.500010 0.499990 0.344260 1.085316
H7    H     H_    0.430854 0.923893 0.641512 0.199418
H8    H     H_    0.569328 0.076208 0.358437 0.198969
H9    H     H_    0.558305 0.353111 0.894163 0.211297
H10   H     H_    0.441857 0.646911 0.105983 0.201435
S1    S     S_3+6 0.475667 0.231787 0.097301 0.054983
O13   O     O_2   0.520122 0.172767 0.151072 -0.328606
O14   O     O_2   0.434888 0.234322 0.203561 -0.287125
O15   O     O_3   0.458599 0.145339 0.963014 -0.538376
H11   H     H_    0.452063 0.059082 0.998117 0.395157
S2    S     S_3+6 0.524101 0.768567 0.902675 0.065416
O16   O     O_2   0.564781 0.766749 0.796117 -0.294851
O17   O     O_2   0.479448 0.826894 0.849281 -0.332532
O18   O     O_3   0.541118 0.855258 0.036849 -0.516684
H12   H     H_    0.547396 0.941634 0.001753 0.400364
S3    S     S_3+6 0.398868 0.430459 0.914521 0.084211
O19   O     O_2   0.376225 0.547786 0.861031 -0.258456
O20   O     O_2   0.400671 0.324672 0.809754 -0.311844
O21   O     O_3   0.366310 0.384516 0.053277 -0.477222
H13   H     H_    0.354832 0.297290 0.032146 0.394243
S4    S     S_3+6 0.601247 0.574888 0.088413 0.150354
O22   O     O_2   0.598774 0.676676 0.197355 -0.197970
O23   O     O_2   0.626602 0.459715 0.136856 -0.269764
O24   O     O_3   0.632898 0.630333 0.952853 -0.423611
H14   H     H_    0.633525 0.558805 0.886011 0.356098
S5    S     S_3+6 0.235022 0.438724 0.742982 0.121425
O25   O     O_2   0.192182 0.526370 0.762482 -0.222233
O26   O     O_2   0.216862 0.305026 0.722376 -0.233296
O27   O     O_3   0.267088 0.445628 0.883119 -0.395694
H15   H     H_    0.281302 0.359752 0.890393 0.378215
S6    S     S_3+6 0.757118 0.652961 0.682258 0.098017
O28   O     O_2   0.793178 0.572120 0.750151 -0.206349
O29   O     O_2   0.784172 0.754672 0.604940 -0.238731
O30   O     O_3   0.720054 0.722369 0.801886 -0.454197
H16   H     H_    0.706196 0.796954 0.758025 0.375034
S7    S     S_3+6 0.130992 0.133344 0.376578 0.130438
O31   O     O_2   0.157233 0.076584 0.490359 -0.190058
O32   O     O_2   0.093543 0.040537 0.329916 -0.253750
O33   O     O_3   0.170464 0.160628 0.245315 -0.461983
H17   H     H_    0.186827 0.077965 0.226050 0.410551
S8    S     S_3+6 0.874633 0.790596 0.210908 0.144398
O34   O     O_2   0.841116 0.878005 0.293157 -0.168946
O35   O     O_2   0.913913 0.868993 0.142157 -0.247195
O36   O     O_3   0.843586 0.713985 0.091573 -0.437721
H18   H     H_    0.828262 0.782214 0.040988 0.420730
H19   H     H_    0.647498 0.339184 0.339552 0.220740
H20   H     H_    0.356410 0.597418 0.301843 0.200880
S9    S     S_3+6 0.747159 0.293131 0.263132 0.105106
O37   O     O_2   0.786942 0.361883 0.185063 -0.232867
O38   O     O_2   0.768366 0.181253 0.331408 -0.218008
O39   O     O_3   0.705833 0.240455 0.155552 -0.502294
H21   H     H_    0.724080 0.183236 0.090673 0.409252
S10   S     S_3+6 0.260122 0.618058 0.217687 0.116648
O40   O     O_2   0.221430 0.527344 0.173732 -0.191515
O41   O     O_2   0.238448 0.748733 0.235665 -0.252298
O42   O     O_3   0.304799 0.622036 0.095915 -0.421403
H22   H     H_    0.320841 0.705749 0.107680 0.358783
S11   S     S_3+6 0.975556 0.221972 0.729316 0.096603
O43   O     O_2   0.962565 0.083248 0.724074 -0.186165
O44   O     O_2   0.029608 0.237554 0.734110 -0.241848
O45   O     O_3   0.949614 0.286571 0.871859 -0.496987
H23   H     H_    0.961306 0.234479 0.945834 0.407268
S12   S     S_3+6 0.013798 0.876009 0.515142 0.085222
O46   O     O_2   0.000906 0.952383 0.395571 -0.236823
O47   O     O_2   0.967945 0.840226 0.593866 -0.226596
O48   O     O_3   0.048509 0.966553 0.614182 -0.457976
H24   H     H_    0.051934 0.916560 0.696848 0.386718
H25   H     H_    0.033469 0.186294 0.462874 0.245238
H26   H     H_    0.970261 0.762144 0.287545 0.223959
H27   H     H_    0.575860 0.922461 0.588610 0.198479
H28   H     H_    0.424342 0.077536 0.411231 0.202271

loop_
_geom_bond_atom_site_label_1
_geom_bond_atom_site_label_2
_ccdc_geom_bond_type
S11   O45   S    
C30   C32   S    
S3    O19   D    
O6    Zn2   S    
C8    C26   A    
O5    Zn1   S    
C14   C18   A    
C46   S9    S    
C11   C47   A    
O30   H16   S    
S12   O48   S    
C41   N1    A    
C12   C48   A    
O39   H21   S    
C48   H19   S    
C8    S8    S    
S11   O43   D    
C27   C33   S    
C36   S2    S    
C24   O8    A    
O24   H14   S    
C11   C49   A    
C35   C37   S    
S12   O47   D    
C21   H5    S    
C37   C40   S    
C2    O4    A    
C22   H6    S    
C38   C39   S    
C9    C22   A    
C27   C29   S    
O27   H15   S    
C19   S11   S    
O48   H24   S    
O4    Zn1   S    
S6    O28   D    
C3    C18   A    
S11   O44   D    
C11   C23   S    
C26   H26   S    
C23   O5    A    
S8    O34   D    
C39   S3    S    
C34   H8    S    
C53   N1    S    
C49   C51   A    
S9    O39   S    
C1    O1    A    
C31   C33   S    
C35   N4    S    
C36   N3    S    
C42   N2    A    
S7    O33   S    
S9    O37   D    
C28   C34   S    
C45   S10   S    
S3    O20   D    
C38   H10   S    
C37   H9    S    
O3    Zn2   S    
C37   N3    S    
C52   C54   A    
C38   N4    S    
C45   C47   A    
C10   C21   A    
O2    Zn2   S    
C46   C48   A    
C42   O10   S    
C9    C43   A    
C13   C19   A    
C10   C44   A    
C23   O7    A    
C36   C40   S    
O1    Zn1   S    
S12   O46   D    
C4    C6    A    
C27   H3    S    
O18   H12   S    
C5    C7    A    
C35   S1    S    
O15   H11   S    
C33   H7    S    
C15   C26   A    
C6    C8    A    
C54   N2    S    
C3    C5    A    
C49   H1    S    
C41   O9    S    
C29   C34   S    
C1    C32   S    
C50   H2    S    
C2    C31   S    
C51   C53   A    
S8    O36   S    
C32   C34   S    
C44   O11   S    
S10   O41   D    
O8    Zn1   S    
C3    C9    A    
C14   C20   A    
C50   C52   A    
S1    O13   D    
S2    O18   S    
O21   H13   S    
C46   C54   A    
S5    O26   D    
O36   H18   S    
C4    C17   A    
S1    O14   D    
S2    O17   D    
S3    O21   S    
S4    O23   D    
O42   H22   S    
S10   O42   S    
C4    C10   A    
C43   N1    A    
S7    O31   D    
N3    Zn1   S    
C16   C25   A    
C15   C17   A    
C5    C41   A    
C30   C33   S    
C19   C21   A    
C27   C32   S    
N4    Zn2   S    
C28   C31   S    
C20   C22   A    
C2    O2    A    
C40   N4    S    
C29   H27   S    
C12   C50   A    
C30   H28   S    
C28   H4    S    
S4    O24   S    
C39   N3    S    
C12   C24   S    
C7    C25   A    
S6    O30   S    
C13   C17   A    
C44   N2    A    
C20   S12   S    
C36   C38   S    
S10   O40   D    
C29   C31   S    
C40   S4    S    
C7    S7    S    
C47   H20   S    
C24   O6    A    
C35   C39   S    
C28   C30   S    
C1    O3    A    
S6    O29   D    
O33   H17   S    
S5    O27   S    
S8    O35   D    
O45   H23   S    
C45   C53   A    
S1    O15   S    
S2    O16   D    
C52   S6    S    
C16   C18   A    
S4    O22   D    
C6    C42   A    
C13   C16   A    
S5    O25   D    
S9    O38   D    
C14   C15   A    
C43   O12   S    
C25   H25   S    
C51   S5    S    
O7    Zn2   S    
S7    O32   D    
