data_mof_unit_36920.cif
_audit_creation_date              2012-12-10T20:31:00-0500
_audit_creation_method            fapswitch 2.2
_symmetry_space_group_name_H-M    P1
_symmetry_Int_Tables_number       1
_space_group_crystal_system       triclinic
_cell_length_a                    14.860662
_cell_length_b                    10.717381
_cell_length_c                    9.954295
_cell_angle_alpha                 89.948069
_cell_angle_beta                  91.722052
_cell_angle_gamma                 90.716041
_cell_volume                      1584.55446472

loop_
_atom_site_label
_atom_site_type_symbol
_atom_type_description
_atom_site_fract_x
_atom_site_fract_y
_atom_site_fract_z
_atom_type_partial_charge
C1    C     C_R   0.502940 0.260459 0.500498 0.854692
C2    C     C_R   0.906853 0.613942 0.488132 0.106881
C3    C     C_R   0.953014 0.271495 0.528587 0.174058
C4    C     C_R   0.046774 0.274719 0.525926 -0.275075
C5    C     C_R   0.093286 0.387531 0.511304 0.108324
C6    C     C_R   0.046920 0.501383 0.498128 0.010967
C7    C     C_R   0.094574 0.616141 0.482233 0.099844
C8    C     C_R   0.047314 0.729998 0.470493 0.172462
C9    C     C_R   0.953454 0.726777 0.473119 -0.272904
C10   C     C_R   0.186264 0.387928 0.510217 -0.259823
C11   C     C_R   0.232148 0.499894 0.494261 -0.048187
C12   C     C_R   0.327368 0.499601 0.498215 0.882026
C13   C     C_R   0.188233 0.612730 0.478930 -0.268614
C14   C     C_R   0.471692 0.062672 0.610967 0.098733
C15   C     C_R   0.503485 0.128051 0.500927 -0.083062
C16   C     C_R   0.528719 0.063932 0.386271 -0.245515
C17   C     C_R   0.523679 0.935549 0.383403 -0.224323
C18   C     C_R   0.495134 0.870945 0.497176 -0.076965
C19   C     C_R   0.463996 0.935215 0.607472 0.078903
C20   C     C_3   0.488157 0.920287 0.753408 -0.480534
C21   C     C_3   0.502768 0.060740 0.756133 -0.045203
C22   C     C_R   0.423102 0.474544 0.066092 0.198582
C23   C     C_R   0.499460 0.739339 0.499681 0.861697
C24   C     C_R   0.572023 0.542709 0.076888 -0.164430
C25   C     C_R   0.572019 0.546336 0.933734 0.177315
C26   C     C_R   0.422251 0.479446 0.925008 0.147321
C27   C     C_3   0.357037 0.374286 0.908385 -0.506119
C28   C     C_3   0.361880 0.361222 0.061677 -0.096788
C29   C     C_R   0.672680 0.501000 0.501811 0.877937
C30   C     C_R   0.813804 0.613373 0.489588 -0.261380
C31   C     C_R   0.767984 0.501274 0.505871 -0.041514
C32   C     C_R   0.812061 0.388656 0.521693 -0.274112
C33   C     C_R   0.905675 0.385336 0.517452 0.102183
C34   C     C_R   0.953247 0.500119 0.501273 0.010139
H1    H     H_    0.776710 0.699556 0.477899 0.124077
H2    H     H_    0.547297 0.887272 0.295836 0.165692
H3    H     H_    0.429046 0.889458 0.811352 0.174152
H4    H     H_    0.549177 0.863949 0.774112 0.207617
H5    H     H_    0.453613 0.106453 0.820859 0.134083
H6    H     H_    0.290434 0.407074 0.869857 0.187014
H7    H     H_    0.383948 0.295682 0.850164 0.210538
H8    H     H_    0.296008 0.379846 0.107427 0.139352
H9    H     H_    0.771877 0.304966 0.534956 0.142970
H10   H     H_    0.083915 0.188525 0.534633 0.149424
H11   H     H_    0.223277 0.301672 0.521982 0.122663
H12   H     H_    0.557355 0.112236 0.302736 0.174222
N1    N     N_R   0.499390 0.499140 0.142800 -0.122585
N2    N     N_R   0.499390 0.499180 0.857150 -0.129550
O1    O     O_R   0.500010 0.316790 0.614690 -0.626268
O2    O     O_R   0.500000 0.316760 0.385350 -0.626207
O3    O     O_R   0.367850 0.499990 0.614680 -0.610255
O4    O     O_R   0.367840 0.499950 0.385340 -0.620390
O5    O     O_R   0.500000 0.683240 0.614650 -0.637667
O6    O     O_R   0.499990 0.683210 0.385310 -0.623393
O7    O     O_R   0.632160 0.500050 0.614660 -0.624442
O8    O     O_R   0.632150 0.500010 0.385320 -0.623811
Zn1   Zn    Zn3+2 0.500010 0.500020 0.653130 0.921908
Zn2   Zn    Zn3+2 0.499990 0.499980 0.346870 0.931317
C35   C     C_3   0.601616 0.102104 0.788246 -0.341895
C36   C     C_3   0.673114 0.053748 0.693823 -0.842868
H13   H     H_    0.664066 0.953384 0.669972 0.255990
H14   H     H_    0.672906 0.108084 0.598997 0.254435
H15   H     H_    0.740280 0.065833 0.743974 0.226440
H16   H     H_    0.605972 0.205565 0.788958 0.216241
H17   H     H_    0.619579 0.070094 0.891668 0.196089
H18   H     H_    0.629877 0.576953 0.134999 0.165284
C37   C     C_3   0.650281 0.614204 0.873266 -0.371731
C38   C     C_3   0.733742 0.532236 0.871858 -0.819746
H19   H     H_    0.717851 0.439839 0.826030 0.271836
H20   H     H_    0.786959 0.579162 0.813491 0.251326
H21   H     H_    0.760162 0.517025 0.976076 0.237365
H22   H     H_    0.632469 0.652527 0.773515 0.245148
H23   H     H_    0.667049 0.698668 0.934367 0.161704
C39   C     C_3   0.402390 0.235731 0.107930 -0.302067
C40   C     C_3   0.501216 0.217642 0.072881 -0.862683
H24   H     H_    0.515337 0.253466 0.971618 0.248797
H25   H     H_    0.546964 0.267732 0.144781 0.277922
H26   H     H_    0.517116 0.116772 0.075928 0.222392
H27   H     H_    0.394630 0.225138 0.217638 0.223676
H28   H     H_    0.361523 0.159362 0.060140 0.184933
C41   C     C_3   0.906740 0.145691 0.544295 -0.417524
C42   C     C_3   0.864928 0.099238 0.411148 -0.886555
H29   H     H_    0.816158 0.166972 0.368054 0.262493
H30   H     H_    0.918464 0.083851 0.337660 0.258182
H31   H     H_    0.828782 0.009519 0.427732 0.243544
H32   H     H_    0.955394 0.074521 0.581063 0.207538
H33   H     H_    0.855338 0.151069 0.622121 0.197273
H34   H     H_    0.228551 0.696463 0.466641 0.144744
C43   C     C_3   0.093862 0.855936 0.455775 -0.415008
C44   C     C_3   0.133588 0.902244 0.590319 -0.886897
H35   H     H_    0.078969 0.916507 0.662298 0.257809
H36   H     H_    0.182234 0.834789 0.634324 0.263605
H37   H     H_    0.169383 0.992499 0.575440 0.239557
H38   H     H_    0.146736 0.851527 0.379553 0.197569
H39   H     H_    0.045428 0.926871 0.417733 0.206626
H40   H     H_    0.916343 0.812998 0.464393 0.150476

loop_
_geom_bond_atom_site_label_1
_geom_bond_atom_site_label_2
_ccdc_geom_bond_type
C19   C20   S    
C25   C37   S    
C28   C39   S    
C41   C42   S    
N2    Zn1   S    
C35   H16   S    
C30   H1    S    
C44   H37   S    
C36   H15   S    
C5    C6    A    
C14   C21   S    
C21   C35   S    
C30   C31   A    
C3    C33   A    
C15   C16   A    
O1    Zn1   S    
C36   H14   S    
C37   H22   S    
C43   H38   S    
C8    C9    A    
C3    C41   S    
C37   H23   S    
C17   H2    S    
C1    O2    A    
C41   H32   S    
C24   H18   S    
C2    C34   A    
C22   N1    A    
C35   C36   S    
C22   C28   S    
C12   O4    A    
C23   O5    A    
C39   C40   S    
C37   C38   S    
O2    Zn2   S    
C7    C8    A    
C33   C34   A    
C24   C25   A    
C16   H12   S    
O5    Zn1   S    
C38   H19   S    
C4    H10   S    
C18   C23   S    
C36   H13   S    
C43   H39   S    
C40   H24   S    
C20   H4    S    
C27   H7    S    
C44   H36   S    
C31   C32   A    
C21   H5    S    
C27   H6    S    
C10   H11   S    
C17   C18   A    
C26   C27   S    
C40   H25   S    
C9    H40   S    
C41   H33   S    
O4    Zn2   S    
C1    C15   S    
C42   H30   S    
C39   H27   S    
O7    Zn1   S    
C3    C4    A    
C12   O3    A    
C23   O6    A    
O6    Zn2   S    
C24   N1    A    
C14   C19   A    
C4    C5    A    
C11   C12   S    
C6    C7    A    
C29   O8    A    
C26   N2    A    
C42   H31   S    
C29   O7    A    
C2    C30   A    
C32   C33   A    
C5    C10   A    
C29   C31   S    
C35   H17   S    
N1    Zn2   S    
C20   H3    S    
C11   C13   A    
C44   H35   S    
C16   C17   A    
C1    O1    A    
C38   H21   S    
C13   H34   S    
C28   H8    S    
C32   H9    S    
O8    Zn2   S    
C40   H26   S    
C10   C11   A    
C6    C34   A    
O3    Zn1   S    
C7    C13   A    
C20   C21   S    
C38   H20   S    
C42   H29   S    
C22   C26   A    
C27   C28   S    
C18   C19   A    
C14   C15   A    
C39   H28   S    
C8    C43   S    
C43   C44   S    
C2    C9    A    
C25   N2    A    
