data_mof_unit_21741.cif
_audit_creation_date              2012-12-11T16:04:53-0500
_audit_creation_method            fapswitch 2.2
_symmetry_space_group_name_H-M    P1
_symmetry_Int_Tables_number       1
_space_group_crystal_system       triclinic
_cell_length_a                    10.727448
_cell_length_b                    10.603335
_cell_length_c                    16.857465
_cell_angle_alpha                 98.689787
_cell_angle_beta                  98.878047
_cell_angle_gamma                 61.290251
_cell_volume                      1655.04199134

loop_
_atom_site_label
_atom_site_type_symbol
_atom_type_description
_atom_site_fract_x
_atom_site_fract_y
_atom_site_fract_z
_atom_type_partial_charge
C1    C     C_R   0.383217 0.704527 0.387308 0.550669
C2    C     C_3   0.736524 0.373433 0.249220 -0.151720
C3    C     C_3   0.839702 0.335439 0.326753 0.007819
C4    C     C_3   0.937102 0.186882 0.287427 -0.039370
C5    C     C_3   0.025455 0.252380 0.260652 -0.137407
C6    C     C_3   0.923885 0.401025 0.299816 0.271077
C7    C     C_3   0.821193 0.441859 0.222842 -0.151662
C8    C     C_3   0.920946 0.293691 0.183152 0.002793
C9    C     C_3   0.407271 0.671526 0.183364 0.261228
C10   C     C_3   0.286099 0.709695 0.235535 -0.122095
C11   C     C_3   0.374293 0.743835 0.307565 0.023242
C12   C     C_R   0.405516 0.374369 0.357175 0.516989
C13   C     C_3   0.497628 0.703361 0.256779 -0.184908
C14   C     C_3   0.428268 0.862981 0.236586 -0.182738
C15   C     C_3   0.308493 0.899731 0.289329 0.280855
C16   C     C_3   0.217268 0.868900 0.217674 -0.108920
C17   C     C_3   0.338746 0.828168 0.164375 0.011047
C18   C     C_3   0.478982 0.263958 0.787891 -0.007336
C19   C     C_3   0.442483 0.409450 0.760047 0.238329
C20   C     C_3   0.376093 0.368925 0.679867 0.048136
C21   C     C_3   0.411081 0.223140 0.708059 -0.152186
C22   C     C_3   0.263933 0.296325 0.742215 -0.146904
C23   C     C_R   0.780336 0.374503 0.403421 0.557832
C24   C     C_3   0.230095 0.441607 0.713949 -0.032519
C25   C     C_3   0.295441 0.484238 0.795043 -0.147373
C26   C     C_3   0.332996 0.336637 0.822232 -0.011647
C27   C     C_1   0.849158 0.326914 0.705328 0.001541
C28   C     C_1   0.895813 0.293394 0.772777 -0.026256
C29   C     C_1   0.337438 0.813953 0.709385 -0.007035
C30   C     C_1   0.311721 0.841260 0.778109 -0.024662
C31   C     C_R   0.961217 0.282541 0.102745 0.554969
C32   C     C_R   0.321749 0.302691 0.119295 0.584902
C33   C     C_R   0.295930 0.888572 0.087503 0.523067
C34   C     C_R   0.356330 0.772362 0.626863 0.563470
C35   C     C_R   0.943973 0.275052 0.856042 0.546761
C36   C     C_R   0.310409 0.297203 0.894736 0.552524
C37   C     C_R   0.279038 0.886012 0.858791 0.513099
C38   C     C_R   0.408472 0.378432 0.601351 0.599070
C39   C     C_R   0.779890 0.376427 0.628466 0.581406
C40   C     C_1   0.373957 0.361292 0.272545 -0.091429
C41   C     C_1   0.348767 0.342870 0.201458 -0.032741
C42   C     C_3   0.836480 0.226282 0.209633 0.265936
Cr1   Cr    Cr6+3 0.608340 0.611040 0.520430 1.061184
Cr2   Cr    Cr6+3 0.287650 0.601120 0.489350 1.062273
Cr3   Cr    Cr6+3 0.604040 0.287870 0.490280 1.017122
Cr4   Cr    Cr6+3 0.054020 0.052700 0.970850 1.072852
Cr5   Cr    Cr6+3 0.059230 0.375120 0.993390 1.009494
Cr6   Cr    Cr6+3 0.374950 0.061200 0.992340 1.014642
H1    H     H_    0.620332 0.413256 0.248791 0.147708
H2    H     H_    0.487234 0.924040 0.233860 0.105724
H3    H     H_    0.102529 0.935348 0.198841 0.149202
H4    H     H_    0.457398 0.116555 0.672345 0.147304
H5    H     H_    0.188914 0.250301 0.736343 0.111677
H6    H     H_    0.246459 0.589404 0.831780 0.129509
H7    H     H_    0.141583 0.209346 0.258512 0.132811
H8    H     H_    0.777449 0.544563 0.194676 0.120251
H9    H     H_    0.225619 0.649580 0.236163 0.113188
H10   H     H_    0.607945 0.650180 0.284700 0.129335
O1    O     O_R   0.751220 0.499230 0.435170 -0.478666
O2    O     O_R   0.297880 0.469080 0.560050 -0.484717
O3    O     O_R   0.489720 0.254590 0.564810 -0.523743
O4    O     O_R   0.725220 0.304230 0.585080 -0.496791
O5    O     O_3   0.500010 0.500010 0.500020 -0.331492
O6    O     O_R   0.171830 0.913880 0.057510 -0.513162
O7    O     O_R   0.940690 0.186050 0.054730 -0.435399
O8    O     O_R   0.920470 0.405720 0.075010 -0.540231
O9    O     O_R   0.196690 0.370460 0.084120 -0.514886
O10   O     O_R   0.412990 0.180750 0.091610 -0.514172
O11   O     O_R   0.366620 0.943130 0.065760 -0.520316
O12   O     O_R   0.477220 0.727600 0.436870 -0.502299
O13   O     O_R   0.160510 0.906330 0.879210 -0.508993
O14   O     O_R   0.930190 0.179050 0.889450 -0.462744
O15   O     O_R   0.909140 0.398170 0.896710 -0.522955
O16   O     O_R   0.186190 0.363460 0.918830 -0.507245
O17   O     O_R   0.401670 0.173200 0.913310 -0.498100
O18   O     O_R   0.356120 0.936130 0.900470 -0.501729
O19   O     O_3   0.162740 0.163010 0.985530 -0.304439
O20   O     O_R   0.258650 0.745120 0.411470 -0.471226
O21   O     O_R   0.297070 0.467240 0.395960 -0.495939
O22   O     O_R   0.488830 0.252610 0.387790 -0.538715
O23   O     O_R   0.724400 0.302390 0.420980 -0.530194
O24   O     O_R   0.752100 0.501210 0.612190 -0.477637
O25   O     O_R   0.478040 0.729440 0.600970 -0.484077
O26   O     O_R   0.259530 0.747110 0.588490 -0.500940
O27   O     O_3   0.253742 0.011862 0.351244 -0.562427
C43   C     C_3   0.354510 0.059571 0.382049 -0.059221
H11   H     H_    0.371469 0.110422 0.334859 0.133411
H12   H     H_    0.457317 0.970242 0.404784 0.144820
H13   H     H_    0.311620 0.142619 0.433063 0.188192
O28   O     O_3   0.536506 0.468267 0.763047 -0.585242
C44   C     C_3   0.567683 0.510763 0.843742 -0.103837
H14   H     H_    0.628359 0.416166 0.879754 0.146293
H15   H     H_    0.469854 0.590387 0.872428 0.088958
H16   H     H_    0.634700 0.564452 0.844592 0.175117
C45   C     C_1   0.616124 0.161865 0.826914 0.236890
N1    N     N_1   0.723343 0.080007 0.857642 -0.246849
C46   C     C_1   0.092015 0.538165 0.673297 0.246427
N2    N     N_1   0.983241 0.614448 0.641235 -0.248538
O29   O     O_3   0.791792 0.138476 0.154169 -0.529550
C47   C     C_3   0.737692 0.070775 0.194474 -0.096957
H17   H     H_    0.668998 0.144090 0.242225 0.123304
H18   H     H_    0.826348 0.972338 0.219653 0.105647
H19   H     H_    0.671949 0.034071 0.149874 0.168935
C48   C     C_1   0.972755 0.063372 0.332012 0.251448
N3    N     N_1   0.996856 0.967714 0.367465 -0.265536
O30   O     O_3   0.969990 0.489056 0.354012 -0.522282
C49   C     C_3   0.980471 0.587745 0.311554 -0.078704
H20   H     H_    0.872748 0.670983 0.289868 0.092728
H21   H     H_    0.048019 0.532221 0.260576 0.111465
H22   H     H_    0.030682 0.645380 0.353330 0.179891
O31   O     O_3   0.456687 0.545349 0.129466 -0.570079
C50   C     C_3   0.528062 0.556594 0.069533 -0.086590
H23   H     H_    0.591987 0.614012 0.092317 0.113350
H24   H     H_    0.449708 0.611317 0.018922 0.111868
H25   H     H_    0.602584 0.446155 0.045564 0.175751

loop_
_geom_bond_atom_site_label_1
_geom_bond_atom_site_label_2
_ccdc_geom_bond_type
C9    O31   S    
C31   O8    A    
C24   C25   S    
C18   C45   S    
C18   C21   S    
Cr1   O25   S    
Cr6   O18   S    
C3    C23   S    
C45   N1    T    
C1    C11   S    
C16   H3    S    
Cr6   O11   S    
C3    C6    S    
C39   O24   A    
C50   H24   S    
C46   N2    T    
Cr1   O5    S    
C7    C8    S    
O27   C43   S    
C23   O1    A    
C34   O26   A    
C36   O17   A    
C8    C42   S    
C5    C6    S    
C43   H12   S    
O30   C49   S    
C15   C16   S    
C12   O21   A    
C4    C48   S    
Cr3   O4    S    
C18   C19   S    
C9    C13   S    
C48   N3    T    
C2    C7    S    
C11   C15   S    
C19   C20   S    
C28   C35   S    
C27   C39   S    
C16   C17   S    
C18   C26   S    
C32   C41   S    
C9    C10   S    
Cr5   O8    S    
Cr4   O14   S    
Cr1   O1    S    
C15   O27   S    
C38   O3    A    
C21   C22   S    
C1    O20   A    
C49   H21   S    
Cr6   O17   S    
C17   C33   S    
C7    H8    S    
Cr5   O9    S    
C50   H23   S    
C22   H5    S    
Cr2   O5    S    
Cr2   O2    S    
C24   C46   S    
C20   C24   S    
C10   H9    S    
C25   H6    S    
Cr5   O15   S    
Cr4   O7    S    
C44   H14   S    
C43   H11   S    
C13   H10   S    
C25   C26   S    
C29   C34   S    
Cr3   O5    S    
C47   H19   S    
C30   C37   S    
Cr4   O6    S    
Cr6   O19   S    
C12   C40   S    
C29   C30   T    
C2    H1    S    
C44   H15   S    
C20   C38   S    
O29   C47   S    
C49   H20   S    
C47   H18   S    
C6    O30   S    
Cr6   O10   S    
Cr4   O13   S    
C36   O16   A    
C32   O9    A    
C38   O2    A    
C9    C17   S    
C40   C41   T    
C37   O18   A    
C35   O14   A    
Cr1   O12   S    
C37   O13   A    
C49   H22   S    
C22   C24   S    
C5    C8    S    
C34   O25   A    
Cr5   O19   S    
C3    C4    S    
C26   C36   S    
C31   O7    A    
C39   O4    A    
C35   O15   A    
C23   O23   A    
O31   C50   S    
C8    C31   S    
C5    H7    S    
Cr2   O21   S    
Cr3   O23   S    
Cr5   O16   S    
C4    C5    S    
Cr2   O26   S    
C43   H13   S    
Cr4   O19   S    
C6    C7    S    
C33   O11   A    
C1    O12   A    
C32   O10   A    
Cr2   O20   S    
C2    C3    S    
C19   O28   S    
C10   C16   S    
C42   O29   S    
C44   H16   S    
C11   C13   S    
O28   C44   S    
C14   H2    S    
C4    C42   S    
C2    C42   S    
C33   O6    A    
C12   O22   A    
Cr3   O3    S    
C47   H17   S    
Cr3   O22   S    
C50   H25   S    
C19   C25   S    
C10   C11   S    
C20   C21   S    
C22   C26   S    
C27   C28   T    
Cr1   O24   S    
C14   C15   S    
C13   C14   S    
C21   H4    S    
C14   C17   S    
