data_mof_unit_68203.cif
_audit_creation_date              2013-03-05T16:03:15-0500
_audit_creation_method            fapswitch 2.2
_symmetry_space_group_name_H-M    P1
_symmetry_Int_Tables_number       1
_space_group_crystal_system       triclinic
_cell_length_a                    7.310712
_cell_length_b                    13.831126
_cell_length_c                    17.424623
_cell_angle_alpha                 90.568123
_cell_angle_beta                  90.696708
_cell_angle_gamma                 89.001324
_cell_volume                      1761.41651334

loop_
_atom_site_label
_atom_site_type_symbol
_atom_site_description
_atom_site_fract_x
_atom_site_fract_y
_atom_site_fract_z
_atom_type_partial_charge
O1    O     O_R   0.361630 0.167340 0.164570 -0.552199
O2    O     O_R   0.638370 0.832660 0.835430 -0.495617
O3    O     O_R   0.690860 0.157560 0.338690 -0.520454
O4    O     O_R   0.309140 0.842440 0.661310 -0.534234
O5    O     O_R   0.861260 0.336420 0.339380 -0.528995
O6    O     O_R   0.138740 0.663580 0.660620 -0.523431
C1    C     C_R   0.523502 0.135411 0.367903 1.104250
C2    C     C_R   0.476656 0.865530 0.632726 1.054484
O7    O     O_R   0.691330 0.156310 0.165190 -0.503642
O8    O     O_R   0.308670 0.843690 0.834810 -0.544258
O9    O     O_R   0.861730 0.335160 0.164640 -0.520131
O10   O     O_R   0.138270 0.664840 0.835360 -0.577466
C3    C     C_R   0.525906 0.142767 0.132232 1.062108
C4    C     C_R   0.477635 0.859574 0.866867 1.000584
O11   O     O_R   0.361150 0.168600 0.339320 -0.616342
O12   O     O_R   0.638850 0.831400 0.660680 -0.599755
O13   O     O_3   0.527950 0.310560 0.252000 -0.245239
O14   O     O_3   0.472050 0.689440 0.748000 -0.277608
V1    V     V_3+5 0.802770 0.240990 0.251980 1.479287
V2    V     V_3+5 0.197230 0.759010 0.748020 1.420172
O15   O     O_R   0.191450 0.346190 0.165260 -0.501147
O16   O     O_R   0.808550 0.653810 0.834740 -0.492108
C5    C     C_R   0.021669 0.369493 0.137791 1.085876
C6    C     C_R   0.978799 0.628960 0.861404 1.069389
O17   O     O_R   0.190980 0.347440 0.338770 -0.567677
O18   O     O_R   0.809020 0.652560 0.661230 -0.569521
C7    C     C_R   0.020283 0.373867 0.363950 1.211211
C8    C     C_R   0.979082 0.627082 0.635377 1.244227
V3    V     V_3+5 0.302780 0.262760 0.251980 1.429309
V4    V     V_3+5 0.697220 0.737240 0.748020 1.421624
O19   O     O_3   0.027730 0.193200 0.251960 -0.261041
O20   O     O_3   0.972270 0.806800 0.748040 -0.227702
C9    C     C_3   0.937502 0.413336 0.507514 0.185699
C10   C     C_3   0.058120 0.590850 0.490009 0.201148
C11   C     C_3   0.108168 0.453576 0.548476 0.382223
C12   C     C_3   0.887746 0.550134 0.448959 0.387307
C13   C     C_3   0.998073 0.550623 0.568068 -0.593545
C14   C     C_3   0.998449 0.452742 0.429559 -0.578575
C15   C     C_3   0.830404 0.507749 0.526666 0.307938
C16   C     C_3   0.165841 0.496227 0.470923 0.325691
C17   C     C_R   0.985042 0.712149 0.025294 0.340517
C18   C     C_R   0.045297 0.286368 0.975663 0.340630
C19   C     C_R   0.940113 0.743720 0.099572 0.245070
C20   C     C_R   0.102344 0.255463 0.902867 0.271855
C21   C     C_R   0.879474 0.679090 0.150159 0.362127
C22   C     C_R   0.126960 0.320930 0.847541 0.401726
C23   C     C_R   0.949478 0.585971 0.146844 0.282685
C24   C     C_R   0.039616 0.410367 0.851943 0.186918
C25   C     C_R   0.988049 0.540628 0.074389 -0.066383
C26   C     C_R   0.011722 0.456861 0.924781 -0.080681
C27   C     C_R   0.987189 0.605742 0.008128 -0.012302
C28   C     C_R   0.022194 0.392331 0.991369 -0.061396
C29   C     C_R   0.011096 0.435278 0.067132 -0.077093
C30   C     C_R   0.989933 0.562660 0.932047 -0.091155
C31   C     C_3   0.359351 0.989179 0.451399 -0.140989
C32   C     C_3   0.641331 0.012075 0.549481 -0.162639
C33   C     C_3   0.502592 0.909220 0.473909 -0.135615
C34   C     C_3   0.498276 0.092058 0.526925 -0.152776
H1    H     H_    0.505345 0.837267 0.446305 0.260437
H2    H     H_    0.496429 0.164060 0.554480 0.267410
H3    H     H_    0.242145 0.977490 0.411806 0.262744
H4    H     H_    0.758699 0.023702 0.589030 0.266476
C35   C     C_3   0.486754 0.937249 0.560890 -0.355023
C36   C     C_3   0.513909 0.063998 0.439946 -0.358777
C37   C     C_3   0.346014 0.017025 0.537787 0.573902
C38   C     C_3   0.654764 0.984301 0.463118 0.602544
C39   C     C_R   0.543084 0.200043 0.951837 0.303876
C40   C     C_R   0.452348 0.801332 0.046047 0.364624
C41   C     C_R   0.585368 0.216144 0.874170 0.283693
C42   C     C_R   0.390635 0.787811 0.121367 0.249440
C43   C     C_R   0.608440 0.139990 0.823708 0.440021
C44   C     C_R   0.399893 0.862088 0.174567 0.467600
C45   C     C_R   0.622300 0.048151 0.851361 0.193101
C46   C     C_R   0.495327 0.943011 0.156734 0.205825
C47   C     C_R   0.550164 0.024861 0.923965 -0.063421
C48   C     C_R   0.508984 0.972122 0.078933 -0.123607
C49   C     C_R   0.532407 0.101093 0.981050 0.063137
C50   C     C_R   0.485729 0.899083 0.019174 0.034042
C51   C     C_R   0.498292 0.927494 0.938230 -0.028290
C52   C     C_R   0.527512 0.072784 0.062386 -0.010497
S1    S     S_3+6 0.256946 0.364163 0.589422 0.140681
O21   O     O_2   0.372420 0.404625 0.653033 -0.116416
O22   O     O_2   0.155874 0.278169 0.616886 -0.098174
O23   O     O_3   0.390656 0.323676 0.519398 -0.484616
H5    H     H_    0.308976 0.288456 0.483532 0.346326
S2    S     S_3+6 0.732539 0.636054 0.406131 0.149068
O24   O     O_2   0.823365 0.726898 0.381798 -0.108805
O25   O     O_2   0.630567 0.592531 0.339589 -0.079201
O26   O     O_3   0.586248 0.670311 0.473584 -0.480872
H6    H     H_    0.661008 0.705408 0.512254 0.347300
Cl1   Cl    Cl    0.139411 0.042981 0.587048 -0.441863
Cl2   Cl    Cl    0.862865 0.959144 0.414795 -0.416410
Cl3   Cl    Cl    0.324293 0.848521 0.269204 -0.446351
Cl4   Cl    Cl    0.649503 0.158448 0.725641 -0.403001
S3    S     S_3+6 0.504486 0.306896 0.005437 -0.029016
O27   O     O_2   0.360975 0.288193 0.060757 -0.335822
O28   O     O_2   0.674723 0.333048 0.046925 -0.288647
O29   O     O_3   0.432433 0.403344 0.954826 -0.521100
H7    H     H_    0.407929 0.454184 0.993942 0.403199
S4    S     S_3+6 0.512876 0.693318 0.996976 -0.039096
O30   O     O_2   0.656709 0.715473 0.942831 -0.328657
O31   O     O_2   0.587374 0.616139 0.049196 -0.266502
O32   O     O_3   0.338740 0.646936 0.949027 -0.554829
H8    H     H_    0.394851 0.596028 0.916029 0.382406
Cl5   Cl    Cl    0.638665 0.330934 0.838732 -0.421359
Cl6   Cl    Cl    0.337105 0.673111 0.156197 -0.498470
Cl7   Cl    Cl    0.821251 0.990511 0.816069 -0.400752
Cl8   Cl    Cl    0.640084 0.982845 0.232113 -0.471229
S5    S     S_3+6 0.843725 0.294295 0.511398 0.074046
O33   O     O_2   0.684065 0.289929 0.457423 -0.268344
O34   O     O_2   0.982583 0.219782 0.485843 -0.267477
O35   O     O_3   0.775488 0.267851 0.599609 -0.352116
H9    H     H_    0.677188 0.315449 0.611157 0.431539
S6    S     S_3+6 0.145691 0.711377 0.487664 0.074386
O36   O     O_2   0.001254 0.782497 0.513778 -0.261185
O37   O     O_2   0.304042 0.717408 0.542186 -0.271098
O38   O     O_3   0.215814 0.742166 0.400771 -0.385689
H10   H     H_    0.310493 0.693275 0.387186 0.425500
Cl9   Cl    Cl    0.617882 0.510455 0.572995 -0.396212
Cl10  Cl    Cl    0.378656 0.492241 0.424873 -0.379861
Cl11  Cl    Cl    0.255910 0.282685 0.768636 -0.348165
Cl12  Cl    Cl    0.737198 0.721815 0.223562 -0.332835
S7    S     S_3+6 0.987898 0.818982 0.966762 0.046043
O39   O     O_2   0.986468 0.810694 0.883237 -0.209173
O40   O     O_2   0.823466 0.876643 0.985991 -0.235219
O41   O     O_3   0.147730 0.895575 0.990523 -0.572326
H11   H     H_    0.129722 0.949505 0.954093 0.430983
S8    S     S_3+6 0.017714 0.180073 0.033052 0.027433
O42   O     O_2   0.988429 0.187830 0.115483 -0.248328
O43   O     O_2   0.870994 0.122079 0.998113 -0.287516
O44   O     O_3   0.192313 0.104777 0.027087 -0.529043
H12   H     H_    0.163046 0.052213 0.062977 0.401587
Cl13  Cl    Cl    0.960525 0.864777 0.135667 -0.446125
Cl14  Cl    Cl    0.135108 0.132147 0.872771 -0.489226
S9    S     S_3+6 0.018497 0.545790 0.237142 0.005245
O45   O     O_2   0.862720 0.485802 0.261433 -0.303032
O46   O     O_2   0.199174 0.493561 0.238063 -0.245569
O47   O     O_3   0.045564 0.636454 0.299204 -0.412911
H13   H     H_    0.105926 0.687839 0.270659 0.421391
S10   S     S_3+6 0.969980 0.451323 0.761602 0.024564
O48   O     O_2   0.937593 0.367521 0.708856 -0.118315
O49   O     O_2   0.793729 0.507527 0.761457 -0.239752
O50   O     O_3   0.150892 0.512551 0.732329 -0.556635
H14   H     H_    0.251123 0.502223 0.770296 0.364042

loop_
_geom_bond_atom_site_label_1
_geom_bond_atom_site_label_2
_geom_bond_distance
_ccdc_geom_bond_type
S9    O47   1.660614 S    
V4    O20   2.244192 S    
C35   C37   1.548338 S    
O41   H11   0.990252 S    
O11   V3    2.049000 S    
C10   C13   1.546072 S    
O13   V3    1.784608 S    
S3    O27   1.461443 D    
C39   C49   1.468586 A    
S10   O50   1.670509 S    
C33   C38   1.549386 S    
O4    C2    1.371673 A    
V1    O19   1.761758 S    
S8    O42   1.457399 D    
S1    O21   1.495270 D    
C11   S1    1.781335 S    
S3    O29   1.679955 S    
S7    O39   1.458693 D    
C23   C25   1.433025 A    
C43   Cl4   1.760409 S    
O9    V1    2.067160 S    
C9    C15   1.546504 S    
C46   C48   1.423161 A    
C10   C16   1.550930 S    
O16   C6    1.362840 A    
C11   C13   1.589346 S    
C48   C50   1.454148 A    
O3    C1    1.371581 A    
S5    O34   1.502124 D    
C9    C11   1.539673 S    
C25   C29   1.468272 A    
C45   Cl7   1.760922 S    
C7    C14   1.579933 S    
C6    C30   1.542737 S    
O50   H14   0.990679 S    
O17   V3    2.070835 S    
C19   Cl13  1.790769 S    
C41   C43   1.374795 A    
O7    C3    1.347717 A    
S7    O40   1.471203 D    
S1    O22   1.496721 D    
O5    C7    1.344467 A    
O7    V1    2.071394 S    
O6    C8    1.346969 A    
O8    V2    2.071395 S    
C25   C27   1.471201 A    
C26   C28   1.471285 A    
C22   Cl11  1.748878 S    
O3    V1    2.093140 S    
O14   V4    1.784609 S    
C10   C12   1.541091 S    
C18   S8    1.801788 S    
C24   C26   1.432298 A    
C3    C52   1.547514 S    
C2    O12   1.355400 A    
S9    O46   1.494416 D    
C39   S3    1.760853 S    
C17   C19   1.402800 A    
C18   C20   1.400544 A    
O1    V3    2.050113 S    
O35   H9    0.987284 S    
C31   C37   1.553858 S    
C20   C22   1.344935 A    
S6    O36   1.502087 D    
C34   H2    1.101217 S    
C21   C23   1.378516 A    
C40   C50   1.460667 A    
C10   S6    1.797135 S    
C22   C24   1.384054 A    
C24   S10   1.745321 S    
S2    O25   1.497759 D    
S9    O45   1.488667 D    
O23   H5    0.989674 S    
C44   C46   1.369472 A    
C42   Cl6   1.756344 S    
S5    O35   1.667715 S    
C43   C45   1.364705 A    
C41   Cl5   1.760880 S    
C50   C51   1.472253 A    
S7    O41   1.637594 S    
C38   Cl2   1.775244 S    
C1    O11   1.355985 A    
C34   C36   1.565770 S    
C12   S2    1.790691 S    
O15   V3    2.061368 S    
S4    O32   1.649917 S    
C39   C41   1.412505 A    
C36   C38   1.548423 S    
C40   S4    1.766253 S    
C47   C49   1.447588 A    
C34   C37   1.549579 S    
C31   C36   1.561332 S    
O10   V2    2.067160 S    
S4    O31   1.500350 D    
C32   C35   1.561398 S    
C26   C30   1.473572 A    
C4    C51   1.558448 S    
S10   O48   1.492440 D    
C19   C21   1.345913 A    
C20   Cl14  1.792354 S    
C44   Cl3   1.758367 S    
C40   C42   1.408253 A    
C16   Cl10  1.758979 S    
O18   V4    2.070837 S    
C31   C33   1.559418 S    
O8    C4    1.369808 A    
C32   H4    1.106891 S    
O1    C3    1.368866 A    
C45   C47   1.418654 A    
O44   H12   0.991529 S    
C15   Cl9   1.759230 S    
S8    O44   1.636892 S    
S1    O23   1.659594 S    
C28   C29   1.444839 A    
V2    O20   1.761758 S    
C49   C52   1.475105 A    
C37   Cl1   1.775817 S    
O16   V4    2.061367 S    
C23   S9    1.739911 S    
S2    O24   1.498637 D    
C12   C15   1.546245 S    
C48   C52   1.433654 A    
C33   C35   1.565828 S    
S10   O49   1.493198 D    
S2    O26   1.658799 S    
S8    O43   1.472749 D    
S6    O37   1.491552 D    
S3    O28   1.480187 D    
O5    V1    2.051396 S    
C21   Cl12  1.750126 S    
O17   C7    1.370269 A    
O6    V2    2.051398 S    
O10   C6    1.359747 A    
O18   C8    1.366766 A    
C9    C14   1.542249 S    
O2    V4    2.050109 S    
C27   C30   1.448261 A    
C17   S7    1.804289 S    
O15   C5    1.359512 A    
C11   C16   1.546018 S    
V3    O19   2.244192 S    
O38   H10   0.988384 S    
C12   C14   1.594802 S    
C14   C16   1.540921 S    
C47   C51   1.430350 A    
C8    C13   1.577141 S    
C32   C38   1.553260 S    
C31   H3    1.106585 S    
C5    C29   1.538567 S    
O9    C5    1.359641 A    
S4    O30   1.459722 D    
O13   V1    2.212490 S    
C32   C34   1.558956 S    
O14   V2    2.212491 S    
O2    C4    1.347525 A    
C1    C36   1.607945 S    
S6    O38   1.666098 S    
C33   H1    1.100993 S    
O47   H13   0.985147 S    
C2    C35   1.607989 S    
C46   Cl8   1.766583 S    
O4    V2    2.093144 S    
C9    S5    1.796711 S    
C13   C15   1.539476 S    
O29   H7    0.990034 S    
O32   H8    0.991107 S    
C42   C44   1.378883 A    
O26   H6    0.991038 S    
S5    O33   1.491721 D    
O12   V4    2.049000 S    
C17   C27   1.498748 A    
C18   C28   1.495293 A    
