data_mof_unit_25922.cif
_audit_creation_date              2012-12-11T17:08:34-0500
_audit_creation_method            fapswitch 2.2
_symmetry_space_group_name_H-M    P1
_symmetry_Int_Tables_number       1
_space_group_crystal_system       triclinic
_cell_length_a                    6.98778
_cell_length_b                    14.913212
_cell_length_c                    15.770974
_cell_angle_alpha                 89.891746
_cell_angle_beta                  90.309127
_cell_angle_gamma                 90.049303
_cell_volume                      1643.46960945

loop_
_atom_site_label
_atom_site_type_symbol
_atom_type_description
_atom_site_fract_x
_atom_site_fract_y
_atom_site_fract_z
_atom_type_partial_charge
O1    O     O_R   0.505700 0.583890 0.413310 -0.544571
O2    O     O_R   0.175960 0.594920 0.586080 -0.513397
O3    O     O_R   0.005660 0.416110 0.586690 -0.539246
C1    C     C_R   0.345704 0.619194 0.612378 0.747212
O4    O     O_R   0.175980 0.594920 0.413930 -0.544630
O5    O     O_R   0.005680 0.416110 0.413310 -0.539523
C2    C     C_R   0.345607 0.619246 0.386849 0.678889
O6    O     O_R   0.505680 0.583890 0.586690 -0.545840
O7    O     O_3   0.339200 0.441330 0.500000 -0.377035
V1    V     V_3+5 0.064350 0.510880 0.500000 1.412915
O8    O     O_R   0.675960 0.405080 0.413920 -0.547675
C3    C     C_R   0.843486 0.382201 0.385542 0.671694
O9    O     O_R   0.675940 0.405080 0.586070 -0.541069
C4    C     C_R   0.844740 0.383589 0.615179 0.693020
V2    V     V_3+5 0.564340 0.489120 0.500000 1.376389
O10   O     O_3   0.839360 0.558670 0.500000 -0.371811
C5    C     C_R   0.992804 0.318952 0.748487 0.055662
C6    C     C_R   0.850903 0.317368 0.685454 -0.123825
C7    C     C_R   0.703814 0.252908 0.695713 -0.186134
H1    H     H_    0.584736 0.250678 0.651590 0.126658
C8    C     C_R   0.714129 0.187428 0.760792 -0.190996
H2    H     H_    0.602481 0.137291 0.764911 0.121354
C9    C     C_R   0.873216 0.183764 0.816441 -0.102574
C10   C     C_R   0.005980 0.252650 0.809158 0.083999
C11   C     C_3   0.217634 0.256874 0.813592 -0.430400
C12   C     C_3   0.204385 0.335651 0.750389 -0.168290
H3    H     H_    0.284294 0.196136 0.785853 0.159895
H4    H     H_    0.267931 0.273783 0.878672 0.173376
H5    H     H_    0.276428 0.322887 0.688953 0.136741
C13   C     C_R   0.722538 0.230490 0.197665 0.107325
C14   C     C_R   0.883432 0.178102 0.188271 -0.113960
C15   C     C_R   0.033816 0.192867 0.246036 -0.195911
H6    H     H_    0.160146 0.151364 0.243671 0.130396
C16   C     C_R   0.016372 0.257985 0.310725 -0.157909
H7    H     H_    0.129526 0.263952 0.357308 0.123766
C17   C     C_R   0.851203 0.312377 0.317715 -0.130385
C18   C     C_R   0.708228 0.301538 0.253940 0.061860
C19   C     C_3   0.492323 0.288311 0.255707 -0.168980
C20   C     C_3   0.523009 0.201226 0.206517 -0.441688
H8    H     H_    0.438674 0.278796 0.321134 0.127671
H9    H     H_    0.460126 0.190408 0.143196 0.181291
H10   H     H_    0.512771 0.140953 0.247961 0.149108
C21   C     C_R   0.516731 0.701165 0.729006 0.081861
C22   C     C_R   0.357622 0.691822 0.676251 -0.191562
C23   C     C_R   0.210676 0.756808 0.687280 0.393329
C24   C     C_R   0.219213 0.817907 0.757212 -0.291084
H11   H     H_    0.101869 0.864077 0.766826 0.135445
C25   C     C_R   0.379405 0.820704 0.812591 -0.173486
C26   C     C_R   0.527823 0.762256 0.792875 0.111501
C27   C     C_3   0.716903 0.728612 0.823124 -0.409465
C28   C     C_3   0.704163 0.659674 0.750628 -0.396642
H12   H     H_    0.709288 0.697930 0.887211 0.155439
H13   H     H_    0.831929 0.779044 0.814696 0.182141
H14   H     H_    0.690975 0.589367 0.772055 0.167428
H15   H     H_    0.810474 0.669421 0.699955 0.229423
C29   C     C_R   0.516992 0.748287 0.312297 0.085026
C30   C     C_R   0.355576 0.694237 0.323754 -0.127851
C31   C     C_R   0.197033 0.716386 0.273779 -0.203993
H16   H     H_    0.073981 0.675726 0.278609 0.151842
C32   C     C_R   0.207503 0.780680 0.208667 -0.177326
H17   H     H_    0.090297 0.785133 0.164018 0.142624
C33   C     C_R   0.374509 0.831949 0.196359 -0.110952
C34   C     C_R   0.519232 0.823063 0.258335 0.074511
C35   C     C_3   0.730736 0.817225 0.248076 -0.463049
C36   C     C_3   0.718194 0.725178 0.290597 -0.163745
H18   H     H_    0.804968 0.867562 0.288553 0.158620
H19   H     H_    0.780681 0.819549 0.181749 0.181896
H20   H     H_    0.808340 0.718295 0.348504 0.129273
O11   O     O_R   0.229000 0.916070 0.913330 -0.538613
O12   O     O_R   0.558770 0.905070 0.086080 -0.545493
O13   O     O_R   0.729000 0.083900 0.086690 -0.537483
C37   C     C_R   0.390454 0.889785 0.119726 0.686403
O14   O     O_R   0.558720 0.905070 0.913930 -0.540045
O15   O     O_R   0.728960 0.083900 0.913310 -0.538285
C38   C     C_R   0.389727 0.884296 0.884452 0.724118
O16   O     O_R   0.229050 0.916070 0.086710 -0.540457
O17   O     O_3   0.395460 0.058650 0.000020 -0.375101
V3    V     V_3+5 0.670340 0.989120 0.000000 1.379247
O18   O     O_R   0.058670 0.094960 0.913900 -0.539370
C39   C     C_R   0.889037 0.115198 0.883980 0.699350
O19   O     O_R   0.058720 0.094960 0.086050 -0.547524
C40   C     C_R   0.891423 0.112213 0.118267 0.696537
V4    V     V_3+5 0.170330 0.010930 0.999970 1.374979
O20   O     O_3   0.895340 0.941350 0.999980 -0.373315
O21   O     O_3   0.055159 0.757220 0.632497 -0.562847
C41   C     C_3   0.038678 0.840180 0.589083 0.097725
H21   H     H_    0.130707 0.895047 0.614810 0.058468
H22   H     H_    0.082935 0.830324 0.522137 0.124922
C42   C     C_3   0.830429 0.871867 0.591453 -0.319460
H23   H     H_    0.779630 0.871951 0.658143 0.191192
H24   H     H_    0.822093 0.941694 0.566952 0.144113
C43   C     C_3   0.699464 0.812467 0.537726 -0.689167
H25   H     H_    0.739146 0.817815 0.469865 0.200359
H26   H     H_    0.548708 0.834600 0.544874 0.184654
H27   H     H_    0.710409 0.741393 0.558058 0.257619
C44   C     C_R   0.731643 0.648113 0.226540 0.135364
C45   C     C_R   0.677905 0.658463 0.140334 -0.130360
C46   C     C_R   0.712273 0.591029 0.081698 -0.141179
C47   C     C_R   0.795729 0.510922 0.107446 -0.059426
C48   C     C_R   0.850311 0.499596 0.191930 -0.119091
C49   C     C_R   0.813794 0.566414 0.251642 -0.188243
H28   H     H_    0.608882 0.718121 0.116802 0.115758
H29   H     H_    0.674741 0.601988 0.016286 0.094493
H30   H     H_    0.821649 0.458484 0.061648 0.102791
H31   H     H_    0.927350 0.440190 0.210264 0.133000
H32   H     H_    0.858279 0.556449 0.316693 0.137778
C50   C     C_R   0.260035 0.423204 0.792441 0.145017
C51   C     C_R   0.131399 0.495610 0.799574 -0.118169
C52   C     C_R   0.179314 0.570157 0.848860 -0.146559
C53   C     C_R   0.355364 0.573384 0.890930 -0.087582
C54   C     C_R   0.485987 0.503181 0.881811 -0.140557
C55   C     C_R   0.440514 0.429596 0.831426 -0.153398
H33   H     H_    0.992675 0.493886 0.768876 0.093206
H34   H     H_    0.079368 0.625078 0.855109 0.128083
H35   H     H_    0.390877 0.630802 0.929761 0.098027
H36   H     H_    0.624526 0.505607 0.912276 0.105104
H37   H     H_    0.543133 0.375582 0.825862 0.130972
C56   C     C_R   0.386566 0.360130 0.203820 0.148921
C57   C     C_R   0.279016 0.341017 0.129231 -0.116572
C58   C     C_R   0.217757 0.409716 0.075510 -0.148419
C59   C     C_R   0.248928 0.498536 0.098049 -0.077258
C60   C     C_R   0.334028 0.518166 0.175685 -0.119793
C61   C     C_R   0.403159 0.449929 0.228274 -0.131360
H38   H     H_    0.239842 0.274131 0.110486 0.116408
H39   H     H_    0.143253 0.393997 0.017008 0.116862
H40   H     H_    0.199711 0.552257 0.057261 0.118804
H41   H     H_    0.352785 0.586777 0.193087 0.138095
H42   H     H_    0.476450 0.467236 0.286352 0.132184

loop_
_geom_bond_atom_site_label_1
_geom_bond_atom_site_label_2
_ccdc_geom_bond_type
O18   V4    S    
O12   V3    S    
C50   C55   A    
C4    C6    S    
O2    C1    A    
C7    H1    S    
C1    O6    A    
O19   C40   A    
C61   H42   S    
C20   H9    S    
C23   C24   A    
C29   C30   A    
C11   H4    S    
C48   H31   S    
C18   C19   S    
C14   C40   S    
V4    O20   S    
C5    C12   S    
C17   C18   A    
C7    C8    A    
C6    C7    A    
O5    C3    A    
C19   C20   S    
C41   H22   S    
O17   V4    S    
C46   H29   S    
C31   C32   A    
V2    O10   S    
C51   C52   A    
C32   C33   A    
C16   H7    S    
C60   H41   S    
C56   C57   A    
C48   C49   A    
O1    C2    A    
C53   C54   A    
O8    V2    S    
C36   C44   S    
C14   C15   A    
C5    C6    A    
C27   H12   S    
C50   C51   A    
C54   H36   S    
O1    V2    S    
C9    C39   S    
C3    C17   S    
O7    V1    S    
C16   C17   A    
C45   H28   S    
C37   O16   A    
O13   C40   A    
C47   H30   S    
C57   H38   S    
O9    C4    A    
O14   C38   A    
C25   C38   S    
O16   V4    S    
O19   V4    S    
C45   C46   A    
C20   H10   S    
C24   C25   A    
C27   H13   S    
C5    C10   A    
C35   H19   S    
C44   C49   A    
C10   C11   S    
O4    C2    A    
C58   H39   S    
C21   C26   A    
C1    C22   S    
C11   C12   S    
O17   V3    S    
C43   H27   S    
O18   C39   A    
C13   C18   A    
C32   H17   S    
C15   C16   A    
C51   H33   S    
C23   O21   S    
C21   C22   A    
C33   C34   A    
O11   V4    S    
C47   C48   A    
C13   C14   A    
O14   V3    S    
C36   H20   S    
C44   C45   A    
C43   H26   S    
C27   C28   S    
C29   C34   A    
C33   C37   S    
C42   C43   S    
C59   C60   A    
O3    C4    A    
C52   H34   S    
C25   C26   A    
C26   C27   S    
O6    V2    S    
C8    C9    A    
C42   H24   S    
O2    V1    S    
C58   C59   A    
C49   H32   S    
C24   H11   S    
C54   C55   A    
C41   H21   S    
C22   C23   A    
C41   C42   S    
O21   C41   S    
C12   C50   S    
O5    V1    S    
O12   C37   A    
C57   C58   A    
C11   H3    S    
C28   H14   S    
C15   H6    S    
O9    V2    S    
C31   H16   S    
O4    V1    S    
O3    V1    S    
V1    O10   S    
C52   C53   A    
C35   C36   S    
C19   H8    S    
C21   C28   S    
C30   C31   A    
C55   H37   S    
C43   H25   S    
C13   C20   S    
O11   C38   A    
C28   H15   S    
C56   C61   A    
O7    V2    S    
C9    C10   A    
C34   C35   S    
C19   C56   S    
V3    O20   S    
C59   H40   S    
C12   H5    S    
C46   C47   A    
O15   V3    S    
C60   C61   A    
O15   C39   A    
C42   H23   S    
C8    H2    S    
C53   H35   S    
C2    C30   S    
O13   V3    S    
C29   C36   S    
O8    C3    A    
C35   H18   S    
