data_mof_unit_63772.cif
_audit_creation_date              2012-12-10T20:19:15-0500
_audit_creation_method            fapswitch 2.2
_symmetry_space_group_name_H-M    P1
_symmetry_Int_Tables_number       1
_space_group_crystal_system       triclinic
_cell_length_a                    41.541131
_cell_length_b                    35.498493
_cell_length_c                    21.482217
_cell_angle_alpha                 90.000069
_cell_angle_beta                  58.627861
_cell_angle_gamma                 89.999985
_cell_volume                      27047.401049

loop_
_atom_site_label
_atom_site_type_symbol
_atom_type_description
_atom_site_fract_x
_atom_site_fract_y
_atom_site_fract_z
_atom_type_partial_charge
C1    C     C_R   0.926627 0.499977 0.574810 0.826856
C2    C     C_R   0.326076 0.502946 0.119366 -0.166169
C3    C     C_R   1.000000 0.806900 1.000000 0.160960
C4    C     C_1   0.500000 0.266869 1.000000 -0.067876
C5    C     C_1   1.000000 0.766869 1.000000 -0.067876
C6    C     C_1   1.000000 0.733212 1.000000 -0.069875
C7    C     C_1   0.500000 0.233212 1.000000 -0.069875
C8    C     C_R   0.034205 0.673727 0.965871 -0.165289
C9    C     C_R   0.965795 0.673727 0.034128 -0.165290
C10   C     C_R   0.534205 0.173727 0.965872 -0.165289
C11   C     C_R   0.465795 0.173727 0.034128 -0.165290
C12   C     C_R   0.034252 0.634536 0.965823 -0.205159
C13   C     C_R   0.173924 0.002953 0.880633 -0.166174
C14   C     C_R   0.965747 0.634536 0.034176 -0.205159
C15   C     C_R   0.534252 0.134536 0.965824 -0.205159
C16   C     C_R   0.465748 0.134536 0.034176 -0.205159
C17   C     C_R   1.000000 0.614654 1.000000 -0.040445
C18   C     C_R   0.500000 0.114654 1.000000 -0.040445
C19   C     C_3   0.963975 0.520911 0.251989 -0.388037
C20   C     C_3   0.036025 0.520910 0.748011 -0.388034
C21   C     C_3   0.463975 0.020910 0.251989 -0.388034
C22   C     C_3   0.536025 0.020910 0.748011 -0.388038
C23   C     C_R   1.000000 0.693181 1.000000 0.160839
C24   C     C_R   0.826076 0.002950 0.119367 -0.166172
C25   C     C_R   0.500000 0.193181 1.000000 0.160839
C26   C     C_R   0.529456 0.673759 0.998708 -0.244675
C27   C     C_R   0.470544 0.673759 0.001293 -0.244675
C28   C     C_R   0.029456 0.173759 0.998707 -0.244676
C29   C     C_R   0.970544 0.173759 0.001293 -0.244674
C30   C     C_R   0.530334 0.634451 0.997438 -0.043288
C31   C     C_R   0.469666 0.634451 0.002562 -0.043290
C32   C     C_R   0.030334 0.134451 0.997438 -0.043289
C33   C     C_R   0.969666 0.134451 0.002562 -0.043290
C34   C     C_R   0.500000 0.614399 0.000000 -0.093104
C35   C     C_R   0.634707 0.501980 0.920676 -0.158310
C36   C     C_R   1.000000 0.114399 0.000000 -0.093103
C37   C     C_R   0.500000 0.693062 0.000000 0.163144
C38   C     C_R   1.000000 0.193062 0.000000 0.163144
C39   C     C_1   0.500000 0.733097 0.000000 -0.035963
C40   C     C_1   0.000000 0.233097 1.000000 -0.035963
C41   C     C_1   0.000000 0.266743 1.000000 -0.068342
C42   C     C_1   0.500000 0.766743 0.000000 -0.068342
C43   C     C_R   0.034205 0.326202 0.966272 -0.154076
C44   C     C_R   0.965795 0.326202 0.033727 -0.154077
C45   C     C_R   0.534205 0.826202 0.966273 -0.154077
C46   C     C_R   0.365292 0.501974 0.079323 -0.158325
C47   C     C_R   0.465795 0.826202 0.033728 -0.154076
C48   C     C_R   0.034253 0.365387 0.966220 -0.194721
C49   C     C_R   0.965747 0.365387 0.033780 -0.194720
C50   C     C_R   0.534253 0.865387 0.966220 -0.194720
C51   C     C_R   0.465747 0.865387 0.033780 -0.194721
C52   C     C_R   0.000000 0.385261 1.000000 -0.047995
C53   C     C_R   0.500000 0.885261 0.000000 -0.047996
C54   C     C_3   0.034570 0.523257 0.251461 -0.422884
C55   C     C_3   0.965430 0.523257 0.748539 -0.422885
C56   C     C_3   0.534570 0.023257 0.251461 -0.422885
C57   C     C_R   0.134707 0.001981 0.920676 -0.158310
C58   C     C_3   0.465430 0.023257 0.748539 -0.422887
C59   C     C_R   0.000000 0.306758 1.000000 0.159426
C60   C     C_R   0.500000 0.806758 0.000000 0.159426
C61   C     C_3   0.002708 0.458534 0.279860 -0.132070
C62   C     C_3   0.997291 0.458534 0.720140 -0.132071
C63   C     C_3   0.502709 0.958534 0.279860 -0.132071
C64   C     C_3   0.497291 0.958534 0.720140 -0.132070
C65   C     C_3   0.000814 0.499617 0.309345 0.093265
C66   C     C_3   0.999186 0.499617 0.690655 0.093265
C67   C     C_3   0.500814 0.999617 0.309345 0.093265
C68   C     C_R   0.865293 0.001977 0.079323 -0.158317
C69   C     C_3   0.499186 0.999617 0.690655 0.093265
C70   C     C_3   0.999923 0.501683 0.189458 0.155816
C71   C     C_3   0.000077 0.501683 0.810542 0.155816
C72   C     C_3   0.499923 0.001683 0.189458 0.155817
C73   C     C_3   0.500077 0.001683 0.810542 0.155817
C74   C     C_3   0.035255 0.522595 0.179372 -0.388846
C75   C     C_3   0.964745 0.522596 0.820628 -0.388846
C76   C     C_3   0.535255 0.022596 0.179372 -0.388847
C77   C     C_3   0.464745 0.022596 0.820628 -0.388846
C78   C     C_2   0.882813 0.450382 0.704621 0.401794
C79   C     C_R   0.614601 0.500781 0.884617 -0.017119
C80   C     C_2   0.117187 0.450382 0.295379 0.401793
C81   C     C_2   0.382813 0.950382 0.704621 0.401793
C82   C     C_2   0.617187 0.950382 0.295378 0.401791
C83   C     C_2   0.564123 0.616261 0.991282 0.377784
C84   C     C_2   0.435877 0.616261 0.008718 0.377786
C85   C     C_2   0.064123 0.116261 0.991282 0.377784
C86   C     C_2   0.935877 0.116261 0.008719 0.377785
C87   C     C_2   0.037553 0.437015 0.264568 0.416587
C88   C     C_2   0.962446 0.437015 0.735432 0.416583
C89   C     C_2   0.537553 0.937015 0.264568 0.416585
C90   C     C_R   0.385398 0.500781 0.115383 -0.017114
C91   C     C_2   0.462447 0.937015 0.735432 0.416584
C92   C     C_R   0.114601 0.000781 0.884617 -0.017118
C93   C     C_R   0.073373 0.499977 0.425190 0.826858
C94   C     C_R   0.885398 0.000781 0.115383 -0.017115
C95   C     C_R   0.634295 0.500675 0.808009 -0.196554
C96   C     C_R   0.365705 0.500682 0.191991 -0.196543
C97   C     C_R   0.134295 0.000675 0.808009 -0.196557
C98   C     C_R   0.865705 0.000678 0.191991 -0.196550
C99   C     C_R   0.673496 0.501643 0.768143 -0.160620
C100  C     C_R   0.326504 0.501650 0.231857 -0.160624
C101  C     C_R   0.173496 0.001643 0.768143 -0.160619
C102  C     C_R   0.826504 0.001646 0.231857 -0.160621
C103  C     C_R   0.693172 0.502759 0.804551 0.156700
C104  C     C_R   0.426627 0.999977 0.574810 0.826857
C105  C     C_R   0.306828 0.502759 0.195449 0.156701
C106  C     C_R   0.193172 0.002759 0.804551 0.156700
C107  C     C_R   0.806828 0.002759 0.195449 0.156701
C108  C     C_1   0.733230 0.502979 0.763834 -0.059225
C109  C     C_1   0.266769 0.502978 0.236166 -0.059225
C110  C     C_1   0.233230 0.002979 0.763834 -0.059225
C111  C     C_1   0.766769 0.002978 0.236166 -0.059225
C112  C     C_1   0.766910 0.502689 0.730264 -0.053864
C113  C     C_1   0.233090 0.502688 0.269735 -0.053864
C114  C     C_1   0.266910 0.002689 0.730265 -0.053864
C115  C     C_R   0.573373 0.999977 0.425190 0.826857
C116  C     C_1   0.733090 0.002688 0.269735 -0.053864
C117  C     C_R   0.825008 0.476507 0.713232 -0.126166
C118  C     C_R   0.174992 0.476507 0.286768 -0.126166
C119  C     C_R   0.325008 0.976507 0.713232 -0.126167
C120  C     C_R   0.674992 0.976507 0.286768 -0.126166
C121  C     C_R   0.000551 0.499825 0.377875 0.817739
C122  C     C_R   0.999449 0.499825 0.622125 0.817740
C123  C     C_R   0.500551 0.999825 0.377875 0.817740
C124  C     C_R   0.499449 0.999825 0.622124 0.817740
C125  C     C_R   0.864439 0.475547 0.676917 -0.038801
C126  C     C_3   0.000810 0.460237 0.210136 -0.468693
C127  C     C_R   0.135560 0.475547 0.323083 -0.038800
C128  C     C_R   0.364440 0.975547 0.676917 -0.038800
C129  C     C_R   0.635560 0.975547 0.323083 -0.038800
C130  C     C_R   0.885455 0.500166 0.617064 -0.120042
C131  C     C_R   0.114545 0.500165 0.382936 -0.120042
C132  C     C_R   0.385455 0.000166 0.617064 -0.120042
C133  C     C_R   0.614545 0.000165 0.382936 -0.120041
C134  C     C_R   0.866797 0.525596 0.596438 -0.191771
C135  C     C_R   0.133203 0.525595 0.403562 -0.191770
C136  C     C_R   0.366797 0.025595 0.596438 -0.191770
C137  C     C_3   0.999189 0.460237 0.789864 -0.468693
C138  C     C_R   0.633203 0.025595 0.403563 -0.191770
C139  C     C_R   0.827672 0.526351 0.633506 -0.159098
C140  C     C_R   0.172328 0.526350 0.366494 -0.159097
C141  C     C_R   0.327672 0.026351 0.633506 -0.159099
C142  C     C_R   0.672328 0.026350 0.366494 -0.159098
C143  C     C_R   0.806957 0.501748 0.691538 0.105626
C144  C     C_R   0.193043 0.501748 0.308462 0.105626
C145  C     C_R   0.306957 0.001748 0.691538 0.105626
C146  C     C_R   0.693043 0.001748 0.308462 0.105626
C147  C     C_R   1.000000 0.573411 0.000000 0.854084
C148  C     C_3   0.500810 0.960237 0.210136 -0.468694
C149  C     C_R   0.500000 0.073411 0.000000 0.854084
C150  C     C_R   0.999900 0.502189 0.121475 0.852362
C151  C     C_R   0.000100 0.502189 0.878525 0.852362
C152  C     C_R   0.499900 0.002189 0.121475 0.852362
C153  C     C_R   0.500100 0.002189 0.878525 0.852362
C154  C     C_R   0.000000 0.426492 1.000000 0.879342
C155  C     C_R   0.500000 0.926492 1.000000 0.879342
C156  C     C_R   0.500000 0.426706 1.000000 0.848449
C157  C     C_R   0.000000 0.926706 1.000000 0.848449
C158  C     C_R   0.573315 0.500030 0.926503 0.926941
C159  C     C_3   0.499190 0.960237 0.789864 -0.468693
C160  C     C_R   0.426685 0.500030 0.073496 0.926941
C161  C     C_R   0.073315 0.000030 0.926503 0.926941
C162  C     C_R   0.926685 0.000030 0.073496 0.926942
C163  C     C_3   0.963904 0.518461 0.323437 -0.418403
C164  C     C_3   0.036096 0.518461 0.676563 -0.418403
C165  C     C_3   0.463905 0.018461 0.323437 -0.418402
C166  C     C_3   0.536095 0.018461 0.676563 -0.418401
C167  C     C_R   0.500000 0.573244 0.000000 1.039005
C168  C     C_R   0.000000 0.073244 0.000000 1.039006
C169  C     C_R   0.499908 0.326354 0.943622 -0.164426
C170  C     C_R   0.673924 0.502953 0.880633 -0.166175
C171  C     C_R   0.500091 0.326354 0.056378 -0.164427
C172  C     C_R   0.999908 0.826354 0.943622 -0.164427
C173  C     C_R   0.000091 0.826354 0.056378 -0.164426
C174  C     C_R   0.499908 0.365545 0.943540 -0.198168
C175  C     C_R   0.500092 0.365545 0.056459 -0.198167
C176  C     C_R   0.999908 0.865545 0.943540 -0.198168
C177  C     C_R   0.000092 0.865545 0.056459 -0.198168
C178  C     C_R   0.500000 0.385441 1.000000 -0.032079
C179  C     C_R   1.000000 0.885441 1.000000 -0.032079
C180  C     C_R   0.500000 0.306900 1.000000 0.160960
H1    H     H_    0.960944 0.547343 0.346039 0.187569
H2    H     H_    0.938337 0.512371 0.756955 0.136911
H3    H     H_    0.917875 0.132333 0.995761 0.069345
H4    H     H_    0.938062 0.507010 0.260001 0.187408
H5    H     H_    0.061938 0.507009 0.739999 0.187407
H6    H     H_    0.438062 0.007009 0.260001 0.187407
H7    H     H_    0.561938 0.007009 0.739999 0.187407
H8    H     H_    0.065359 0.446853 0.223224 0.068887
H9    H     H_    0.934640 0.446854 0.776776 0.068886
H10   H     H_    0.565360 0.946853 0.223224 0.068887
H11   H     H_    0.434640 0.946854 0.776776 0.068887
H12   H     H_    0.974935 0.445435 0.219880 0.172604
H13   H     H_    0.561663 0.012370 0.243045 0.136911
H14   H     H_    0.025065 0.445435 0.780120 0.172603
H15   H     H_    0.474935 0.945435 0.219880 0.172604
H16   H     H_    0.525065 0.945435 0.780120 0.172603
H17   H     H_    0.438337 0.012371 0.756955 0.136912
H18   H     H_    0.061496 0.508213 0.137339 0.187601
H19   H     H_    0.938504 0.508214 0.862661 0.187602
H20   H     H_    0.561496 0.008214 0.137339 0.187602
H21   H     H_    0.438504 0.008214 0.862661 0.187601
H22   H     H_    0.689218 0.503736 0.908890 0.138062
H23   H     H_    0.310782 0.503724 0.091108 0.138061
H24   H     H_    0.189218 0.003737 0.908891 0.138061
H25   H     H_    0.039056 0.547342 0.653960 0.187570
H26   H     H_    0.810782 0.003731 0.091109 0.138061
H27   H     H_    0.620202 0.502182 0.979636 0.161103
H28   H     H_    0.379797 0.502170 0.020363 0.161098
H29   H     H_    0.120202 0.002183 0.979636 0.161103
H30   H     H_    0.879797 0.002176 0.020363 0.161100
H31   H     H_    0.619480 0.499809 0.778870 0.159028
H32   H     H_    0.380520 0.499820 0.221131 0.159028
H33   H     H_    0.119480 0.999808 0.778869 0.159028
H34   H     H_    0.880520 0.999814 0.221131 0.159028
H35   H     H_    0.688437 0.501400 0.709098 0.136603
H36   H     H_    0.460944 0.047342 0.346039 0.187570
H37   H     H_    0.311563 0.501412 0.290903 0.136602
H38   H     H_    0.188437 0.001399 0.709097 0.136602
H39   H     H_    0.811563 0.001405 0.290903 0.136602
H40   H     H_    0.808180 0.458133 0.759413 0.176208
H41   H     H_    0.191820 0.458133 0.240586 0.176208
H42   H     H_    0.308180 0.958133 0.759414 0.176209
H43   H     H_    0.691820 0.958134 0.240586 0.176209
H44   H     H_    0.813596 0.546033 0.616903 0.138412
H45   H     H_    0.186404 0.546032 0.383097 0.138411
H46   H     H_    0.313596 0.046032 0.616903 0.138412
H47   H     H_    0.539056 0.047342 0.653961 0.187569
H48   H     H_    0.686404 0.046032 0.383097 0.138412
H49   H     H_    0.499837 0.311248 0.899854 0.135790
H50   H     H_    0.500162 0.311248 0.100145 0.135790
H51   H     H_    0.999837 0.811248 0.899854 0.135790
H52   H     H_    0.000162 0.811248 0.100146 0.135790
H53   H     H_    0.499836 0.380196 0.899396 0.158709
H54   H     H_    0.500163 0.380196 0.100604 0.158710
H55   H     H_    0.999837 0.880196 0.899396 0.158709
H56   H     H_    0.000163 0.880196 0.100604 0.158710
H57   H     H_    0.060757 0.688832 0.939379 0.136403
H58   H     H_    0.025155 0.445436 0.163692 0.166796
H59   H     H_    0.939243 0.688832 0.060621 0.136403
H60   H     H_    0.560757 0.188832 0.939379 0.136403
H61   H     H_    0.439243 0.188832 0.060620 0.136403
H62   H     H_    0.061024 0.619867 0.939113 0.157887
H63   H     H_    0.938975 0.619867 0.060887 0.157886
H64   H     H_    0.561024 0.119867 0.939114 0.157887
H65   H     H_    0.438976 0.119867 0.060886 0.157886
H66   H     H_    0.552267 0.689525 0.997074 0.130844
H67   H     H_    0.447733 0.689526 0.002926 0.130844
H68   H     H_    0.052267 0.189525 0.997073 0.130845
H69   H     H_    0.974844 0.445436 0.836308 0.166797
H70   H     H_    0.947733 0.189526 0.002927 0.130844
H71   H     H_    0.060754 0.311093 0.940098 0.136676
H72   H     H_    0.939246 0.311093 0.059901 0.136676
H73   H     H_    0.560754 0.811093 0.940099 0.136676
H74   H     H_    0.439246 0.811093 0.059902 0.136676
H75   H     H_    0.061023 0.380055 0.939830 0.159147
H76   H     H_    0.938977 0.380055 0.060170 0.159147
H77   H     H_    0.561023 0.880055 0.939830 0.159147
H78   H     H_    0.438977 0.880055 0.060170 0.159148
H79   H     H_    0.963105 0.550959 0.238099 0.163807
H80   H     H_    0.525156 0.945436 0.163692 0.166796
H81   H     H_    0.036895 0.550959 0.761901 0.163806
H82   H     H_    0.463105 0.050959 0.238099 0.163806
H83   H     H_    0.536895 0.050959 0.761901 0.163808
H84   H     H_    0.031942 0.552961 0.270175 0.197230
H85   H     H_    0.968058 0.552962 0.729825 0.197230
H86   H     H_    0.531942 0.052962 0.270175 0.197230
H87   H     H_    0.468058 0.052962 0.729825 0.197230
H88   H     H_    0.036066 0.551968 0.160435 0.162605
H89   H     H_    0.963935 0.551969 0.839565 0.162604
H90   H     H_    0.536065 0.051968 0.160435 0.162605
H91   H     H_    0.474844 0.945436 0.836307 0.166797
H92   H     H_    0.463934 0.051969 0.839565 0.162605
H93   H     H_    0.977512 0.442646 0.321819 0.174746
H94   H     H_    0.022487 0.442646 0.678181 0.174747
H95   H     H_    0.477513 0.942646 0.321819 0.174747
H96   H     H_    0.522487 0.942646 0.678181 0.174746
H97   H     H_    0.912452 0.453355 0.685568 0.087054
H98   H     H_    0.087548 0.453356 0.314432 0.087053
H99   H     H_    0.412452 0.953356 0.685568 0.087053
H100  H     H_    0.587548 0.953356 0.314432 0.087054
H101  H     H_    0.882607 0.544574 0.550851 0.148972
H102  H     H_    0.061663 0.512370 0.243045 0.136911
H103  H     H_    0.117393 0.544574 0.449149 0.148971
H104  H     H_    0.382607 0.044574 0.550851 0.148971
H105  H     H_    0.617393 0.044574 0.449150 0.148971
H106  H     H_    0.939062 0.501860 0.364333 0.158892
H107  H     H_    0.060938 0.501860 0.635667 0.158892
H108  H     H_    0.439062 0.001860 0.364333 0.158892
H109  H     H_    0.560938 0.001860 0.635667 0.158892
H110  H     H_    0.582125 0.632333 0.004241 0.069344
H111  H     H_    0.417875 0.632333 0.995760 0.069345
H112  H     H_    0.082125 0.132333 0.004240 0.069345
O1    O     O_R   0.944550 0.531270 0.555450 -0.615580
O2    O     O_R   0.444590 0.500090 0.003140 -0.605681
O3    O     O_R   0.055410 0.000090 0.996860 -0.605683
O4    O     O_R   0.944590 0.000090 0.003140 -0.605682
O5    O     O_R   0.500010 0.555520 0.947680 -0.598464
O6    O     O_R   0.499990 0.555520 0.052320 -0.598467
O7    O     O_R   0.000010 0.055520 0.947680 -0.598465
O8    O     O_R   0.999990 0.055520 0.052320 -0.598466
O9    O     O_R   0.944500 0.468660 0.555500 -0.612295
O10   O     O_R   0.055500 0.468660 0.444500 -0.612296
O11   O     O_R   0.444500 0.968660 0.555500 -0.612296
O12   O     O_R   0.055450 0.531270 0.444550 -0.615580
O13   O     O_R   0.555500 0.968660 0.444500 -0.612296
O14   O     O_R   0.999990 0.531270 0.407410 -0.628986
O15   O     O_R   0.000010 0.531270 0.592590 -0.628985
O16   O     O_R   0.499990 0.031270 0.407410 -0.628986
O17   O     O_R   0.500010 0.031270 0.592590 -0.628986
O18   O     O_R   0.999940 0.468660 0.407460 -0.597911
O19   O     O_R   0.000060 0.468660 0.592540 -0.597911
O20   O     O_R   0.499940 0.968660 0.407460 -0.597911
O21   O     O_R   0.500060 0.968660 0.592540 -0.597912
O22   O     O_R   0.968670 0.555400 0.031330 -0.627357
O23   O     O_R   0.444550 0.031270 0.555450 -0.615581
O24   O     O_R   0.031330 0.555400 0.968670 -0.627357
O25   O     O_R   0.468670 0.055400 0.031330 -0.627357
O26   O     O_R   0.531330 0.055400 0.968670 -0.627357
O27   O     O_R   0.968670 0.499940 0.123930 -0.628704
O28   O     O_R   0.031330 0.499940 0.876070 -0.628704
O29   O     O_R   0.468670 0.999940 0.123930 -0.628704
O30   O     O_R   0.531330 0.999940 0.876070 -0.628704
O31   O     O_R   0.031270 0.499990 0.061330 -0.628073
O32   O     O_R   0.968730 0.499990 0.938670 -0.628073
O33   O     O_R   0.531270 0.999990 0.061330 -0.628073
O34   O     O_R   0.555450 0.031270 0.444550 -0.615580
O35   O     O_R   0.468730 0.999990 0.938670 -0.628073
O36   O     O_R   0.968660 0.444490 0.031330 -0.620298
O37   O     O_R   0.031340 0.444490 0.968670 -0.620298
O38   O     O_R   0.468660 0.944490 0.031330 -0.620298
O39   O     O_R   0.531340 0.944490 0.968670 -0.620298
O40   O     O_R   0.499920 0.444610 0.947830 -0.631830
O41   O     O_R   0.500080 0.444610 0.052170 -0.631829
O42   O     O_R   0.999920 0.944610 0.947830 -0.631830
O43   O     O_R   0.000080 0.944610 0.052170 -0.631830
O44   O     O_2   0.864828 0.426189 0.750156 -0.555941
O45   O     O_R   0.555400 0.500060 0.892310 -0.634367
O46   O     O_2   0.135172 0.426189 0.249843 -0.555941
O47   O     O_2   0.364828 0.926189 0.750156 -0.555941
O48   O     O_2   0.635172 0.926190 0.249842 -0.555941
O49   O     O_2   0.573289 0.584090 0.969147 -0.587588
O50   O     O_2   0.426711 0.584090 0.030853 -0.587585
O51   O     O_2   0.073288 0.084090 0.969147 -0.587589
O52   O     O_2   0.926711 0.084090 0.030853 -0.587587
O53   O     O_2   0.034689 0.407965 0.297505 -0.535478
O54   O     O_2   0.965310 0.407965 0.702496 -0.535478
O55   O     O_2   0.534690 0.907965 0.297504 -0.535478
O56   O     O_R   0.444600 0.500060 0.107690 -0.634370
O57   O     O_2   0.465310 0.907965 0.702495 -0.535478
O58   O     O_R   0.055400 0.000060 0.892310 -0.634367
O59   O     O_R   0.944600 0.000060 0.107690 -0.634369
O60   O     O_R   0.555410 0.500090 0.996860 -0.605683
Zn1   Zn    Zn3+2 0.000000 0.541770 0.500000 0.937782
Zn2   Zn    Zn3+2 0.500040 0.500060 0.069780 0.979673
Zn3   Zn    Zn3+2 0.999960 0.000060 0.930220 0.979674
Zn4   Zn    Zn3+2 0.000040 0.000060 0.069780 0.979674
Zn5   Zn    Zn3+2 0.500000 0.041770 0.500000 0.937782
Zn6   Zn    Zn3+2 0.000000 0.458160 0.500000 1.052499
Zn7   Zn    Zn3+2 0.500000 0.958160 0.500000 1.052499
Zn8   Zn    Zn3+2 0.958170 0.499940 0.041830 0.938670
Zn9   Zn    Zn3+2 0.041830 0.499940 0.958170 0.938670
Zn10  Zn    Zn3+2 0.458170 0.999940 0.041830 0.938670
Zn11  Zn    Zn3+2 0.541830 0.999940 0.958170 0.938670
Zn12  Zn    Zn3+2 0.499960 0.500060 0.930220 0.979675

loop_
_geom_bond_atom_site_label_1
_geom_bond_atom_site_label_2
_ccdc_geom_bond_type
C54   H102  S    
C99   C103  A    
C120  C146  A    
O5    Zn12  S    
C142  C146  A    
C70   C150  S    
O4    Zn3   S    
O1    Zn1   S    
O28   Zn9   S    
C71   C137  S    
C54   C65   S    
O10   Zn6   S    
C165  H108  S    
O6    Zn2   S    
C19   H79   S    
C5    C6    T    
C95   C99   A    
C29   C33   A    
C36   C168  S    
C8    C23   A    
C157  C179  S    
C69   C166  S    
C54   C74   S    
C156  C178  S    
C176  C179  A    
O17   Zn5   S    
C121  O18   A    
C55   H85   S    
C70   C74   S    
C103  C170  A    
C169  C174  A    
C66   C122  S    
C20   C71   S    
C123  O20   A    
C169  C180  A    
C141  C145  A    
C119  C128  A    
C70   C126  S    
C98   H34   S    
C171  H50   S    
O40   Zn12  S    
C130  C134  A    
C148  H80   S    
C159  H91   S    
C88   H9    S    
C57   H29   S    
C50   C53   A    
C21   C72   S    
C27   C31   A    
O23   Zn5   S    
C28   C32   A    
C62   C66   S    
O59   Zn4   S    
C98   C102  A    
C91   H11   S    
C168  O7    A    
C136  C141  A    
C27   H67   S    
O38   Zn10  S    
C165  H36   S    
C77   H92   S    
C124  O17   A    
C58   C69   S    
C24   C107  A    
C126  H12   S    
O25   Zn10  S    
C129  C133  A    
C63   H95   S    
C12   H62   S    
C81   C128  S    
C86   H3    S    
C34   C167  S    
C126  H58   S    
O29   Zn10  S    
C164  H107  S    
C81   H99   S    
C82   H100  S    
O32   Zn8   S    
C13   C106  A    
C67   C123  S    
C75   H89   S    
C113  C144  S    
C156  O41   A    
O3    Zn4   S    
C152  O29   A    
C64   C159  S    
C151  O28   A    
C85   O51   D    
C62   C137  S    
C124  O21   A    
C136  H104  S    
C127  C131  A    
C170  H22   S    
C22   C166  S    
C61   C65   S    
C48   C52   A    
C35   C170  A    
C73   C77   S    
C64   C91   S    
C78   C125  S    
C26   H66   S    
C26   C30   A    
C92   C161  S    
C15   C18   A    
C57   C92   A    
C91   O57   D    
C68   H30   S    
C33   C36   A    
C79   C158  S    
O56   Zn2   S    
C21   H6    S    
C46   H28   S    
C160  O56   A    
C32   C36   A    
C83   O49   D    
C88   O54   D    
C150  O31   A    
C13   C57   A    
C11   C25   A    
C44   C59   A    
C62   H94   S    
C122  O19   A    
C61   C87   S    
C58   C77   S    
C139  C143  A    
C74   H18   S    
C166  H47   S    
C177  C179  A    
C29   C38   A    
C89   H10   S    
C82   C129  S    
C56   H86   S    
C110  C114  T    
C132  C136  A    
C55   C75   S    
C161  O58   A    
C67   C165  S    
C163  H106  S    
C14   C17   A    
C63   C89   S    
C4    C7    T    
C92   C97   A    
C30   C34   A    
C120  C129  A    
C93   O10   A    
C102  C107  A    
C47   H74   S    
C134  C139  A    
C9    C23   A    
C150  O27   A    
C68   C94   A    
C31   C84   S    
C76   H90   S    
C123  O16   A    
C51   C53   A    
C153  O35   A    
C43   H71   S    
C148  H15   S    
C149  O25   A    
C8    C12   A    
C65   C163  S    
C31   C34   A    
C66   C164  S    
O41   Zn2   S    
C19   C163  S    
C64   C69   S    
C48   H75   S    
C61   C126  S    
C10   C25   A    
C51   H78   S    
C84   O50   D    
C53   C155  S    
C11   H61   S    
C86   O52   D    
C118  C127  A    
C101  C106  A    
C85   H112  S    
C105  C109  S    
C137  H14   S    
O14   Zn1   S    
C107  C111  S    
C2    H23   S    
O20   Zn7   S    
O27   Zn8   S    
C77   H21   S    
C19   H4    S    
C100  H37   S    
C90   C96   A    
C75   H19   S    
C73   C159  S    
C157  O43   A    
C1    O1    A    
C141  H46   S    
C95   H31   S    
C116  C146  S    
O58   Zn3   S    
C96   C100  A    
C35   C79   A    
C55   H2    S    
C156  O40   A    
C21   H82   S    
C167  O5    A    
O35   Zn10  S    
C45   C50   A    
C117  C125  A    
O24   Zn9   S    
C172  C176  A    
C139  H44   S    
C58   H17   S    
O39   Zn11  S    
C96   H32   S    
C93   O12   A    
O30   Zn11  S    
C158  O45   A    
C16   H65   S    
C138  H105  S    
C112  C143  S    
O7    Zn3   S    
C115  O34   A    
C3    C172  A    
C176  H55   S    
C163  H1    S    
C94   C98   A    
C20   C164  S    
C168  O8    A    
C21   C165  S    
C28   H68   S    
C30   C83   S    
C101  H38   S    
C166  H109  S    
C71   C151  S    
C72   C152  S    
O60   Zn2   S    
C12   C17   A    
C9    H59   S    
C111  C116  T    
C65   C121  S    
C39   C42   T    
C154  O36   A    
C174  C178  A    
C133  C138  A    
C97   H33   S    
C80   H98   S    
C115  O13   A    
C4    C180  S    
C172  H51   S    
C175  C178  A    
C135  C140  A    
O16   Zn5   S    
C134  H101  S    
C154  O37   A    
C135  H103  S    
C114  C145  S    
C1    C130  S    
C138  C142  A    
C49   H76   S    
O31   Zn9   S    
C47   C51   A    
C115  C133  S    
C69   C124  S    
C64   H96   S    
C108  C112  T    
C9    C14   A    
C79   C95   A    
C173  H52   S    
C20   H81   S    
C155  O38   A    
C11   C16   A    
O37   Zn9   S    
C22   H83   S    
C49   C52   A    
C140  H45   S    
C142  H48   S    
C35   H27   S    
C50   H77   S    
C104  O11   A    
C78   O44   D    
C89   O55   D    
C174  H53   S    
C55   C66   S    
C162  O59   A    
C117  C143  A    
C140  C144  A    
C78   H97   S    
C3    C5    S    
C137  H69   S    
C26   C37   A    
C46   C90   A    
C119  C145  A    
C131  C135  A    
C7    C25   S    
C13   H24   S    
C164  H25   S    
C54   H84   S    
C37   C39   S    
C38   C40   S    
C62   C88   S    
C32   C85   S    
C90   C160  S    
O9    Zn6   S    
C24   C68   A    
C14   H63   S    
C104  C132  S    
O42   Zn3   S    
C104  O23   A    
C61   H93   S    
C93   C131  S    
C44   C49   A    
C45   C60   A    
C10   H60   S    
C121  O14   A    
C56   C76   S    
C147  O24   A    
C72   C76   S    
O33   Zn11  S    
O34   Zn5   S    
C8    H57   S    
C2    C46   A    
O12   Zn1   S    
O19   Zn6   S    
C100  C105  A    
C17   C147  S    
C82   O48   D    
C10   C15   A    
C87   O53   D    
C52   C154  S    
C117  H40   S    
C24   H26   S    
C22   H7    S    
C20   H5    S    
C74   H88   S    
C125  C130  A    
C3    C173  A    
C103  C108  S    
C18   C149  S    
C43   C48   A    
C94   C162  S    
C109  C113  T    
C47   C60   A    
C118  H41   S    
C1    O9    A    
C161  O3    A    
C162  O4    A    
C128  C132  A    
C83   H110  S    
C44   H72   S    
C159  H16   S    
O21   Zn7   S    
C63   C67   S    
O11   Zn7   S    
O43   Zn4   S    
C41   C59   S    
C76   H20   S    
C42   C60   S    
C158  O60   A    
O26   Zn11  S    
O36   Zn8   S    
C72   C148  S    
C171  C175  A    
C119  H42   S    
C157  O42   A    
C58   H87   S    
C33   C86   S    
C160  O2    A    
C173  C177  A    
C175  H54   S    
C102  H39   S    
C155  O39   A    
C16   C18   A    
C40   C41   T    
C152  O33   A    
C120  H43   S    
C147  O22   A    
C122  O15   A    
C171  C180  A    
O22   Zn8   S    
C118  C144  A    
C63   C148  S    
C106  C110  S    
C15   H64   S    
O18   Zn6   S    
C151  O32   A    
O13   Zn7   S    
C87   H8    S    
C80   C127  S    
C43   C59   A    
C167  O6    A    
C56   C67   S    
C2    C105  A    
C29   H70   S    
C71   C75   S    
O8    Zn4   S    
C149  O26   A    
C84   H111  S    
C99   H35   S    
C27   C37   A    
C6    C23   S    
C81   O47   D    
C169  H49   S    
O15   Zn1   S    
O2    Zn12  S    
O45   Zn12  S    
C153  O30   A    
C56   H13   S    
C80   O46   D    
C73   C153  S    
C177  H56   S    
C19   C70   S    
C22   C73   S    
C28   C38   A    
C97   C101  A    
C45   H73   S    
