data_mof_unit_36815.cif
_audit_creation_date              2013-03-05T16:09:38-0500
_audit_creation_method            fapswitch 2.2
_symmetry_space_group_name_H-M    P1
_symmetry_Int_Tables_number       1
_space_group_crystal_system       triclinic
_cell_length_a                    14.586066
_cell_length_b                    7.384501
_cell_length_c                    13.69106
_cell_angle_alpha                 89.99996
_cell_angle_beta                  100.344291
_cell_angle_gamma                 90.000048
_cell_volume                      1450.7066881

loop_
_atom_site_label
_atom_site_type_symbol
_atom_site_description
_atom_site_fract_x
_atom_site_fract_y
_atom_site_fract_z
_atom_type_partial_charge
O1    O     O_R   0.398210 0.494340 0.401550 -0.586920
O2    O     O_R   0.601790 0.994340 0.598450 -0.586918
O3    O     O_R   0.586310 0.821730 0.403360 -0.605271
O4    O     O_R   0.413690 0.321730 0.596640 -0.605272
C1    C     C_R   0.615479 0.652973 0.380615 0.849762
C2    C     C_R   0.384521 0.152973 0.619385 0.849762
O5    O     O_R   0.397970 0.823900 0.389580 -0.575189
O6    O     O_R   0.602030 0.323900 0.610420 -0.575189
O7    O     O_R   0.412100 0.996500 0.584560 -0.601079
O8    O     O_R   0.587900 0.496500 0.415440 -0.601080
C3    C     C_R   0.366495 0.655208 0.362059 0.915085
C4    C     C_R   0.633505 0.155208 0.637941 0.915089
O9    O     O_3   0.504860 0.661550 0.563990 -0.315913
O10   O     O_3   0.495140 0.161550 0.436010 -0.315911
V1    V     V_3+5 0.499100 0.935510 0.488130 1.101081
V2    V     V_3+5 0.500900 0.435510 0.511870 1.101080
C5    C     C_1   0.715228 0.144653 0.717641 -0.225642
C6    C     C_1   0.284772 0.644653 0.282359 -0.225642
C7    C     C_1   0.783731 0.133978 0.783767 -0.231074
C8    C     C_1   0.216269 0.633978 0.216233 -0.231068
C9    C     C_3   0.236570 0.318497 0.820868 -0.445601
C10   C     C_3   0.763428 0.818496 0.179129 -0.445611
H1    H     H_    0.186188 0.431267 0.799470 0.179347
H2    H     H_    0.813808 0.931269 0.200524 0.179357
H3    H     H_    0.272717 0.349861 0.897762 0.179571
H4    H     H_    0.727279 0.849854 0.102234 0.179571
C11   C     C_3   0.308008 0.312653 0.749882 -0.466239
C12   C     C_3   0.691991 0.812653 0.250117 -0.466238
H5    H     H_    0.378838 0.341159 0.792602 0.159361
H6    H     H_    0.621161 0.841160 0.207398 0.159361
H7    H     H_    0.282324 0.413091 0.693519 0.216183
H8    H     H_    0.717677 0.913092 0.306479 0.216183
H9    H     H_    0.101164 0.243879 0.685496 0.064898
H10   H     H_    0.898833 0.743889 0.314503 0.064898
H11   H     H_    0.193171 0.216863 0.575288 0.126772
H12   H     H_    0.806827 0.716861 0.424713 0.126780
C13   C     C_3   0.137397 0.112181 0.703862 0.475625
C14   C     C_3   0.862603 0.612187 0.296137 0.475631
C15   C     C_3   0.268161 0.001130 0.851734 -0.422862
C16   C     C_3   0.731841 0.501126 0.148267 -0.422858
C17   C     C_3   0.186180 0.134351 0.816110 -0.078557
C18   C     C_3   0.813819 0.634352 0.183890 -0.078545
H13   H     H_    0.243290 0.869132 0.876063 0.172492
H14   H     H_    0.756716 0.369127 0.123943 0.172504
H15   H     H_    0.313105 0.052506 0.920659 0.111913
H16   H     H_    0.686898 0.552494 0.079339 0.111909
C19   C     C_3   0.310418 0.134149 0.690807 -0.068148
C20   C     C_3   0.689582 0.634149 0.309192 -0.068138
C21   C     C_3   0.209407 0.106850 0.631400 -0.471935
C22   C     C_3   0.790592 0.606851 0.368600 -0.471969
C23   C     C_3   0.328670 0.975253 0.770694 0.545952
C24   C     C_3   0.671330 0.475252 0.229306 0.545945
H17   H     H_    0.403329 0.972733 0.807728 -0.060537
H18   H     H_    0.596670 0.472733 0.192271 -0.060532
H19   H     H_    0.203414 0.982037 0.587465 0.183304
H20   H     H_    0.796584 0.482036 0.412533 0.183302
O11   O     O_R   0.912140 0.786650 0.084610 -0.601019
O12   O     O_R   0.087860 0.286650 0.915390 -0.601018
O13   O     O_R   0.102040 0.454810 0.110430 -0.584458
O14   O     O_R   0.897960 0.954810 0.889570 -0.584458
C25   C     C_R   0.134568 0.623444 0.136486 0.965504
C26   C     C_R   0.865432 0.123444 0.863514 0.965499
O15   O     O_R   0.913690 0.457060 0.096650 -0.591116
O16   O     O_R   0.086310 0.957060 0.903350 -0.591121
O17   O     O_R   0.898200 0.284560 0.901540 -0.582826
O18   O     O_R   0.101800 0.784560 0.098460 -0.582828
C27   C     C_R   0.884915 0.625714 0.115720 0.925034
C28   C     C_R   0.115085 0.125714 0.884279 0.925018
O19   O     O_3   0.995160 0.617270 0.936040 -0.304354
O20   O     O_3   0.004840 0.117270 0.063960 -0.304367
V3    V     V_3+5 0.000900 0.343280 0.011870 1.142796
V4    V     V_3+5 0.999100 0.843280 0.988130 1.142798
O21   O     O_3   0.297978 0.805417 0.731596 -0.706614
C29   C     C_3   0.360421 0.717780 0.682625 0.371159
H21   H     H_    0.386850 0.598481 0.724397 0.069639
H22   H     H_    0.429626 0.780624 0.690091 0.108791
C30   C     C_3   0.305554 0.674221 0.578443 -0.793132
H23   H     H_    0.293171 0.793066 0.529284 0.227268
H24   H     H_    0.340692 0.575344 0.541198 0.264332
H25   H     H_    0.236175 0.616800 0.581983 0.182477
O22   O     O_3   0.702020 0.305415 0.268403 -0.706618
C31   C     C_3   0.639578 0.217780 0.317376 0.371177
H26   H     H_    0.613149 0.098480 0.275606 0.069639
H27   H     H_    0.570373 0.280623 0.309910 0.108789
C32   C     C_3   0.694448 0.174222 0.421557 -0.793142
H28   H     H_    0.706827 0.293066 0.470717 0.227270
H29   H     H_    0.659315 0.075336 0.458803 0.264327
H30   H     H_    0.763829 0.116813 0.418013 0.182484
O23   O     O_3   0.060932 0.989191 0.684339 -0.659776
C33   C     C_3   0.085441 0.804433 0.688207 0.335948
H31   H     H_    0.132508 0.768646 0.757883 0.143262
H32   H     H_    0.116113 0.766259 0.623127 0.109136
C34   C     C_3   0.997279 0.692049 0.683020 -0.878062
H33   H     H_    0.949724 0.715981 0.611185 0.244767
H34   H     H_    0.015283 0.545887 0.689230 0.198495
H35   H     H_    0.960806 0.729785 0.744548 0.286383
O24   O     O_3   0.939071 0.489204 0.315659 -0.659772
C35   C     C_3   0.914566 0.304445 0.311815 0.335899
H36   H     H_    0.867479 0.268639 0.242156 0.143280
H37   H     H_    0.883921 0.266288 0.376916 0.109118
C36   C     C_3   0.002726 0.192067 0.316976 -0.878053
H38   H     H_    0.050315 0.216062 0.388782 0.244783
H39   H     H_    0.984726 0.045899 0.310818 0.198489
H40   H     H_    0.039158 0.229748 0.255409 0.286393

loop_
_geom_bond_atom_site_label_1
_geom_bond_atom_site_label_2
_geom_bond_distance
_ccdc_geom_bond_type
C15   C23   1.548607 S    
C3    C6    1.466472 S    
C34   H33   1.111144 S    
C11   H5    1.112088 S    
O21   C29   1.384626 S    
O1    C3    1.351917 A    
O2    C4    1.351917 A    
C2    O7    1.339084 A    
O24   C35   1.408982 S    
O3    V1    2.049691 S    
C19   C21   1.562879 S    
C30   H23   1.100971 S    
C20   C22   1.562878 S    
O5    C3    1.357352 A    
C36   H38   1.111149 S    
C29   H22   1.098956 S    
O16   C28   1.354538 A    
C16   C24   1.548607 S    
C14   C18   1.581813 S    
C32   H28   1.100971 S    
O12   V3    2.032298 S    
C30   H25   1.106265 S    
O14   V4    1.990121 S    
C7    C26   1.466624 S    
O14   C26   1.357318 A    
O6    V2    1.990200 S    
C8    C25   1.466624 S    
C25   O18   1.351166 A    
O18   V4    1.975120 S    
C29   C30   1.538999 S    
C4    C5    1.466473 S    
H11   C21   1.113952 S    
O20   V3    1.811810 S    
C15   H15   1.114454 S    
C16   C18   1.557600 S    
C9    C11   1.547856 S    
C36   H39   1.110470 S    
C10   C12   1.547856 S    
O11   C27   1.346190 A    
C14   O24   1.425895 S    
C24   H18   1.115815 S    
O22   C31   1.384621 S    
C17   C28   1.515942 S    
C30   H24   1.072243 S    
C1    C20   1.588511 S    
O15   C27   1.354539 A    
O13   C25   1.357318 A    
C2    C19   1.588512 S    
C32   H29   1.072250 S    
C11   H7    1.087238 S    
C12   H8    1.087243 S    
O4    C2    1.370602 A    
C29   H21   1.082865 S    
C15   H13   1.111781 S    
O17   V3    1.975119 S    
C22   H20   1.095480 S    
C23   H17   1.115814 S    
O4    V2    2.049687 S    
O19   V4    1.811810 S    
C16   H16   1.114455 S    
C13   C21   1.569473 S    
C33   H32   1.103033 S    
C16   H14   1.111785 S    
O6    C4    1.357352 A    
O1    V2    1.975121 S    
O2    V1    1.975121 S    
C9    C17   1.541550 S    
O12   C28   1.346193 A    
O15   V3    2.049783 S    
C35   H36   1.102708 S    
C34   H35   1.109595 S    
C35   H37   1.103038 S    
C9    H1    1.114458 S    
C18   C27   1.515942 S    
C10   H2    1.114459 S    
C35   C36   1.521377 S    
H12   C22   1.113952 S    
C33   C34   1.521386 S    
C32   H30   1.106271 S    
C11   C19   1.550211 S    
C9    H3    1.113829 S    
C12   C20   1.550214 S    
C26   O17   1.351166 A    
H10   C14   1.113828 S    
C23   O21   1.404910 S    
O3    C1    1.370602 A    
C19   C23   1.593532 S    
C14   C22   1.569476 S    
C36   H40   1.109590 S    
C31   C32   1.539001 S    
C31   H27   1.098955 S    
C13   O23   1.425895 S    
C12   H6    1.112087 S    
O7    V1    2.039080 S    
C1    O8    1.339083 A    
C21   H19   1.095483 S    
C33   H31   1.102711 S    
C10   C18   1.541549 S    
O5    V1    1.990199 S    
C5    C7    1.224481 T    
C6    C8    1.224481 T    
O16   V4    2.049780 S    
O11   V4    2.032299 S    
C13   C17   1.581816 S    
C24   O22   1.404910 S    
H9    C13   1.113828 S    
C20   C24   1.593536 S    
C15   C17   1.557604 S    
C34   H34   1.110471 S    
C31   H26   1.082866 S    
C10   H4    1.113830 S    
O9    V2    1.812162 S    
O10   V1    1.812162 S    
O8    V2    2.039079 S    
O23   C33   1.408982 S    
O13   V3    1.990121 S    
