data_mof_unit_28155.cif
_audit_creation_date              2013-03-05T15:45:32-0500
_audit_creation_method            fapswitch 2.2
_symmetry_space_group_name_H-M    P1
_symmetry_Int_Tables_number       1
_space_group_crystal_system       triclinic
_cell_length_a                    10.918602
_cell_length_b                    10.957418
_cell_length_c                    18.796719
_cell_angle_alpha                 90.323124
_cell_angle_beta                  89.79702
_cell_angle_gamma                 60.365393
_cell_volume                      1954.59515594

loop_
_atom_site_label
_atom_site_type_symbol
_atom_site_description
_atom_site_fract_x
_atom_site_fract_y
_atom_site_fract_z
_atom_type_partial_charge
O1    O     O_R   0.507430 0.255570 0.581420 -0.512522
O2    O     O_R   0.280190 0.527390 0.578910 -0.496173
C1    C     C_R   0.228591 0.650083 0.607040 0.590846
O3    O     O_R   0.260310 0.739740 0.584580 -0.494223
O4    O     O_R   0.532250 0.695150 0.573830 -0.488075
C2    C     C_R   0.654702 0.622327 0.600524 0.552381
O5    O     O_R   0.744930 0.503430 0.576380 -0.533394
O6    O     O_R   0.699250 0.276390 0.571950 -0.488465
C3    C     C_R   0.630427 0.224708 0.601710 0.585704
O7    O     O_R   0.499020 0.256400 0.419850 -0.537417
O8    O     O_R   0.272400 0.528160 0.429140 -0.529795
C4    C     C_R   0.217725 0.650310 0.402967 0.567663
O9    O     O_R   0.251910 0.740570 0.423020 -0.455882
O10   O     O_R   0.524460 0.695920 0.424060 -0.507018
C5    C     C_R   0.640767 0.620446 0.390983 0.538298
O11   O     O_R   0.736530 0.504260 0.414810 -0.523915
O12   O     O_R   0.691460 0.277160 0.422180 -0.485605
C6    C     C_R   0.617756 0.228468 0.395108 0.569648
Cr1   Cr    Cr6+3 0.392930 0.397900 0.502230 1.040912
Cr2   Cr    Cr6+3 0.398240 0.708600 0.501260 1.083614
Cr3   Cr    Cr6+3 0.708800 0.393470 0.496460 1.068178
O13   O     O_3   0.499990 0.499990 0.499980 -0.258744
C7    C     C_3   0.599994 0.820842 0.776457 -0.195813
H1    H     H_    0.626823 0.904436 0.784165 0.142864
H2    H     H_    0.499780 0.848281 0.804519 0.222466
C8    C     C_3   0.581680 0.805541 0.696578 -0.226286
H3    H     H_    0.468943 0.843463 0.684866 0.195850
H4    H     H_    0.611906 0.873156 0.665768 0.094996
H5    H     H_    0.878946 0.729153 0.764491 0.111473
H6    H     H_    0.856764 0.681777 0.649077 0.121893
C9    C     C_3   0.854568 0.642265 0.762617 -0.274464
C10   C     C_3   0.683890 0.566452 0.802535 -0.192701
C11   C     C_3   0.721426 0.684342 0.807938 -0.002906
H7    H     H_    0.774016 0.465015 0.820336 0.116132
H8    H     H_    0.594108 0.589446 0.838832 0.180613
C12   C     C_3   0.677236 0.650488 0.674637 0.037759
C13   C     C_3   0.831877 0.615966 0.684700 -0.278034
C14   C     C_3   0.650312 0.551231 0.724552 0.107698
H9    H     H_    0.723810 0.441081 0.707849 0.123177
H10   H     H_    0.943609 0.544726 0.784241 0.152186
H11   H     H_    0.906507 0.504184 0.670884 0.144291
C15   C     C_R   0.779159 0.170576 0.710688 -0.151544
H12   H     H_    0.857581 0.186178 0.683171 0.130060
C16   C     C_R   0.782931 0.161584 0.784898 -0.192959
H13   H     H_    0.868298 0.162906 0.813319 0.131372
C17   C     C_R   0.676254 0.152324 0.822043 0.004179
C18   C     C_R   0.559744 0.159194 0.782696 0.217463
C19   C     C_R   0.569555 0.149237 0.709752 -0.103830
H14   H     H_    0.485510 0.144535 0.681543 0.163006
C20   C     C_R   0.670267 0.166685 0.673058 0.002625
C21   C     C_R   0.182114 0.564886 0.719223 -0.067811
H15   H     H_    0.225296 0.461015 0.696268 0.190385
C22   C     C_R   0.157664 0.583909 0.792154 -0.089037
H16   H     H_    0.174992 0.496871 0.825096 0.200786
C23   C     C_R   0.103218 0.717094 0.822627 0.016720
C24   C     C_R   0.076385 0.831454 0.779845 -0.106122
H17   H     H_    0.037524 0.934248 0.803095 0.133223
C25   C     C_R   0.102283 0.812927 0.707083 -0.094639
H18   H     H_    0.085568 0.902206 0.675507 0.133459
C26   C     C_R   0.160170 0.678019 0.676736 0.042934
C27   C     C_R   0.741558 0.530817 0.273241 -0.128461
H19   H     H_    0.815869 0.431154 0.296134 0.140980
C28   C     C_R   0.738416 0.540677 0.200413 -0.129560
H20   H     H_    0.812706 0.449241 0.170020 0.134858
C29   C     C_R   0.652316 0.669784 0.167852 0.028227
C30   C     C_R   0.556039 0.785005 0.209293 -0.126163
H21   H     H_    0.488349 0.885709 0.185182 0.130467
C31   C     C_R   0.553340 0.772453 0.283152 -0.124796
H22   H     H_    0.478373 0.861351 0.314747 0.141525
C32   C     C_R   0.649724 0.645966 0.315585 0.031307
C33   C     C_R   0.552912 0.144990 0.289244 -0.142519
H23   H     H_    0.475190 0.131448 0.318884 0.136773
C34   C     C_R   0.551411 0.138747 0.216382 -0.137347
H24   H     H_    0.476768 0.113941 0.191786 0.134822
C35   C     C_R   0.650229 0.156085 0.176408 0.030427
C36   C     C_R   0.746910 0.185491 0.209896 -0.150333
H25   H     H_    0.825547 0.196617 0.179747 0.127126
C37   C     C_R   0.745649 0.195640 0.283079 -0.098965
H26   H     H_    0.817837 0.222672 0.308273 0.181440
C38   C     C_R   0.647474 0.177306 0.322929 0.054413
C39   C     C_R   0.078706 0.807665 0.306242 0.204744
C40   C     C_R   0.063417 0.817646 0.233414 -0.111864
H27   H     H_    0.018421 0.920925 0.209944 0.164706
C41   C     C_R   0.104252 0.697073 0.191241 -0.009298
C42   C     C_R   0.148444 0.567268 0.222720 -0.151694
H28   H     H_    0.173778 0.474876 0.190900 0.140188
C43   C     C_R   0.167577 0.555428 0.295624 -0.169119
H29   H     H_    0.214010 0.451536 0.318498 0.153010
C44   C     C_R   0.142392 0.673730 0.336757 0.019084
O14   O     O_R   0.089490 0.825610 0.930610 -0.485758
O15   O     O_R   0.818370 0.054540 0.929880 -0.528334
C45   C     C_R   0.699256 0.103178 0.895999 0.522811
O16   O     O_R   0.605870 0.077310 0.915530 -0.453514
O17   O     O_R   0.646440 0.806700 0.917570 -0.477774
C46   C     C_R   0.749803 0.705634 0.882740 0.521929
O18   O     O_R   0.837200 0.593290 0.915250 -0.521143
O19   O     O_R   0.065330 0.635370 0.931590 -0.505401
C47   C     C_R   0.059178 0.741139 0.896991 0.533677
O20   O     O_R   0.068300 0.828790 0.091860 -0.518000
O21   O     O_R   0.798730 0.057480 0.079370 -0.511335
C48   C     C_R   0.674354 0.107329 0.103921 0.549400
O22   O     O_R   0.584680 0.080480 0.076790 -0.518633
O23   O     O_R   0.626790 0.809640 0.067050 -0.497593
C49   C     C_R   0.694153 0.689714 0.097013 0.551758
O24   O     O_R   0.816010 0.596460 0.076500 -0.518438
O25   O     O_R   0.045680 0.638310 0.081070 -0.492072
C50   C     C_R   0.081470 0.716064 0.115700 0.565815
Cr4   Cr    Cr6+3 0.937620 0.938540 0.007640 1.027424
Cr5   Cr    Cr6+3 0.625150 0.937450 0.994520 1.076463
Cr6   Cr    Cr6+3 0.937990 0.625080 0.001190 1.036617
O26   O     O_3   0.833590 0.833690 0.001120 -0.297832
N1    N     N_R   0.426818 0.182385 0.812742 0.085354
O27   O     O_R   0.418148 0.085722 0.848467 -0.334085
O28   O     O_R   0.312446 0.271058 0.780714 -0.410170
N2    N     N_R   0.038672 0.932334 0.347750 0.077970
O29   O     O_R   0.971451 0.952305 0.407820 -0.350485
O30   O     O_R   0.071716 0.025068 0.326172 -0.382439
N3    N     N_R   0.506183 0.576029 0.719426 0.071029
O31   O     O_R   0.401824 0.688146 0.747498 -0.371024
O32   O     O_R   0.485358 0.474855 0.698325 -0.347675

loop_
_geom_bond_atom_site_label_1
_geom_bond_atom_site_label_2
_geom_bond_distance
_ccdc_geom_bond_type
C27   C32   1.400995 A    
C30   C31   1.397514 A    
C23   C24   1.397395 A    
C28   C29   1.399402 A    
C48   O22   1.261751 A    
C34   H24   1.082668 S    
C46   O18   1.284650 A    
O24   Cr6   2.068994 S    
N1    O28   1.295355 A    
C39   C40   1.378068 A    
O4    Cr2   1.956155 S    
C42   H28   1.083610 S    
C24   H17   1.077124 S    
O20   Cr4   2.080559 S    
O8    Cr1   1.958045 S    
C8    H3    1.110612 S    
O11   Cr3   2.074145 S    
C45   O16   1.240619 A    
C12   C13   1.549580 S    
C36   C37   1.378938 A    
Cr5   O26   1.983007 S    
O4    C2    1.276827 A    
C37   C38   1.399804 A    
C17   C45   1.470626 S    
O25   C50   1.275573 A    
C25   C26   1.405006 A    
C18   N1    1.455281 S    
O19   C47   1.304787 A    
C41   C50   1.440835 S    
C9    H10   1.110315 S    
C7    C8    1.534570 S    
C27   C28   1.373003 A    
N3    O31   1.300050 A    
C49   O24   1.269039 A    
Cr6   O26   1.986869 S    
C2    C12   1.472772 S    
C31   H22   1.083093 S    
C7    C11   1.549051 S    
C7    H1    1.099985 S    
C9    C11   1.541280 S    
C10   C14   1.540258 S    
C39   C44   1.403369 A    
C1    C26   1.459604 S    
C19   C20   1.387617 A    
C30   H21   1.082013 S    
Cr3   O13   1.982708 S    
C34   C35   1.401207 A    
C27   H19   1.080547 S    
C15   C16   1.398246 A    
C11   C46   1.482639 S    
N1    O27   1.299411 A    
C16   C17   1.402270 A    
O12   C6    1.271093 A    
C22   C23   1.393361 A    
O21   Cr4   1.956348 S    
O1    Cr1   2.078961 S    
C5    O11   1.268057 A    
C42   C43   1.384051 A    
C21   H15   1.079916 S    
C10   H8    1.113110 S    
O10   Cr2   1.954097 S    
C4    C44   1.446857 S    
Cr1   O13   1.978112 S    
O1    C3    1.272523 A    
C36   H25   1.083554 S    
O15   C45   1.305867 A    
C33   C34   1.371456 A    
C37   H26   1.079435 S    
O6    C3    1.272685 A    
N2    O30   1.301296 A    
C25   H18   1.083218 S    
O5    Cr3   2.077955 S    
O18   Cr6   2.080203 S    
O12   Cr3   1.957022 S    
C9    C13   1.535521 S    
H6    C13   1.113619 S    
C21   C22   1.390378 A    
C10   H7    1.113819 S    
C35   C36   1.397561 A    
C18   C19   1.374424 A    
O7    Cr1   2.080291 S    
C39   N2    1.435592 S    
O6    Cr3   1.954976 S    
C41   C42   1.392398 A    
C15   C20   1.404095 A    
C8    C12   1.543131 S    
C19   H14   1.084343 S    
Cr2   O13   1.986869 S    
C40   H27   1.083520 S    
C40   C41   1.405631 A    
C43   C44   1.410107 A    
C15   H12   1.082853 S    
C1    O3    1.266255 A    
C16   H13   1.082224 S    
O25   Cr6   1.958736 S    
C5    C32   1.458373 S    
C17   C18   1.443449 A    
O9    Cr2   2.075379 S    
O2    Cr1   1.960363 S    
O15   Cr4   1.960882 S    
C3    C20   1.460219 S    
C33   C38   1.398561 A    
O8    C4    1.268536 A    
C22   H16   1.076014 S    
C2    O5    1.262814 A    
O3    Cr2   2.075177 S    
O20   C50   1.256265 A    
O17   Cr5   1.960509 S    
C8    H4    1.112879 S    
Cr4   O26   1.978652 S    
O23   Cr5   1.953765 S    
C10   C11   1.539260 S    
C12   C14   1.573316 S    
O2    C1    1.282665 A    
O14   Cr4   2.076270 S    
C33   H23   1.083823 S    
H5    C9    1.108534 S    
O19   Cr6   1.949663 S    
C6    C38   1.438275 S    
C14   H9    1.111488 S    
O7    C6    1.261913 A    
C23   C47   1.456116 S    
O21   C48   1.270694 A    
C24   C25   1.388911 A    
C7    H2    1.111160 S    
C13   H11   1.113356 S    
O17   C46   1.295882 A    
N3    O32   1.297298 A    
C28   H20   1.083832 S    
C14   N3    1.462233 S    
C4    O9    1.273344 A    
C43   H29   1.083571 S    
C31   C32   1.404183 A    
C29   C30   1.405842 A    
O23   C49   1.280790 A    
C35   C48   1.435723 S    
O10   C5    1.277951 A    
O22   Cr5   2.079864 S    
C21   C26   1.396677 A    
C29   C49   1.458426 S    
O14   C47   1.289727 A    
N2    O29   1.301535 A    
O16   Cr5   2.075143 S    
