data_mof_unit_38656.cif
_audit_creation_date              2012-12-10T17:29:19-0500
_audit_creation_method            fapswitch 2.2
_symmetry_space_group_name_H-M    P1
_symmetry_Int_Tables_number       1
_space_group_crystal_system       triclinic
_cell_length_a                    11.985627
_cell_length_b                    12.849547
_cell_length_c                    13.35934
_cell_angle_alpha                 87.328674
_cell_angle_beta                  111.89058
_cell_angle_gamma                 93.813651
_cell_volume                      1904.36568293

loop_
_atom_site_label
_atom_site_type_symbol
_atom_type_description
_atom_site_fract_x
_atom_site_fract_y
_atom_site_fract_z
_atom_type_partial_charge
C1    C     C_R   0.477092 0.299573 0.498914 0.882591
C2    C     C_R   0.545222 0.458860 0.983230 0.083086
C3    C     C_R   0.508958 0.448921 0.870656 0.023265
C4    C     C_R   0.455147 0.466592 0.027154 0.006699
C5    C     C_R   0.331211 0.455953 0.960752 0.058762
C6    C     C_R   0.297459 0.441472 0.850745 0.421855
C7    C     C_R   0.385209 0.426791 0.809234 -0.309183
C8    C     C_R   0.484761 0.491963 0.134173 -0.227757
C9    C     C_R   0.274742 0.480310 0.113398 -0.232568
C10   C     C_R   0.597128 0.466124 0.823035 -0.086277
C11   C     C_R   0.543239 0.812048 0.515054 -0.084863
C12   C     C_R   0.562749 0.486824 0.706757 0.848930
C13   C     C_R   0.462245 0.188370 0.497803 -0.045786
C14   C     C_R   0.343303 0.031398 0.428225 -0.210564
C15   C     C_R   0.350914 0.138586 0.439337 -0.208097
C16   C     C_R   0.564267 0.132116 0.549404 -0.265421
C17   C     C_R   0.557631 0.025697 0.538586 0.153496
C18   C     C_R   0.446890 0.975141 0.476476 0.189755
C19   C     C_R   0.441284 0.869201 0.463686 -0.329520
C20   C     C_R   0.655114 0.861950 0.579159 0.162099
C21   C     C_R   0.660609 0.969835 0.588446 -0.256644
C22   C     C_R   0.030191 0.627683 0.435609 0.049944
C23   C     C_R   0.524622 0.700532 0.505147 0.901323
C24   C     C_R   0.147102 0.610104 0.438821 -0.012667
C25   C     C_R   0.143147 0.441237 0.516417 -0.076742
C26   C     C_R   0.026435 0.453316 0.515342 0.089543
C27   C     C_R   0.969037 0.547409 0.475364 -0.005138
C28   C     C_R   0.852499 0.557889 0.477794 -0.078938
C29   C     C_R   0.853849 0.389680 0.558476 0.001919
C30   C     C_R   0.967847 0.374534 0.556791 -0.234720
C31   C     C_R   0.435319 0.504195 0.293185 0.879964
C32   C     C_R   0.242179 0.461668 0.004813 -0.167047
C33   C     C_R   0.396356 0.495347 0.177844 -0.045976
C34   C     C_R   0.719871 0.471934 0.888680 -0.201766
C35   C     C_R   0.755723 0.465826 0.999977 -0.150627
C36   C     C_R   0.670080 0.460927 0.047344 -0.163706
H1    H     H_    0.205341 0.481422 0.146961 0.159866
H2    H     H_    0.257697 0.992978 0.380858 0.141865
H3    H     H_    0.744540 0.010276 0.636893 0.135451
H4    H     H_    0.271774 0.182775 0.399140 0.155396
H5    H     H_    0.649598 0.171676 0.596199 0.142183
H6    H     H_    0.803503 0.627055 0.445401 0.122509
H7    H     H_    0.809520 0.328249 0.590326 0.130671
H8    H     H_    0.010295 0.301966 0.588553 0.145150
H9    H     H_    0.196414 0.668867 0.409401 0.160428
H10   H     H_    0.188494 0.370099 0.548660 0.134680
H11   H     H_    0.147499 0.449200 0.956156 0.180179
H12   H     H_    0.576700 0.510842 0.185256 0.154436
H13   H     H_    0.788575 0.482683 0.854063 0.159641
H14   H     H_    0.704622 0.456960 0.134281 0.128802
H15   H     H_    0.850655 0.468457 0.050049 0.138370
H16   H     H_    0.352704 0.399429 0.727911 0.196707
H17   H     H_    0.356247 0.830700 0.414497 0.155943
N1    N     N_R   0.798200 0.480260 0.519790 -0.099026
N2    N     N_R   0.201820 0.519740 0.480210 -0.127691
O1    O     O_R   0.579910 0.341070 0.505280 -0.625926
O2    O     O_R   0.388440 0.353740 0.492580 -0.632711
O3    O     O_R   0.643280 0.490550 0.663120 -0.618763
O4    O     O_R   0.451810 0.503220 0.650420 -0.619807
O5    O     O_R   0.611560 0.646260 0.507420 -0.625440
O6    O     O_R   0.420090 0.658930 0.494720 -0.629244
O7    O     O_R   0.548190 0.496780 0.349580 -0.619205
O8    O     O_R   0.356720 0.509450 0.336880 -0.621383
Zn1   Zn    Zn3+2 0.627850 0.491540 0.508480 0.933997
Zn2   Zn    Zn3+2 0.372150 0.508460 0.491520 0.929898
C37   C     C_3   0.767459 0.804460 0.643501 -0.410013
C38   C     C_3   0.755694 0.748449 0.742769 -0.811508
H18   H     H_    0.747210 0.806255 0.798470 0.248848
H19   H     H_    0.675665 0.693361 0.719973 0.259532
H20   H     H_    0.837010 0.704065 0.785926 0.243139
H21   H     H_    0.789270 0.749708 0.592638 0.218105
H22   H     H_    0.847446 0.860034 0.672449 0.190316
C39   C     C_3   0.971026 0.730531 0.393008 -0.408158
C40   C     C_3   0.046081 0.813761 0.356492 -0.913302
H23   H     H_    0.130873 0.835156 0.424676 0.255928
H24   H     H_    0.066487 0.785700 0.288099 0.255498
H25   H     H_    0.994269 0.884984 0.328673 0.257152
H26   H     H_    0.885750 0.714182 0.323335 0.209181
H27   H     H_    0.948551 0.764834 0.457605 0.202728
O9    O     O_3   0.179848 0.453770 0.781323 -0.627481
C41   C     C_3   0.162473 0.562302 0.759739 0.134121
H28   H     H_    0.165368 0.582595 0.679235 0.168331
H29   H     H_    0.232027 0.615094 0.818003 0.122998
C42   C     C_3   0.040766 0.588434 0.760760 -0.863959
H30   H     H_    0.044779 0.590572 0.844965 0.228928
H31   H     H_    0.016201 0.666203 0.721717 0.211912
H32   H     H_    0.969983 0.529430 0.717056 0.281504

loop_
_geom_bond_atom_site_label_1
_geom_bond_atom_site_label_2
_ccdc_geom_bond_type
O8    Zn2   S    
C39   C40   S    
C14   C18   A    
C35   C36   A    
C42   H32   S    
C4    C8    A    
C41   H28   S    
C24   N2    A    
C11   C19   A    
C26   C27   A    
C40   H24   S    
C24   H9    S    
C20   C37   S    
C1    O1    A    
C42   H31   S    
C7    H16   S    
C18   C19   A    
C3    C7    A    
C5    C6    A    
C29   N1    A    
C34   C35   A    
C11   C23   S    
O7    Zn1   S    
C9    C32   A    
C41   H29   S    
C12   O4    A    
C37   H22   S    
C16   C17   A    
C40   H25   S    
C39   H26   S    
O1    Zn1   S    
C5    C32   A    
C12   O3    A    
C19   H17   S    
C37   C38   S    
C29   H7    S    
C9    C33   A    
C31   O7    A    
C30   H8    S    
N2    Zn2   S    
O3    Zn1   S    
C23   O5    A    
C11   C20   A    
C40   H23   S    
C38   H18   S    
C31   O8    A    
C42   H30   S    
C28   N1    A    
C4    C5    A    
C25   C26   A    
C17   C21   A    
C38   H19   S    
C2    C4    A    
C8    H12   S    
C29   C30   A    
C1    O2    A    
C14   H2    S    
C6    O9    S    
C37   H21   S    
C21   H3    S    
C31   C33   S    
C9    H1    S    
C17   C18   A    
C39   H27   S    
C10   C34   A    
C10   C12   S    
C26   C30   A    
C22   C27   A    
C13   C15   A    
C35   H15   S    
C32   H11   S    
C22   C24   A    
C1    C13   S    
C41   C42   S    
C36   H14   S    
C2    C36   A    
C34   H13   S    
C25   N2    A    
O2    Zn2   S    
O9    C41   S    
C6    C7    A    
O5    Zn1   S    
C38   H20   S    
C2    C3    A    
C3    C10   A    
O4    Zn2   S    
N1    Zn1   S    
C16   H5    S    
C28   H6    S    
C8    C33   A    
C15   H4    S    
O6    Zn2   S    
C23   O6    A    
C20   C21   A    
C13   C16   A    
C27   C28   A    
C14   C15   A    
C22   C39   S    
C25   H10   S    
