data_mof_unit_54837.cif
_audit_creation_date              2012-12-10T20:28:43-0500
_audit_creation_method            fapswitch 2.2
_symmetry_space_group_name_H-M    P1
_symmetry_Int_Tables_number       1
_space_group_crystal_system       triclinic
_cell_length_a                    10.606465
_cell_length_b                    10.645913
_cell_length_c                    9.867047
_cell_angle_alpha                 89.888955
_cell_angle_beta                  90.001792
_cell_angle_gamma                 90.043068
_cell_volume                      1114.14017358

loop_
_atom_site_label
_atom_site_type_symbol
_atom_type_description
_atom_site_fract_x
_atom_site_fract_y
_atom_site_fract_z
_atom_type_partial_charge
C1    C     C_R   0.494870 0.259941 0.500118 0.890363
C2    C     C_R   0.066198 0.618478 0.542961 0.000337
C3    C     C_R   0.128395 0.508681 0.499843 -0.060135
C4    C     C_R   0.064449 0.403036 0.453947 -0.234772
C5    C     C_R   0.935564 0.403069 0.454005 -0.227467
C6    C     C_R   0.871767 0.508772 0.499869 -0.062171
C7    C     C_R   0.465248 0.063828 0.622817 0.128174
C8    C     C_R   0.471258 0.128801 0.500457 -0.144875
C9    C     C_R   0.450094 0.065151 0.378165 -0.245055
C10   C     C_R   0.450448 0.935309 0.378076 -0.214928
C11   C     C_R   0.471588 0.871255 0.500315 -0.196349
C12   C     C_R   0.260528 0.501531 0.500011 0.865487
C13   C     C_R   0.464832 0.935692 0.622842 0.250861
C14   C     C_3   0.546462 0.928651 0.746233 0.206777
C15   C     C_3   0.546967 0.071377 0.746030 -0.523287
C16   C     C_R   0.430749 0.413301 0.071373 0.138750
C17   C     C_R   0.577035 0.577904 0.071786 -0.119522
C18   C     C_R   0.577198 0.577762 0.927802 -0.093325
C19   C     C_R   0.430504 0.413532 0.928824 0.180362
C20   C     C_3   0.290922 0.397705 0.922994 0.326875
C21   C     C_3   0.291296 0.396444 0.077425 -0.572891
C22   C     C_R   0.495290 0.740122 0.499927 0.846476
C23   C     C_R   0.739512 0.501754 0.499978 0.861220
C24   C     C_R   0.131862 0.728237 0.582147 -0.268235
C25   C     C_R   0.066639 0.837261 0.618137 0.618185
C26   C     C_R   0.934710 0.835789 0.621355 -0.260659
C27   C     C_R   0.868914 0.727911 0.583455 -0.282045
C28   C     C_R   0.934241 0.618471 0.543120 0.101946
H1    H     H_    0.114651 0.320106 0.419974 0.137272
H2    H     H_    0.639903 0.884042 0.728352 0.076246
H3    H     H_    0.496632 0.114057 0.833441 0.256412
H4    H     H_    0.641421 0.112105 0.724197 0.156242
H5    H     H_    0.637245 0.642700 0.125956 0.145330
H6    H     H_    0.637662 0.642299 0.873299 0.152242
H7    H     H_    0.243314 0.480642 0.876226 0.106459
H8    H     H_    0.242231 0.478822 0.122023 0.195731
H9    H     H_    0.264802 0.304391 0.122692 0.219478
H10   H     H_    0.233694 0.731516 0.582471 0.164767
H11   H     H_    0.883114 0.918608 0.652420 0.141834
H12   H     H_    0.767057 0.731493 0.584515 0.153219
H13   H     H_    0.885250 0.320126 0.420098 0.141740
H14   H     H_    0.443461 0.114375 0.282220 0.184782
H15   H     H_    0.444237 0.886468 0.282081 0.188398
N1    N     N_R   0.499160 0.499140 0.142800 -0.099868
N2    N     N_R   0.499160 0.499180 0.857150 -0.134119
O1    O     O_R   0.500020 0.316790 0.614690 -0.595807
O2    O     O_R   0.500000 0.316760 0.385350 -0.622826
O3    O     O_R   0.316770 0.500020 0.614690 -0.618148
O4    O     O_R   0.316760 0.499980 0.385350 -0.615060
O5    O     O_R   0.500000 0.683240 0.614650 -0.604394
O6    O     O_R   0.499980 0.683210 0.385310 -0.618469
O7    O     O_R   0.683240 0.500020 0.614650 -0.625309
O8    O     O_R   0.683230 0.499980 0.385310 -0.612804
Zn1   Zn    Zn3+2 0.500010 0.500020 0.653130 0.971354
Zn2   Zn    Zn3+2 0.499990 0.499980 0.346870 0.947188
O9    O     O_3   0.259318 0.279812 0.867064 -0.572372
C29   C     C_3   0.128349 0.275548 0.843315 -0.279924
H16   H     H_    0.101669 0.340775 0.759935 0.164971
H17   H     H_    0.073642 0.297319 0.936666 0.155616
H18   H     H_    0.102491 0.179059 0.811652 0.221996
O10   O     O_3   0.133335 0.942720 0.657054 -0.593104
C30   C     C_3   0.127924 0.031894 0.551297 -0.348859
H19   H     H_    0.030436 0.068074 0.537091 0.149188
H20   H     H_    0.164884 0.992609 0.454593 0.175518
H21   H     H_    0.188426 0.113004 0.578608 0.210226
O11   O     O_3   0.479826 0.878585 0.856385 -0.709705
H22   H     H_    0.539465 0.879494 0.933836 0.324458

loop_
_geom_bond_atom_site_label_1
_geom_bond_atom_site_label_2
_ccdc_geom_bond_type
C26   C27   A    
C24   H10   S    
C19   N2    A    
C12   O4    A    
C16   C21   S    
C1    C8    S    
C11   C13   A    
C9    C10   A    
C16   N1    A    
C11   C22   S    
O6    Zn2   S    
C19   C20   S    
C22   O5    A    
C27   H12   S    
C12   O3    A    
C20   C21   S    
O1    Zn1   S    
C7    C15   S    
C17   C18   A    
C29   H16   S    
C17   N1    A    
C21   H9    S    
C7    C8    A    
O5    Zn1   S    
C21   H8    S    
C25   O10   S    
C13   C14   S    
C24   C25   A    
O3    Zn1   S    
C5    C6    A    
C18   H6    S    
N1    Zn2   S    
C23   O7    A    
C30   H19   S    
C17   H5    S    
C14   H2    S    
C16   C19   A    
C9    H14   S    
C6    C23   S    
C1    O2    A    
O7    Zn1   S    
N2    Zn1   S    
C23   O8    A    
C2    C3    A    
C20   O9    S    
O8    Zn2   S    
C14   O11   S    
O10   C30   S    
C26   H11   S    
C1    O1    A    
C29   H17   S    
C2    C24   A    
C10   C11   A    
C30   H20   S    
C3    C4    A    
C18   N2    A    
C7    C13   A    
O11   H22   S    
O9    C29   S    
O2    Zn2   S    
C27   C28   A    
C5    H13   S    
C14   C15   S    
C22   O6    A    
C29   H18   S    
C2    C28   A    
C3    C12   S    
C30   H21   S    
C25   C26   A    
O4    Zn2   S    
C20   H7    S    
C4    C5    A    
C15   H3    S    
C6    C28   A    
C4    H1    S    
C10   H15   S    
C8    C9    A    
C15   H4    S    
