data_mof_unit_65220.cif
_audit_creation_date              2012-10-26T17:45:59-0400
_audit_creation_method            fapswitch 2.2
_symmetry_space_group_name_H-M    P1
_symmetry_Int_Tables_number       1
_space_group_crystal_system       triclinic
_cell_length_a                    35.726335
_cell_length_b                    35.726335
_cell_length_c                    23.679039
_cell_angle_alpha                 90.000038
_cell_angle_beta                  90.000038
_cell_angle_gamma                 90.0
_cell_volume                      30223.2389842

loop_
_atom_site_label
_atom_site_type_symbol
_atom_type_description
_atom_site_fract_x
_atom_site_fract_y
_atom_site_fract_z
_atom_type_partial_charge
C1    C     C_R   0.000000 0.427816 0.500000 0.642069
C2    C     C_1   0.267308 1.000000 0.500000 0.196366
C3    C     C_R   0.826557 0.976813 0.461608 -0.031048
C4    C     C_R   0.976813 0.826557 0.538392 -0.031048
C5    C     C_R   0.173443 0.976813 0.538392 -0.031047
C6    C     C_R   0.023187 0.173443 0.538392 -0.031048
C7    C     C_R   0.826557 0.023187 0.538392 -0.031048
C8    C     C_R   0.476813 0.673443 0.961608 -0.031048
C9    C     C_R   0.673443 0.523187 0.961608 -0.031048
C10   C     C_R   0.523187 0.326557 0.961608 -0.031047
C11   C     C_R   0.326557 0.476813 0.961608 -0.031048
C12   C     C_R   0.476813 0.326557 0.038392 -0.031048
C13   C     C_1   0.000000 0.732692 0.500000 0.196366
C14   C     C_R   0.673443 0.476813 0.038392 -0.031047
C15   C     C_R   0.523187 0.673443 0.038392 -0.031048
C16   C     C_R   0.326557 0.523187 0.038392 -0.031048
C17   C     C_R   0.976741 0.133820 0.461702 -0.034716
C18   C     C_R   0.133820 0.023259 0.461702 -0.034717
C19   C     C_R   0.023258 0.866180 0.461702 -0.034717
C20   C     C_R   0.866180 0.976741 0.461702 -0.034716
C21   C     C_R   0.976741 0.866180 0.538298 -0.034716
C22   C     C_R   0.133820 0.976742 0.538298 -0.034717
C23   C     C_R   0.023259 0.133820 0.538298 -0.034716
C24   C     C_1   0.732692 0.000000 0.500000 0.196366
C25   C     C_R   0.866180 0.023258 0.538298 -0.034717
C26   C     C_R   0.476741 0.633820 0.961702 -0.034716
C27   C     C_R   0.633820 0.523258 0.961702 -0.034717
C28   C     C_R   0.523258 0.366180 0.961702 -0.034717
C29   C     C_R   0.366180 0.476741 0.961702 -0.034716
C30   C     C_R   0.476741 0.366180 0.038298 -0.034716
C31   C     C_R   0.633820 0.476741 0.038298 -0.034717
C32   C     C_R   0.523259 0.633820 0.038298 -0.034716
C33   C     C_R   0.366180 0.523259 0.038298 -0.034717
C34   C     C_R   1.000000 0.113896 0.500000 0.045841
C35   C     C_1   0.500000 0.767308 0.000000 0.196366
C36   C     C_R   0.113896 0.000000 0.500000 0.045841
C37   C     C_R   1.000000 0.886104 0.500000 0.045842
C38   C     C_R   0.886104 0.000000 0.500000 0.045842
C39   C     C_R   0.500000 0.613896 0.000000 0.045841
C40   C     C_R   0.613896 0.500000 0.000000 0.045841
C41   C     C_R   0.500000 0.386104 1.000000 0.045842
C42   C     C_R   0.386104 0.500000 1.000000 0.045842
C43   C     C_R   1.000000 0.193046 0.500000 0.022060
C44   C     C_R   0.193046 1.000000 0.500000 0.022060
C45   C     C_R   0.000000 0.806954 0.500000 0.022060
C46   C     C_1   0.767308 0.500000 0.000000 0.196366
C47   C     C_R   0.806954 0.000000 0.500000 0.022060
C48   C     C_R   0.500000 0.693046 0.000000 0.022060
C49   C     C_R   0.693046 0.500000 0.000000 0.022060
C50   C     C_R   0.500000 0.306954 1.000000 0.022060
C51   C     C_R   0.306954 0.500000 1.000000 0.022060
C52   C     C_1   1.000000 0.233591 0.500000 0.143416
C53   C     C_1   0.233591 1.000000 0.500000 0.143416
C54   C     C_1   1.000000 0.766409 0.500000 0.143416
C55   C     C_1   0.766409 0.000000 0.500000 0.143416
C56   C     C_1   0.500000 0.733591 0.000000 0.143416
C57   C     C_1   0.500000 0.232692 1.000000 0.196366
C58   C     C_1   0.733591 0.500000 0.000000 0.143416
C59   C     C_1   0.500000 0.266409 1.000000 0.143416
C60   C     C_1   0.266409 0.500000 1.000000 0.143416
C61   C     C_2   0.951599 0.194151 0.422107 0.264871
C62   C     C_2   0.194151 0.048401 0.422107 0.264870
C63   C     C_2   0.048401 0.805849 0.422107 0.264870
C64   C     C_2   0.805849 0.951599 0.422107 0.264870
C65   C     C_2   0.951599 0.805849 0.577893 0.264870
C66   C     C_2   0.194151 0.951599 0.577893 0.264870
C67   C     C_2   0.048401 0.194151 0.577893 0.264870
C68   C     C_1   0.232692 0.500000 1.000000 0.196366
C69   C     C_2   0.805849 0.048401 0.577893 0.264871
C70   C     C_2   0.451599 0.694151 0.922107 0.264871
C71   C     C_2   0.694151 0.548401 0.922107 0.264870
C72   C     C_2   0.548401 0.305849 0.922107 0.264870
C73   C     C_2   0.305849 0.451599 0.922107 0.264870
C74   C     C_2   0.451599 0.305849 0.077893 0.264870
C75   C     C_2   0.694151 0.451599 0.077893 0.264870
C76   C     C_2   0.548401 0.694151 0.077893 0.264870
C77   C     C_2   0.305849 0.548401 0.077893 0.264871
C78   C     C_2   0.950485 0.113521 0.423619 0.253628
C79   C     C_R   0.981070 0.327007 0.457597 0.308090
C80   C     C_2   0.113521 0.049515 0.423619 0.253628
C81   C     C_2   0.049515 0.886479 0.423619 0.253628
C82   C     C_2   0.886479 0.950485 0.423618 0.253629
C83   C     C_2   0.950485 0.886479 0.576381 0.253628
C84   C     C_2   0.113521 0.950485 0.576381 0.253628
C85   C     C_2   0.049515 0.113521 0.576381 0.253629
C86   C     C_2   0.886479 0.049515 0.576381 0.253628
C87   C     C_2   0.450485 0.613521 0.923619 0.253628
C88   C     C_2   0.613521 0.549515 0.923619 0.253628
C89   C     C_2   0.549515 0.386479 0.923619 0.253628
C90   C     C_R   0.327007 0.018930 0.457597 0.308089
C91   C     C_2   0.386479 0.450485 0.923618 0.253629
C92   C     C_2   0.450485 0.386479 0.076381 0.253628
C93   C     C_2   0.613521 0.450485 0.076381 0.253628
C94   C     C_2   0.549515 0.613521 0.076382 0.253629
C95   C     C_2   0.386479 0.549515 0.076381 0.253628
C96   C     C_2   0.962693 0.384835 0.407614 0.295179
C97   C     C_2   0.384835 0.037307 0.407614 0.295179
C98   C     C_2   0.037307 0.615164 0.407614 0.295179
C99   C     C_2   0.615164 0.962693 0.407614 0.295179
C100  C     C_2   0.962693 0.615165 0.592386 0.295179
C101  C     C_R   0.018930 0.672993 0.457597 0.308089
C102  C     C_2   0.384835 0.962693 0.592386 0.295179
C103  C     C_2   0.037307 0.384835 0.592386 0.295179
C104  C     C_2   0.615165 0.037307 0.592386 0.295179
C105  C     C_2   0.462693 0.884835 0.907614 0.295179
C106  C     C_2   0.884835 0.537307 0.907614 0.295179
C107  C     C_2   0.537307 0.115164 0.907614 0.295179
C108  C     C_2   0.115164 0.462693 0.907614 0.295179
C109  C     C_2   0.462693 0.115164 0.092386 0.295179
C110  C     C_2   0.884835 0.462693 0.092386 0.295179
C111  C     C_2   0.537307 0.884835 0.092386 0.295179
C112  C     C_R   0.427816 0.000000 0.500000 0.642069
C113  C     C_R   0.672993 0.981070 0.457597 0.308089
C114  C     C_2   0.115164 0.537307 0.092386 0.295179
C115  C     C_R   0.981070 0.672993 0.542403 0.308089
C116  C     C_R   0.327007 0.981070 0.542403 0.308089
C117  C     C_R   0.018930 0.327007 0.542403 0.308089
C118  C     C_R   0.672993 0.018930 0.542403 0.308090
C119  C     C_R   0.481070 0.827007 0.957597 0.308090
C120  C     C_R   0.827007 0.518930 0.957597 0.308089
C121  C     C_R   0.518930 0.172993 0.957597 0.308089
C122  C     C_R   0.172993 0.481070 0.957597 0.308089
C123  C     C_R   0.481070 0.172993 0.042403 0.308089
C124  C     C_R   0.000000 0.572183 0.500000 0.642069
C125  C     C_R   0.827007 0.481070 0.042403 0.308089
C126  C     C_R   0.518930 0.827007 0.042403 0.308089
C127  C     C_R   0.172993 0.518930 0.042403 0.308090
C128  C     C_R   0.981329 0.366314 0.456348 -0.024411
C129  C     C_R   0.366314 0.018671 0.456348 -0.024411
C130  C     C_R   0.018671 0.633686 0.456348 -0.024411
C131  C     C_R   0.633686 0.981329 0.456348 -0.024411
C132  C     C_R   0.981329 0.633686 0.543652 -0.024411
C133  C     C_R   0.366314 0.981329 0.543652 -0.024411
C134  C     C_R   0.018671 0.366314 0.543652 -0.024411
C135  C     C_R   0.572183 0.000000 0.500000 0.642069
C136  C     C_R   0.633686 0.018671 0.543652 -0.024411
C137  C     C_R   0.481329 0.866314 0.956348 -0.024411
C138  C     C_R   0.866314 0.518671 0.956348 -0.024411
C139  C     C_R   0.518671 0.133686 0.956348 -0.024411
C140  C     C_R   0.133686 0.481329 0.956348 -0.024411
C141  C     C_R   0.481329 0.133686 0.043652 -0.024411
C142  C     C_R   0.866314 0.481329 0.043652 -0.024411
C143  C     C_R   0.518671 0.866314 0.043652 -0.024411
C144  C     C_R   0.133686 0.518671 0.043652 -0.024411
C145  C     C_R   0.000000 0.386426 0.500000 -0.062850
C146  C     C_R   0.500000 0.927816 0.000000 0.642069
C147  C     C_R   0.386426 0.000000 0.500000 -0.062851
C148  C     C_R   1.000000 0.613574 0.500000 -0.062851
C149  C     C_R   0.613574 0.000000 0.500000 -0.062851
C150  C     C_R   0.500000 0.886426 0.000000 -0.062851
C151  C     C_R   0.886426 0.500000 0.000000 -0.062851
C152  C     C_R   0.500000 0.113574 1.000000 -0.062851
C153  C     C_R   0.113574 0.500000 0.000000 -0.062851
C154  C     C_R   0.000000 0.307573 0.500000 0.044606
C155  C     C_R   0.307573 1.000000 0.500000 0.044606
C156  C     C_R   0.000000 0.692427 0.500000 0.044606
C157  C     C_R   0.927816 0.500000 0.000000 0.642069
C158  C     C_R   0.692427 0.000000 0.500000 0.044606
C159  C     C_R   0.500000 0.807573 0.000000 0.044606
C160  C     C_R   0.807573 0.500000 0.000000 0.044606
C161  C     C_R   0.500000 0.192427 0.000000 0.044606
C162  C     C_R   0.192427 0.500000 1.000000 0.044606
C163  C     C_R   0.927745 0.000000 0.500000 0.663396
C164  C     C_R   0.000000 0.072255 0.500000 0.663396
C165  C     C_R   0.072255 0.000000 0.500000 0.663395
C166  C     C_R   1.000000 0.927745 0.500000 0.663396
C167  C     C_R   0.427745 0.500000 1.000000 0.663396
C168  C     C_R   0.500000 0.072183 0.000000 0.642069
C169  C     C_R   0.500000 0.572255 0.000000 0.663396
C170  C     C_R   0.572255 0.500000 0.000000 0.663395
C171  C     C_R   0.500000 0.427745 1.000000 0.663396
C172  C     C_R   0.000000 0.500000 0.608192 0.622604
C173  C     C_R   0.500000 0.000000 0.608192 0.622604
C174  C     C_R   1.000000 0.500000 0.391808 0.622604
C175  C     C_R   0.500000 1.000000 0.391808 0.622604
C176  C     C_R   0.500000 1.000000 0.108191 0.622604
C177  C     C_R   0.000000 0.500000 0.108191 0.622604
C178  C     C_R   0.500000 1.000000 0.891808 0.622604
C179  C     C_R   0.072183 0.500000 0.000000 0.642069
C180  C     C_R   0.000000 0.500000 0.891808 0.622604
C181  C     C_1   0.000000 0.500000 0.669026 0.072566
C182  C     C_1   0.500000 0.000000 0.669026 0.072565
C183  C     C_1   1.000000 0.500000 0.330974 0.072566
C184  C     C_1   0.500000 1.000000 0.330974 0.072566
C185  C     C_1   0.500000 1.000000 0.169026 0.072566
C186  C     C_1   0.000000 0.500000 0.169026 0.072565
C187  C     C_1   0.500000 1.000000 0.830974 0.072566
C188  C     C_1   0.000000 0.500000 0.830974 0.072566
C189  C     C_1   0.000000 0.500000 0.720075 0.012740
C190  C     C_1   0.000000 0.267308 0.500000 0.196366
C191  C     C_1   0.500000 0.000000 0.720075 0.012740
C192  C     C_1   1.000000 0.500000 0.279925 0.012740
C193  C     C_1   0.500000 1.000000 0.279925 0.012740
C194  C     C_1   0.500000 1.000000 0.220075 0.012740
C195  C     C_1   1.000000 0.500000 0.220075 0.012740
C196  C     C_1   0.500000 0.000000 0.779925 0.012740
C197  C     C_1   0.000000 0.500000 0.779925 0.012740
C198  C     C_R   0.976813 0.173443 0.461608 -0.031048
C199  C     C_R   0.173443 0.023187 0.461608 -0.031048
C200  C     C_R   0.023187 0.826557 0.461608 -0.031047
Cu1   Cu    Cu3+1 0.037270 0.500000 0.500000 1.093910
Cu2   Cu    Cu3+1 1.000000 1.000000 0.444220 1.098989
Cu3   Cu    Cu3+1 0.500000 0.500000 0.055780 1.098989
Cu4   Cu    Cu3+1 0.500000 0.500000 0.944220 1.098989
Cu5   Cu    Cu3+1 0.500000 0.962730 0.500000 1.093910
Cu6   Cu    Cu3+1 0.962730 0.500000 0.500000 1.093910
Cu7   Cu    Cu3+1 0.500000 0.037270 0.500000 1.093910
Cu8   Cu    Cu3+1 0.537270 0.000000 0.000000 1.093910
Cu9   Cu    Cu3+1 0.000000 0.462730 0.000000 1.093910
Cu10  Cu    Cu3+1 0.462730 0.000000 0.000000 1.093910
Cu11  Cu    Cu3+1 0.000000 0.537270 0.000000 1.093910
Cu12  Cu    Cu3+1 1.000000 1.000000 0.555780 1.098989
F1    F     F_    0.963250 0.307430 0.416298 -0.599159
F2    F     F_    0.807430 0.536750 0.916298 -0.599158
F3    F     F_    0.536750 0.192570 0.916298 -0.599159
F4    F     F_    0.192570 0.463250 0.916298 -0.599158
F5    F     F_    0.463250 0.192570 0.083702 -0.599158
F6    F     F_    0.807430 0.463250 0.083702 -0.599159
F7    F     F_    0.536750 0.807430 0.083702 -0.599158
F8    F     F_    0.192570 0.536750 0.083702 -0.599159
F9    F     F_    0.307430 0.036750 0.416298 -0.599158
F10   F     F_    0.036750 0.692570 0.416298 -0.599159
F11   F     F_    0.692570 0.963250 0.416298 -0.599158
F12   F     F_    0.963250 0.692570 0.583702 -0.599158
F13   F     F_    0.307430 0.963250 0.583702 -0.599159
F14   F     F_    0.036750 0.307430 0.583702 -0.599158
F15   F     F_    0.692570 0.036750 0.583702 -0.599159
F16   F     F_    0.463250 0.807430 0.916298 -0.599159
H1    H     H_    0.946445 0.183649 0.379904 0.105612
H2    H     H_    0.683649 0.553555 0.879904 0.105612
H3    H     H_    0.553555 0.316351 0.879904 0.105612
H4    H     H_    0.316351 0.446445 0.879903 0.105612
H5    H     H_    0.446445 0.316351 0.120096 0.105612
H6    H     H_    0.683649 0.446444 0.120096 0.105612
H7    H     H_    0.553555 0.683649 0.120096 0.105612
H8    H     H_    0.316351 0.553555 0.120096 0.105612
H9    H     H_    0.948468 0.121020 0.379377 0.091455
H10   H     H_    0.121020 0.051532 0.379377 0.091456
H11   H     H_    0.051532 0.878980 0.379377 0.091455
H12   H     H_    0.183649 0.053555 0.379904 0.105612
H13   H     H_    0.878980 0.948468 0.379377 0.091455
H14   H     H_    0.948468 0.878980 0.620622 0.091455
H15   H     H_    0.121020 0.948468 0.620623 0.091455
H16   H     H_    0.051532 0.121020 0.620623 0.091455
H17   H     H_    0.878980 0.051532 0.620623 0.091455
H18   H     H_    0.448468 0.621020 0.879377 0.091455
H19   H     H_    0.621020 0.551532 0.879377 0.091456
H20   H     H_    0.551532 0.378980 0.879377 0.091455
H21   H     H_    0.378980 0.448468 0.879377 0.091455
H22   H     H_    0.448468 0.378980 0.120622 0.091455
H23   H     H_    0.053555 0.816351 0.379904 0.105612
H24   H     H_    0.621020 0.448468 0.120623 0.091455
H25   H     H_    0.551532 0.621020 0.120623 0.091455
H26   H     H_    0.378980 0.551532 0.120623 0.091455
H27   H     H_    0.940901 0.370207 0.384531 0.185296
H28   H     H_    0.370207 0.059099 0.384531 0.185296
H29   H     H_    0.059099 0.629793 0.384531 0.185296
H30   H     H_    0.629793 0.940901 0.384531 0.185296
H31   H     H_    0.940901 0.629793 0.615469 0.185296
H32   H     H_    0.370207 0.940901 0.615469 0.185296
H33   H     H_    0.059099 0.370207 0.615469 0.185296
H34   H     H_    0.816351 0.946445 0.379904 0.105612
H35   H     H_    0.629793 0.059099 0.615469 0.185296
H36   H     H_    0.440901 0.870207 0.884531 0.185296
H37   H     H_    0.870207 0.559099 0.884531 0.185296
H38   H     H_    0.559099 0.129793 0.884531 0.185296
H39   H     H_    0.129793 0.440901 0.884531 0.185296
H40   H     H_    0.440901 0.129793 0.115469 0.185296
H41   H     H_    0.870207 0.440901 0.115469 0.185296
H42   H     H_    0.559099 0.870207 0.115469 0.185296
H43   H     H_    0.129793 0.559099 0.115469 0.185296
H44   H     H_    0.946445 0.816351 0.620096 0.105612
H45   H     H_    0.183649 0.946444 0.620096 0.105612
H46   H     H_    0.053555 0.183649 0.620096 0.105612
H47   H     H_    0.816351 0.053555 0.620096 0.105612
H48   H     H_    0.446445 0.683649 0.879904 0.105612
O1    O     O_R   0.031480 0.445630 0.499980 -0.484949
O2    O     O_R   0.945630 0.468520 0.999980 -0.484948
O3    O     O_R   0.468520 0.054370 0.999980 -0.484948
O4    O     O_R   0.054370 0.531480 0.999980 -0.484948
O5    O     O_R   0.531480 0.054370 0.000020 -0.484949
O6    O     O_R   0.945630 0.531480 0.000020 -0.484949
O7    O     O_R   0.468520 0.945630 0.000020 -0.484948
O8    O     O_R   0.054370 0.468520 0.000020 -0.484948
O9    O     O_R   0.031480 0.500000 0.581380 -0.487379
O10   O     O_R   0.500000 0.968520 0.581380 -0.487379
O11   O     O_R   0.968520 0.500000 0.581380 -0.487379
O12   O     O_R   0.445630 0.968520 0.499980 -0.484948
O13   O     O_R   0.500000 0.031480 0.581380 -0.487379
O14   O     O_R   0.031480 0.500000 0.418620 -0.487378
O15   O     O_R   0.500000 0.031480 0.418620 -0.487379
O16   O     O_R   0.968520 0.500000 0.418620 -0.487379
O17   O     O_R   0.500000 0.968520 0.418620 -0.487379
O18   O     O_R   0.531480 1.000000 0.081380 -0.487379
O19   O     O_R   1.000000 0.468520 0.081380 -0.487379
O20   O     O_R   0.468520 1.000000 0.081380 -0.487379
O21   O     O_R   0.000000 0.531480 0.081380 -0.487379
O22   O     O_R   0.531480 1.000000 0.918620 -0.487378
O23   O     O_R   0.968520 0.554370 0.499980 -0.484948
O24   O     O_R   0.000000 0.531480 0.918620 -0.487379
O25   O     O_R   0.468520 1.000000 0.918620 -0.487379
O26   O     O_R   0.000000 0.468520 0.918620 -0.487379
O27   O     O_R   0.945750 0.999990 0.547080 -0.485603
O28   O     O_R   0.999990 0.054250 0.547080 -0.485603
O29   O     O_R   0.054250 0.000010 0.547080 -0.485604
O30   O     O_R   0.000010 0.945750 0.547080 -0.485603
O31   O     O_R   0.945750 0.000010 0.452920 -0.485603
O32   O     O_R   0.999990 0.945750 0.452920 -0.485603
O33   O     O_R   0.054250 0.999990 0.452920 -0.485603
O34   O     O_R   0.554370 0.031480 0.499980 -0.484948
O35   O     O_R   0.000010 0.054250 0.452920 -0.485603
O36   O     O_R   0.445750 0.499990 0.047080 -0.485603
O37   O     O_R   0.499990 0.554250 0.047080 -0.485603
O38   O     O_R   0.554250 0.500010 0.047080 -0.485604
O39   O     O_R   0.500010 0.445750 0.047080 -0.485603
O40   O     O_R   0.445750 0.500010 0.952920 -0.485603
O41   O     O_R   0.499990 0.445750 0.952920 -0.485603
O42   O     O_R   0.554250 0.499990 0.952920 -0.485603
O43   O     O_R   0.500010 0.554250 0.952920 -0.485603
O44   O     O_2   0.935523 0.222705 0.436745 -0.419129
O45   O     O_R   0.031480 0.554370 0.500020 -0.484949
O46   O     O_2   0.222705 0.064477 0.436745 -0.419129
O47   O     O_2   0.064477 0.777294 0.436745 -0.419129
O48   O     O_2   0.777294 0.935523 0.436745 -0.419129
O49   O     O_2   0.935523 0.777294 0.563255 -0.419129
O50   O     O_2   0.222705 0.935523 0.563255 -0.419129
O51   O     O_2   0.064477 0.222705 0.563255 -0.419129
O52   O     O_2   0.777294 0.064477 0.563255 -0.419129
O53   O     O_2   0.435523 0.722705 0.936745 -0.419129
O54   O     O_2   0.722705 0.564477 0.936745 -0.419129
O55   O     O_2   0.564477 0.277294 0.936745 -0.419129
O56   O     O_R   0.445630 0.031480 0.500020 -0.484949
O57   O     O_2   0.277294 0.435523 0.936745 -0.419129
O58   O     O_2   0.435523 0.277294 0.063255 -0.419129
O59   O     O_2   0.722706 0.435523 0.063255 -0.419129
O60   O     O_2   0.564477 0.722706 0.063255 -0.419129
O61   O     O_2   0.277294 0.564477 0.063255 -0.419129
O62   O     O_2   0.930202 0.088790 0.441737 -0.446684
O63   O     O_2   0.088790 0.069798 0.441737 -0.446685
O64   O     O_2   0.069798 0.911209 0.441737 -0.446685
O65   O     O_2   0.911209 0.930202 0.441737 -0.446685
O66   O     O_2   0.930202 0.911209 0.558263 -0.446685
O67   O     O_R   0.968520 0.445630 0.500020 -0.484948
O68   O     O_2   0.088790 0.930202 0.558263 -0.446684
O69   O     O_2   0.069798 0.088791 0.558263 -0.446686
O70   O     O_2   0.911209 0.069798 0.558263 -0.446684
O71   O     O_2   0.430202 0.588790 0.941737 -0.446684
O72   O     O_2   0.588790 0.569798 0.941737 -0.446685
O73   O     O_2   0.569798 0.411209 0.941737 -0.446684
O74   O     O_2   0.411209 0.430202 0.941737 -0.446685
O75   O     O_2   0.430202 0.411210 0.058263 -0.446685
O76   O     O_2   0.588790 0.430202 0.058263 -0.446684
O77   O     O_2   0.569798 0.588790 0.058263 -0.446686
O78   O     O_R   0.554370 0.968520 0.500020 -0.484948
O79   O     O_2   0.411210 0.569798 0.058263 -0.446684
O80   O     O_2   0.972344 0.415667 0.390957 -0.514162
O81   O     O_2   0.415667 0.027656 0.390957 -0.514162
O82   O     O_2   0.027656 0.584333 0.390957 -0.514162
O83   O     O_2   0.584333 0.972344 0.390957 -0.514162
O84   O     O_2   0.972344 0.584333 0.609043 -0.514162
O85   O     O_2   0.415667 0.972344 0.609043 -0.514162
O86   O     O_2   0.027656 0.415667 0.609043 -0.514162
O87   O     O_2   0.584333 0.027656 0.609043 -0.514162
O88   O     O_2   0.472344 0.915667 0.890957 -0.514162
O89   O     O_R   0.531480 0.945630 0.999980 -0.484949
O90   O     O_2   0.915667 0.527656 0.890957 -0.514162
O91   O     O_2   0.527656 0.084333 0.890957 -0.514162
O92   O     O_2   0.084333 0.472344 0.890957 -0.514162
O93   O     O_2   0.472344 0.084333 0.109043 -0.514162
O94   O     O_2   0.915667 0.472344 0.109043 -0.514162
O95   O     O_2   0.527656 0.915667 0.109043 -0.514162
O96   O     O_2   0.084333 0.527656 0.109043 -0.514162

loop_
_geom_bond_atom_site_label_1
_geom_bond_atom_site_label_2
_ccdc_geom_bond_type
C61   O44   D    
C72   H3    S    
C29   C42   A    
C8    C26   A    
C77   O61   D    
C114  H43   S    
C70   O53   D    
C15   C32   A    
C164  O35   A    
C45   C200  A    
C19   C200  A    
Cu9   O8    S    
C50   C59   S    
C187  C196  T    
C128  C145  A    
C57   C59   T    
C184  C193  T    
C180  O26   A    
C126  C143  A    
Cu11  O4    S    
C191  C196  S    
C173  O13   A    
Cu4   O41   S    
C19   C37   A    
C146  C150  S    
C107  O91   D    
C44   C53   S    
C21   C83   S    
Cu6   O67   S    
C114  O96   D    
Cu1   Cu6   S    
Cu8   O22   S    
C115  C132  A    
C101  C130  A    
C170  O38   A    
Cu11  O24   S    
Cu3   O37   S    
Cu7   O13   S    
C109  H40   S    
Cu11  O21   S    
Cu8   O18   S    
C127  F8    S    
C67   O51   D    
C89   O73   D    
C179  O8    A    
C192  C195  S    
C115  F12   S    
C116  C133  A    
C99   H30   S    
C177  C186  S    
C119  C137  A    
C142  C151  A    
C174  C183  S    
C1    O1    A    
C46   C160  S    
C123  C141  A    
C103  H33   S    
Cu12  O30   S    
C124  O23   A    
C97   H28   S    
C173  C182  S    
C118  C158  A    
C120  C138  A    
C17   C34   A    
Cu1   O9    S    
C29   C91   S    
C118  C136  A    
C42   C167  S    
C13   C54   T    
C189  C197  S    
C106  H37   S    
Cu10  O3    S    
C2    C53   T    
C100  C132  S    
C92   H22   S    
C138  C151  A    
C22   C36   A    
C167  O36   A    
Cu7   O34   S    
C109  O93   D    
Cu5   O10   S    
C39   C169  S    
Cu4   O43   S    
C135  C149  S    
C17   C78   S    
C102  H32   S    
C129  C147  A    
C169  O43   A    
C57   C161  S    
C171  O41   A    
C119  C159  A    
C193  C194  S    
C120  C160  A    
C66   H45   S    
C111  H42   S    
C92   O75   D    
C108  O92   D    
C101  F10   S    
C20   C82   S    
C139  C152  A    
C1    C145  S    
C16   C51   A    
C14   C31   A    
C125  C160  A    
Cu8   O5    S    
C3    C64   S    
C63   C200  S    
C41   C171  S    
C83   H14   S    
Cu10  O7    S    
C121  F3    S    
C62   C199  S    
C164  O28   A    
C93   O76   D    
C34   C164  S    
C80   O63   D    
C123  C161  A    
C168  O5    A    
C113  F11   S    
C90   C129  A    
C172  C181  S    
C26   C87   S    
C71   O54   D    
C30   C41   A    
C28   C89   S    
C133  C147  A    
C84   H15   S    
Cu4   O40   S    
C146  O89   A    
C111  C143  S    
C125  F6    S    
C100  H31   S    
C46   C58   T    
C15   C48   A    
C65   O49   D    
Cu6   O23   S    
C119  F16   S    
C103  O86   D    
C4    C45   A    
Cu5   Cu7   S    
C69   H47   S    
C117  F14   S    
C70   H48   S    
Cu5   O12   S    
Cu6   O11   S    
C9    C49   A    
C90   F9    S    
C30   C92   S    
C74   O58   D    
Cu2   O33   S    
C111  O95   D    
C85   H16   S    
Cu8   O89   S    
C1    O67   A    
C13   C156  S    
Cu6   O16   S    
Cu1   O45   S    
C25   C38   A    
C170  O42   A    
C171  O39   A    
C27   C40   A    
C23   C34   A    
Cu10  O20   S    
C38   C163  S    
C179  O4    A    
C127  C162  A    
C95   O79   D    
C137  C150  A    
C100  O84   D    
C6    C67   S    
C104  C136  S    
C35   C56   T    
Cu2   O31   S    
C88   O72   D    
C5    C66   S    
C12   C50   A    
C86   H17   S    
C165  O29   A    
C8    C70   S    
C122  C162  A    
C112  C147  S    
C116  F13   S    
C175  O15   A    
C121  C139  A    
C67   H46   S    
C102  C133  S    
C122  C140  A    
C3    C47   A    
C36   C165  S    
C122  F4    S    
C62   O46   D    
C123  F5    S    
C105  O88   D    
C63   O47   D    
Cu4   O42   S    
C105  C137  S    
Cu7   O56   S    
C86   O70   D    
C109  C141  S    
C51   C60   S    
C94   O77   D    
C19   C81   S    
C141  C152  A    
C157  O6    A    
C10   C72   S    
C124  O45   A    
C63   H23   S    
C153  C179  S    
Cu1   O14   S    
C12   C74   S    
C115  C156  A    
C78   O62   D    
Cu10  O25   S    
C185  C194  T    
C79   C128  A    
C183  C192  T    
C40   C170  S    
C136  C149  A    
C176  C185  S    
C124  C148  S    
C87   H18   S    
C151  C157  S    
C103  C134  S    
C64   H34   S    
C26   C39   A    
C117  C134  A    
C96   O80   D    
C28   C41   A    
C81   O64   D    
C62   H12   S    
C31   C40   A    
C96   C128  S    
C75   H6    S    
C16   C77   S    
C106  O90   D    
C32   C39   A    
C65   H44   S    
C180  C188  S    
Cu1   O1    S    
C181  C189  T    
C173  O10   A    
C84   O68   D    
C61   H1    S    
Cu12  O27   S    
C93   H24   S    
C140  C153  A    
C15   C76   S    
C154  C190  S    
C177  O21   A    
Cu3   O36   S    
C152  C168  S    
C166  O32   A    
C176  O18   A    
C11   C73   S    
C94   H25   S    
C101  C156  A    
C126  C159  A    
C75   O59   D    
C77   H8    S    
C97   O81   D    
C81   H11   S    
C82   H13   S    
C7    C47   A    
C99   O83   D    
C8    C48   A    
C87   O71   D    
C98   C130  S    
C107  H38   S    
C17   C198  A    
C52   C190  T    
C74   H5    S    
C95   H26   S    
C178  C187  S    
C98   H29   S    
C5    C44   A    
C177  O19   A    
C78   H9    S    
C6    C43   A    
Cu3   O38   S    
C182  C191  T    
C167  O40   A    
C10   C50   A    
C126  F7    S    
C9    C27   A    
C91   H21   S    
C10   C28   A    
C134  C145  A    
C33   C42   A    
C12   C30   A    
C9    C71   S    
Cu2   Cu12  S    
C61   C198  S    
C118  F15   S    
C110  O94   D    
C7    C25   A    
C14   C75   S    
Cu5   O78   S    
C165  O33   A    
C172  O9    A    
C188  C197  T    
C105  H36   S    
C43   C198  A    
C127  C144  A    
C11   C51   A    
Cu12  O29   S    
C43   C52   S    
C21   C37   A    
C60   C68   T    
C117  C154  A    
Cu2   O35   S    
C98   O82   D    
C18   C36   A    
C168  O3    A    
C114  C144  S    
C175  C184  S    
C79   C154  A    
C69   O52   D    
C32   C94   S    
Cu3   Cu4   S    
C2    C155  S    
C166  O30   A    
C176  O20   A    
C169  O37   A    
C24   C55   T    
C178  O25   A    
C4    C65   S    
C24   C158  S    
C106  C138  S    
C14   C49   A    
C120  F2    S    
Cu9   O2    S    
C80   H10   S    
C144  C153  A    
C110  C142  S    
C116  C155  A    
C135  O34   A    
C157  O2    A    
C143  C150  A    
C5    C22   A    
C76   O60   D    
C104  H35   S    
C113  C158  A    
C82   O65   D    
C163  O27   A    
C121  C161  A    
C174  O16   A    
C91   O74   D    
C107  C139  S    
C66   O50   D    
C33   C95   S    
Cu9   O19   S    
C130  C148  A    
C132  C148  A    
C186  C195  T    
C3    C20   A    
C83   O66   D    
Cu2   O32   S    
C108  C140  S    
C172  O11   A    
C73   O57   D    
C31   C93   S    
C104  O87   D    
C49   C58   S    
C22   C84   S    
C108  H39   S    
C16   C33   A    
C20   C38   A    
C125  C142  A    
C180  O24   A    
C178  O22   A    
Cu11  O6    S    
C64   O48   D    
Cu8   Cu10  S    
C135  O78   A    
C45   C54   S    
C23   C85   S    
C175  O17   A    
Cu5   O17   S    
C102  O85   D    
C47   C55   S    
C48   C56   S    
C113  C131  A    
Cu3   O39   S    
C96   H27   S    
Cu7   O15   S    
C7    C69   S    
C110  H41   S    
C37   C166  S    
C68   C162  S    
C89   H20   S    
C99   C131  S    
Cu9   O26   S    
C97   C129  S    
C88   H19   S    
C4    C21   A    
C72   O55   D    
C6    C23   A    
C25   C86   S    
Cu9   Cu11  S    
C71   H2    S    
C76   H7    S    
C163  O31   A    
C27   C88   S    
C35   C159  S    
C131  C149  A    
C112  O56   A    
C79   F1    S    
C11   C29   A    
C44   C199  A    
C18   C80   S    
C174  O14   A    
C18   C199  A    
C85   O69   D    
C112  O12   A    
C90   C155  A    
Cu12  O28   S    
C73   H4    S    
C146  O7    A    
