data_mof_unit_29798.cif
_audit_creation_date              2013-03-05T15:49:01-0500
_audit_creation_method            fapswitch 2.2
_symmetry_space_group_name_H-M    P1
_symmetry_Int_Tables_number       1
_space_group_crystal_system       triclinic
_cell_length_a                    17.74169
_cell_length_b                    18.205948
_cell_length_c                    12.091521
_cell_angle_alpha                 89.311623
_cell_angle_beta                  80.534656
_cell_angle_gamma                 90.161473
_cell_volume                      3852.1156208

loop_
_atom_site_label
_atom_site_type_symbol
_atom_site_description
_atom_site_fract_x
_atom_site_fract_y
_atom_site_fract_z
_atom_type_partial_charge
O1    O     O_R   0.418020 0.076820 0.422210 -0.586499
O2    O     O_R   0.581980 0.923180 0.577790 -0.586436
O3    O     O_R   0.581980 0.076820 0.577790 -0.565647
O4    O     O_R   0.418020 0.923180 0.422210 -0.565598
O5    O     O_R   0.918020 0.576820 0.422210 -0.586420
O6    O     O_R   0.081980 0.423180 0.577790 -0.586466
O7    O     O_R   0.081980 0.576820 0.577790 -0.565624
O8    O     O_R   0.918020 0.423180 0.422210 -0.565655
O9    O     O_R   0.430370 0.076830 0.608590 -0.634336
O10   O     O_R   0.569630 0.923170 0.391410 -0.634343
O11   O     O_R   0.569630 0.076830 0.391410 -0.644434
O12   O     O_R   0.430370 0.923170 0.608590 -0.644436
O13   O     O_R   0.930370 0.576830 0.608590 -0.634345
O14   O     O_R   0.069630 0.423170 0.391410 -0.634339
O15   O     O_R   0.069630 0.576830 0.391410 -0.644436
O16   O     O_R   0.930370 0.423170 0.608590 -0.644436
C1    C     C_R   0.405259 0.105639 0.522496 0.878502
C2    C     C_R   0.594741 0.894360 0.477504 0.878516
C3    C     C_R   0.596146 0.104817 0.475722 0.882585
C4    C     C_R   0.403854 0.895183 0.524277 0.882570
C5    C     C_R   0.905259 0.605640 0.522496 0.878518
C6    C     C_R   0.094741 0.394360 0.477504 0.878510
C7    C     C_R   0.096145 0.604818 0.475723 0.882574
C8    C     C_R   0.903854 0.395183 0.524278 0.882584
C9    C     C_R   0.590881 0.996607 0.816554 0.337549
C10   C     C_R   0.409118 0.003382 0.183449 0.337515
C11   C     C_R   0.090881 0.496609 0.816552 0.337534
C12   C     C_R   0.909119 0.503398 0.183446 0.337558
Zn1   Zn    Zn3+2 0.491750 0.000000 0.375560 0.938539
Zn2   Zn    Zn3+2 0.508250 0.000000 0.624440 0.938550
Zn3   Zn    Zn3+2 0.991750 0.500000 0.375560 0.938554
Zn4   Zn    Zn3+2 0.008250 0.500000 0.624440 0.938545
C13   C     C_R   0.600487 0.993808 0.928460 -0.385611
C14   C     C_R   0.399510 0.006182 0.071543 -0.385573
C15   C     C_R   0.100489 0.493807 0.928458 -0.385593
C16   C     C_R   0.899513 0.506199 0.071540 -0.385622
C17   C     C_R   0.455378 0.002213 0.871431 0.230432
C18   C     C_R   0.544621 0.997788 0.128569 0.230432
C19   C     C_R   0.955379 0.502216 0.871431 0.230430
C20   C     C_R   0.044622 0.497784 0.128569 0.230429
C21   C     C_R   0.644497 0.170355 0.455797 -0.178098
C22   C     C_R   0.355503 0.829645 0.544199 -0.178130
C23   C     C_R   0.358532 0.172011 0.538576 -0.183712
C24   C     C_R   0.641468 0.827989 0.461423 -0.183717
C25   C     C_R   0.144495 0.670357 0.455800 -0.178115
C26   C     C_R   0.855503 0.329645 0.544203 -0.178093
C27   C     C_R   0.858532 0.672011 0.538576 -0.183718
C28   C     C_R   0.141467 0.327988 0.461425 -0.183715
C29   C     C_R   0.239903 0.778296 0.648725 -0.232626
C30   C     C_R   0.760105 0.221695 0.351280 -0.232623
C31   C     C_R   0.748732 0.769568 0.349241 -0.232291
C32   C     C_R   0.251269 0.230434 0.650759 -0.232294
C33   C     C_R   0.739896 0.278304 0.648722 -0.232625
C34   C     C_R   0.260093 0.721708 0.351273 -0.232622
C35   C     C_R   0.248729 0.269564 0.349242 -0.232291
C36   C     C_R   0.751269 0.730433 0.650758 -0.232289
C37   C     C_R   0.308551 0.816101 0.648941 0.187039
C38   C     C_R   0.691455 0.183893 0.351059 0.187052
C39   C     C_R   0.680556 0.808509 0.354199 0.190729
C40   C     C_R   0.319445 0.191491 0.645800 0.190730
C41   C     C_R   0.808544 0.316107 0.648942 0.187055
C42   C     C_R   0.191446 0.683901 0.351057 0.187046
C43   C     C_R   0.180553 0.308507 0.354200 0.190730
C44   C     C_R   0.819445 0.691492 0.645800 0.190730
C45   C     C_R   0.347612 0.786318 0.451514 0.133675
C46   C     C_R   0.652383 0.213688 0.548478 0.133575
C47   C     C_R   0.655851 0.789565 0.557388 0.131340
C48   C     C_R   0.344148 0.210434 0.442611 0.131321
C49   C     C_R   0.847617 0.286311 0.451523 0.133560
C50   C     C_R   0.152384 0.713686 0.548484 0.133627
C51   C     C_R   0.155850 0.289565 0.557390 0.131330
C52   C     C_R   0.844150 0.710436 0.442611 0.131346
C53   C     C_R   0.277693 0.750891 0.450656 0.062221
C54   C     C_R   0.722302 0.249115 0.549340 0.062245
C55   C     C_R   0.726024 0.753964 0.552384 0.063679
C56   C     C_R   0.273975 0.246035 0.447616 0.063681
C57   C     C_R   0.777698 0.250884 0.450662 0.062246
C58   C     C_R   0.222303 0.749113 0.549341 0.062218
C59   C     C_R   0.226023 0.253964 0.552385 0.063682
C60   C     C_R   0.773977 0.746036 0.447615 0.063679
N1    N     N_R   0.480750 0.000000 0.209750 -0.121056
N2    N     N_R   0.519250 0.000000 0.790250 -0.121043
N3    N     N_R   0.980750 0.500000 0.209750 -0.121041
N4    N     N_R   0.019250 0.500000 0.790250 -0.121051
H1    H     H_    0.700588 0.270373 0.726051 0.172490
H2    H     H_    0.299395 0.729648 0.273939 0.172479
H3    H     H_    0.281812 0.256557 0.268907 0.171763
H4    H     H_    0.718184 0.743439 0.731093 0.171760
H5    H     H_    0.200600 0.770358 0.726058 0.172487
H6    H     H_    0.799412 0.229627 0.273950 0.172494
H7    H     H_    0.781816 0.756562 0.268907 0.171760
H8    H     H_    0.218186 0.243440 0.731093 0.171762
H9    H     H_    0.657919 0.988387 0.946341 0.171953
H10   H     H_    0.342076 0.011593 0.053663 0.171981
H11   H     H_    0.157921 0.488388 0.946339 0.171966
H12   H     H_    0.842081 0.511625 0.053658 0.171950
C61   C     C_R   0.463209 0.002237 0.985669 0.026448
C62   C     C_R   0.536789 0.997762 0.014332 0.026473
C63   C     C_R   0.963211 0.502241 0.985668 0.026477
C64   C     C_R   0.036790 0.497760 0.014331 0.026459
N5    N     N_2   0.344686 0.008206 0.269949 -0.243097
H13   H     H_    0.319704 0.059381 0.273147 0.213404
C65   C     C_3   0.288709 0.949864 0.273311 -0.768122
H14   H     H_    0.248471 0.951908 0.353927 0.241801
H15   H     H_    0.316827 0.895421 0.267559 0.251213
H16   H     H_    0.255578 0.956427 0.203434 0.210759
N6    N     N_2   0.655315 0.991753 0.730061 -0.243097
H17   H     H_    0.680315 0.940589 0.726953 0.213363
C66   C     C_3   0.711275 0.050117 0.726631 -0.768185
H18   H     H_    0.751599 0.047964 0.646112 0.241737
H19   H     H_    0.744312 0.043687 0.796630 0.210775
H20   H     H_    0.683151 0.104550 0.732107 0.251370
N7    N     N_2   0.844685 0.508258 0.269936 -0.243094
H21   H     H_    0.819679 0.559419 0.273023 0.213356
C67   C     C_3   0.788731 0.449888 0.273382 -0.768247
H22   H     H_    0.748398 0.452052 0.353885 0.241738
H23   H     H_    0.816857 0.395462 0.267944 0.251403
H24   H     H_    0.755704 0.456293 0.203375 0.210785
N8    N     N_2   0.155314 0.491769 0.730056 -0.243093
H25   H     H_    0.180305 0.440599 0.726903 0.213382
C68   C     C_3   0.211284 0.550122 0.726661 -0.768163
H26   H     H_    0.251568 0.548021 0.646098 0.241768
H27   H     H_    0.244365 0.543628 0.796602 0.210768
H28   H     H_    0.183164 0.604560 0.732268 0.251295
C69   C     C_3   0.623430 0.996975 0.159455 -0.834259
H29   H     H_    0.623943 0.001144 0.249005 0.307298
H30   H     H_    0.653164 0.945851 0.129984 0.237928
H31   H     H_    0.657098 0.043966 0.118668 0.228643
C70   C     C_3   0.376569 0.003025 0.840545 -0.834261
H32   H     H_    0.376056 0.998858 0.750994 0.307297
H33   H     H_    0.342903 0.956032 0.881327 0.228644
H34   H     H_    0.346833 0.054147 0.870021 0.237925
C71   C     C_3   0.123431 0.496972 0.159455 -0.834257
H35   H     H_    0.123944 0.501142 0.249006 0.307297
H36   H     H_    0.153165 0.445848 0.129984 0.237928
H37   H     H_    0.157099 0.543963 0.118669 0.228641
C72   C     C_3   0.876570 0.503029 0.840545 -0.834257
H38   H     H_    0.876057 0.498856 0.750995 0.307298
H39   H     H_    0.842901 0.456040 0.881335 0.228640
H40   H     H_    0.846837 0.554154 0.870013 0.237931
C73   C     C_3   0.584974 0.225158 0.641669 -0.893721
H41   H     H_    0.530478 0.207471 0.616266 0.232118
H42   H     H_    0.592767 0.194599 0.718794 0.239181
H43   H     H_    0.578621 0.284573 0.660598 0.233019
C74   C     C_3   0.415017 0.774853 0.358313 -0.893649
H44   H     H_    0.469516 0.792530 0.383717 0.232100
H45   H     H_    0.421365 0.715440 0.339364 0.232989
H46   H     H_    0.407222 0.805425 0.281200 0.239199
C75   C     C_3   0.404706 0.216383 0.338178 -0.885635
H47   H     H_    0.462291 0.201792 0.356013 0.241454
H48   H     H_    0.390012 0.180265 0.271456 0.235487
H49   H     H_    0.409348 0.274105 0.306937 0.230229
C76   C     C_3   0.595292 0.783615 0.661820 -0.885631
H50   H     H_    0.537707 0.798207 0.643984 0.241444
H51   H     H_    0.590648 0.725893 0.693058 0.230225
H52   H     H_    0.609985 0.819731 0.728544 0.235492
C77   C     C_3   0.084979 0.725150 0.641683 -0.893682
H53   H     H_    0.030481 0.707469 0.616282 0.232108
H54   H     H_    0.092775 0.694582 0.718800 0.239191
H55   H     H_    0.078628 0.784564 0.660627 0.233002
C78   C     C_3   0.915026 0.274841 0.358332 -0.893732
H56   H     H_    0.969522 0.292529 0.383735 0.232119
H57   H     H_    0.921380 0.215426 0.339404 0.233023
H58   H     H_    0.907233 0.305399 0.281207 0.239179
C79   C     C_3   0.904709 0.716385 0.338180 -0.885630
H59   H     H_    0.962293 0.701793 0.356016 0.241443
H60   H     H_    0.890015 0.680270 0.271456 0.235493
H61   H     H_    0.909353 0.774108 0.306942 0.230224
C80   C     C_3   0.095292 0.283617 0.661823 -0.885634
H62   H     H_    0.037707 0.298208 0.643988 0.241452
H63   H     H_    0.090649 0.225894 0.693063 0.230228
H64   H     H_    0.109987 0.319734 0.728545 0.235488
N9    N     N_2   0.667606 0.162083 0.248352 -0.283995
H65   H     H_    0.609526 0.166414 0.249776 0.251716
C81   C     C_3   0.710535 0.187288 0.142007 -0.847819
H66   H     H_    0.681433 0.169377 0.072237 0.238455
H67   H     H_    0.768625 0.163026 0.128542 0.250295
H68   H     H_    0.713897 0.248274 0.139088 0.246416
N10   N     N_2   0.332406 0.837907 0.751646 -0.283987
H69   H     H_    0.390486 0.833576 0.750216 0.251712
C82   C     C_3   0.289480 0.812702 0.857993 -0.847819
H70   H     H_    0.318583 0.830615 0.927760 0.238456
H71   H     H_    0.286120 0.751716 0.860912 0.246412
H72   H     H_    0.231388 0.836963 0.871462 0.250294
N11   N     N_2   0.350492 0.173887 0.745257 -0.280649
H73   H     H_    0.409220 0.177506 0.734757 0.251066
C83   C     C_3   0.314602 0.202092 0.852740 -0.851621
H74   H     H_    0.347806 0.184745 0.918785 0.240009
H75   H     H_    0.255920 0.179331 0.876002 0.248957
H76   H     H_    0.313445 0.263111 0.850226 0.244802
N12   N     N_2   0.649509 0.826113 0.254742 -0.280650
H77   H     H_    0.590781 0.822495 0.265242 0.251063
C84   C     C_3   0.685400 0.797908 0.147260 -0.851626
H78   H     H_    0.652196 0.815255 0.081215 0.240007
H79   H     H_    0.686557 0.736889 0.149774 0.244802
H80   H     H_    0.744081 0.820670 0.123997 0.248958
N13   N     N_2   0.167592 0.662092 0.248353 -0.283986
H81   H     H_    0.109512 0.666423 0.249782 0.251711
C85   C     C_3   0.210519 0.687295 0.142005 -0.847820
H82   H     H_    0.181416 0.669380 0.072238 0.238458
H83   H     H_    0.268610 0.663034 0.128539 0.250294
H84   H     H_    0.213878 0.748281 0.139082 0.246410
N14   N     N_2   0.832394 0.337919 0.751649 -0.283994
H85   H     H_    0.890473 0.333587 0.750226 0.251715
C86   C     C_3   0.789463 0.312716 0.857994 -0.847816
H86   H     H_    0.818564 0.330629 0.927764 0.238456
H87   H     H_    0.786101 0.251731 0.860916 0.246414
H88   H     H_    0.731373 0.336979 0.871457 0.250295
N15   N     N_2   0.850493 0.673889 0.745258 -0.280651
H89   H     H_    0.909221 0.677506 0.734757 0.251064
C87   C     C_3   0.814603 0.702097 0.852739 -0.851627
H90   H     H_    0.847808 0.684751 0.918784 0.240007
H91   H     H_    0.755921 0.679336 0.876004 0.248958
H92   H     H_    0.813447 0.763115 0.850221 0.244804
N16   N     N_2   0.149505 0.326110 0.254743 -0.280651
H93   H     H_    0.090777 0.322493 0.265245 0.251066
C88   C     C_3   0.185394 0.297902 0.147262 -0.851624
H94   H     H_    0.152189 0.315249 0.081217 0.240008
H95   H     H_    0.186549 0.236884 0.149778 0.244803
H96   H     H_    0.244076 0.320663 0.123997 0.248957

loop_
_geom_bond_atom_site_label_1
_geom_bond_atom_site_label_2
_geom_bond_distance
_ccdc_geom_bond_type
C6    C28   1.464059 S    
N14   H85   1.030999 S    
C19   C72   1.505456 S    
C77   H53   1.109565 S    
C7    C25   1.461834 S    
C50   C58   1.398140 A    
N6    C66   1.447721 S    
C80   H62   1.110620 S    
O13   Zn4   1.998491 S    
C49   C57   1.398142 A    
C33   C54   1.400588 A    
C56   C59   1.414235 A    
O14   Zn3   1.998493 S    
C18   C62   1.410826 A    
C77   H54   1.108461 S    
C78   H58   1.108462 S    
C36   H4    1.078391 S    
C51   C59   1.398025 A    
C61   C62   1.406998 A    
N11   H73   1.030527 S    
Zn3   N3    2.046066 S    
C81   H67   1.110366 S    
C46   C73   1.519032 S    
N9    H65   1.030998 S    
C88   H96   1.110502 S    
C72   H39   1.105445 S    
O11   C3    1.299655 A    
C40   N11   1.435957 S    
C11   N4    1.361232 A    
C49   C78   1.519033 S    
C19   N4    1.372816 A    
C70   H32   1.087894 S    
C75   H48   1.110033 S    
C10   N5    1.420548 S    
N11   C83   1.450474 S    
O2    C2    1.312494 A    
N13   H81   1.030999 S    
C24   C39   1.415741 A    
C67   H22   1.110450 S    
C46   C54   1.398144 A    
C25   C42   1.415291 A    
C14   C61   1.405995 A    
C45   C53   1.398138 A    
C29   C58   1.400592 A    
C13   C62   1.405981 A    
C52   C79   1.520011 S    
N13   C85   1.451155 S    
C31   C60   1.401102 A    
C83   H76   1.111292 S    
C48   C75   1.520012 S    
C32   C40   1.396885 A    
C31   H7    1.078391 S    
C39   N12   1.435954 S    
C10   C14   1.391700 A    
C87   H90   1.110963 S    
C23   C48   1.407053 A    
C67   H23   1.108480 S    
C54   C57   1.415562 A    
C35   C43   1.396884 A    
C85   H84   1.111563 S    
N6    H17   1.031268 S    
C51   C80   1.520011 S    
O3    C3    1.314634 A    
C76   H51   1.110666 S    
C32   C59   1.401104 A    
C55   C60   1.414237 A    
O4    Zn1   1.927011 S    
C70   H34   1.104761 S    
C67   H24   1.111143 S    
O15   C7    1.299657 A    
C69   H29   1.087893 S    
C85   H82   1.110652 S    
O16   C8    1.299655 A    
C36   C55   1.401102 A    
C5    C27   1.464060 S    
N10   C82   1.451154 S    
C12   N3    1.361238 A    
C71   H36   1.104759 S    
C80   H63   1.110662 S    
C20   N3    1.372824 A    
C79   H60   1.110031 S    
C33   C41   1.397661 A    
C22   C37   1.415290 A    
C17   C61   1.410835 A    
C78   H57   1.110562 S    
C30   H6    1.078515 S    
C74   H44   1.109566 S    
C81   H68   1.111563 S    
N9    C81   1.451154 S    
Zn4   N4    2.046066 S    
C72   H40   1.104758 S    
C68   H27   1.111250 S    
C74   H45   1.110566 S    
C26   C41   1.415289 A    
N12   H77   1.030527 S    
C30   C38   1.397663 A    
N5    H13   1.031288 S    
C73   H43   1.110562 S    
C27   C44   1.415741 A    
C37   N10   1.436220 S    
C28   C43   1.415740 A    
C16   C63   1.405977 A    
C34   C42   1.397663 A    
C84   H79   1.111292 S    
C88   H94   1.110962 S    
C82   H70   1.110649 S    
N7    C67   1.447720 S    
C73   H42   1.108460 S    
C75   H49   1.110665 S    
Zn2   N2    2.046066 S    
O3    Zn2   1.927009 S    
N16   H93   1.030526 S    
N12   C84   1.450475 S    
Zn1   N1    2.046066 S    
C2    C24   1.464059 S    
C71   H37   1.105447 S    
C34   C53   1.400592 A    
N14   C86   1.451154 S    
C16   H12   1.080395 S    
C19   C63   1.410825 A    
C81   H66   1.110650 S    
C53   C58   1.415563 A    
C84   H80   1.110499 S    
O12   C4    1.299660 A    
C36   C44   1.396885 A    
N15   H89   1.030527 S    
O13   C5    1.303082 A    
C65   H15   1.108687 S    
C48   C56   1.398024 A    
C76   H52   1.110032 S    
C69   H30   1.104758 S    
C12   C16   1.391689 A    
C68   H26   1.110529 S    
N8    C68   1.447731 S    
O9    Zn2   1.998491 S    
C68   H28   1.108617 S    
C35   C56   1.401103 A    
C23   C40   1.415741 A    
O9    C1    1.303083 A    
C79   H61   1.110666 S    
C87   H91   1.110501 S    
C84   H78   1.110962 S    
C10   N1    1.361223 A    
C11   N8    1.420549 S    
C18   N1    1.372816 A    
C71   H35   1.087894 S    
C80   H64   1.110031 S    
C17   N2    1.372827 A    
C66   H20   1.108576 S    
C38   N9    1.436217 S    
C47   C55   1.398026 A    
C28   C51   1.407052 A    
C45   C74   1.519035 S    
C15   C64   1.405987 A    
C30   C57   1.400587 A    
C21   C38   1.415287 A    
C65   H14   1.110566 S    
C18   C69   1.505454 S    
C74   H46   1.108462 S    
C9    N6    1.420550 S    
C34   H2    1.078519 S    
N7    H21   1.031259 S    
C20   C71   1.505457 S    
C86   H88   1.110367 S    
C22   C45   1.403577 A    
C86   H86   1.110649 S    
O7    Zn4   1.927009 S    
C82   H72   1.110369 S    
O12   Zn2   1.996264 S    
C25   C50   1.403577 A    
O8    Zn3   1.927011 S    
C14   H10   1.080392 S    
C42   N13   1.436219 S    
C29   H5    1.078519 S    
C13   H9    1.080392 S    
C20   C64   1.410833 A    
C29   C37   1.397663 A    
C4    C22   1.461833 S    
N8    H25   1.031287 S    
O15   Zn3   1.996263 S    
C21   C46   1.403573 A    
C15   H11   1.080396 S    
C77   H55   1.110566 S    
O16   Zn4   1.996264 S    
C72   H38   1.087894 S    
O1    C1    1.312492 A    
C63   C64   1.406999 A    
O2    Zn2   1.942139 S    
C47   C76   1.520011 S    
C50   C77   1.519034 S    
C11   C15   1.391697 A    
O14   C6    1.303081 A    
C66   H19   1.111218 S    
C8    C26   1.461835 S    
C83   H74   1.110962 S    
C52   C60   1.398027 A    
C78   H56   1.109561 S    
C73   H41   1.109563 S    
C41   N14   1.436218 S    
O10   Zn1   1.998493 S    
O1    Zn1   1.942138 S    
C9    N2    1.361235 A    
O10   C2    1.303081 A    
C69   H31   1.105442 S    
O7    C7    1.314631 A    
N15   C87   1.450475 S    
C17   C70   1.505455 S    
C65   H16   1.111294 S    
C35   H3    1.078390 S    
C88   H95   1.111290 S    
C44   N15   1.435955 S    
C85   H83   1.110367 S    
C27   C52   1.407051 A    
C83   H75   1.110501 S    
N16   C88   1.450474 S    
C32   H8    1.078388 S    
C12   N7    1.420546 S    
N10   H69   1.030999 S    
O4    C4    1.314627 A    
C79   H59   1.110620 S    
C82   H71   1.111563 S    
C87   H92   1.111291 S    
C31   C39   1.396885 A    
O8    C8    1.314634 A    
O11   Zn1   1.996263 S    
N5    C65   1.447723 S    
O6    Zn4   1.942139 S    
O5    C5    1.312495 A    
C66   H18   1.110518 S    
C1    C23   1.464061 S    
C26   C49   1.403573 A    
C24   C47   1.407053 A    
C33   H1    1.078516 S    
C70   H33   1.105443 S    
C76   H50   1.110621 S    
C75   H47   1.110620 S    
C86   H87   1.111565 S    
C43   N16   1.435956 S    
C3    C21   1.461835 S    
C9    C13   1.391690 A    
O5    Zn3   1.942138 S    
O6    C6    1.312494 A    
