data_mof_unit_40143.cif
_audit_creation_date              2013-03-05T15:44:58-0500
_audit_creation_method            fapswitch 2.2
_symmetry_space_group_name_H-M    P1
_symmetry_Int_Tables_number       1
_space_group_crystal_system       triclinic
_cell_length_a                    10.875322
_cell_length_b                    10.942184
_cell_length_c                    18.833352
_cell_angle_alpha                 89.682099
_cell_angle_beta                  90.432495
_cell_angle_gamma                 119.705235
_cell_volume                      1946.58509511

loop_
_atom_site_label
_atom_site_type_symbol
_atom_site_description
_atom_site_fract_x
_atom_site_fract_y
_atom_site_fract_z
_atom_type_partial_charge
O1    O     O_R   0.766500 0.250040 0.579790 -0.488732
O2    O     O_R   0.798570 0.516780 0.574780 -0.508700
C1    C     C_R   0.865023 0.636892 0.603752 0.550462
O3    O     O_R   0.984000 0.732950 0.581090 -0.529973
O4    O     O_R   0.218600 0.700890 0.574760 -0.485924
C2    C     C_R   0.267637 0.630327 0.604494 0.584977
O5    O     O_R   0.249390 0.515350 0.579940 -0.515471
O6    O     O_R   0.982790 0.280900 0.573700 -0.515613
C3    C     C_R   0.859756 0.218363 0.599797 0.588769
O7    O     O_R   0.766600 0.251130 0.419260 -0.497108
O8    O     O_R   0.798660 0.517790 0.425980 -0.511699
C4    C     C_R   0.864365 0.639472 0.398010 0.551545
O9    O     O_R   0.984100 0.734040 0.420570 -0.523625
O10   O     O_R   0.218690 0.701900 0.425960 -0.481778
C5    C     C_R   0.273369 0.635910 0.397186 0.578383
O11   O     O_R   0.249490 0.516440 0.419420 -0.525123
O12   O     O_R   0.982880 0.281910 0.424890 -0.508335
C6    C     C_R   0.863784 0.233668 0.394259 0.574076
Cr1   Cr    Cr6+3 0.791660 0.390250 0.499930 1.055327
Cr2   Cr    Cr6+3 0.098520 0.708290 0.500540 1.053771
Cr3   Cr    Cr6+3 0.109770 0.401430 0.499480 1.028161
O13   O     O_3   0.999980 0.499990 0.499980 -0.266226
C7    C     C_R   0.217532 0.680608 0.723869 -0.131158
H1    H     H_    0.124174 0.681114 0.703792 0.132837
C8    C     C_R   0.245331 0.696057 0.796304 -0.145254
H2    H     H_    0.175315 0.709939 0.831825 0.114989
C9    C     C_R   0.362787 0.690809 0.822066 0.044218
C10   C     C_R   0.453501 0.672758 0.776000 -0.116756
H3    H     H_    0.545664 0.670526 0.796230 0.133182
C11   C     C_R   0.425338 0.656175 0.703990 -0.120682
H4    H     H_    0.494083 0.639308 0.668928 0.142075
C12   C     C_R   0.307879 0.660932 0.677906 0.039615
C13   C     C_R   0.800325 0.098129 0.811065 -0.023356
C14   C     C_R   0.062818 0.205255 0.821258 -0.088631
C15   C     C_R   0.191799 0.237927 0.790473 -0.125810
C16   C     C_R   0.198203 0.215817 0.718441 -0.127243
C17   C     C_R   0.078035 0.171648 0.676172 -0.083345
C18   C     C_R   0.948360 0.146673 0.705791 -0.005284
C19   C     C_R   0.936197 0.147325 0.780372 -0.007434
H5    H     H_    0.286894 0.279925 0.822731 0.118452
H6    H     H_    0.297293 0.236651 0.694909 0.113014
H7    H     H_    0.066203 0.232424 0.876464 0.150809
C20   C     C_R   0.695899 0.062082 0.691194 -0.000897
C21   C     C_R   0.681010 0.066387 0.765486 -0.031525
C22   C     C_R   0.574291 0.008474 0.646026 0.242328
C23   C     C_R   0.448927 0.996114 0.672151 -0.102685
C24   C     C_R   0.437663 0.018251 0.743424 -0.186495
C25   C     C_R   0.548163 0.045396 0.790057 -0.108099
C26   C     C_R   0.832792 0.126225 0.662643 0.003802
H8    H     H_    0.086747 0.154369 0.620394 0.138094
H9    H     H_    0.524954 0.056230 0.843968 0.174705
H10   H     H_    0.357807 0.964445 0.637870 0.153008
H11   H     H_    0.339581 0.007342 0.763451 0.119074
C27   C     C_R   0.727610 0.533880 0.713936 -0.142593
H12   H     H_    0.667065 0.431509 0.689316 0.140874
C28   C     C_R   0.718863 0.544528 0.787182 -0.153547
H13   H     H_    0.647492 0.452610 0.817811 0.124936
C29   C     C_R   0.805454 0.673640 0.820299 0.017327
C30   C     C_R   0.892475 0.793268 0.779292 -0.143643
H14   H     H_    0.956531 0.895934 0.802977 0.153612
C31   C     C_R   0.898556 0.783470 0.706948 -0.137658
H15   H     H_    0.970753 0.876528 0.677354 0.141556
C32   C     C_R   0.821712 0.653005 0.674110 0.027282
C33   C     C_R   0.393291 0.606774 0.295271 -0.129118
H16   H     H_    0.416476 0.535754 0.325319 0.133106
C34   C     C_R   0.410396 0.613807 0.222898 -0.123003
H17   H     H_    0.451185 0.551160 0.199381 0.140553
C35   C     C_R   0.374811 0.699103 0.181458 0.035366
C36   C     C_R   0.330020 0.784617 0.214046 -0.138934
H18   H     H_    0.307109 0.854633 0.182981 0.119397
C37   C     C_R   0.309053 0.774752 0.287162 -0.124160
H19   H     H_    0.264219 0.833461 0.311259 0.136345
C38   C     C_R   0.335398 0.681061 0.327404 0.040369
C39   C     C_R   0.763633 0.226017 0.277148 -0.123717
H20   H     H_    0.692821 0.257856 0.299869 0.131582
C40   C     C_R   0.765088 0.215915 0.204580 -0.128964
H21   H     H_    0.691663 0.235260 0.173932 0.130601
C41   C     C_R   0.850030 0.169040 0.172696 0.029895
C42   C     C_R   0.946428 0.148783 0.214064 -0.133887
H22   H     H_    0.014753 0.115119 0.190105 0.117001
C43   C     C_R   0.948928 0.164464 0.287557 -0.132369
H23   H     H_    0.023343 0.148618 0.319310 0.118635
C44   C     C_R   0.853658 0.198487 0.319464 0.039620
C45   C     C_R   0.913018 0.784619 0.292695 -0.132275
H24   H     H_    0.993973 0.875588 0.320724 0.128380
C46   C     C_R   0.909971 0.790501 0.220201 -0.128327
H25   H     H_    0.986204 0.887944 0.195224 0.129052
C47   C     C_R   0.809576 0.674727 0.180938 0.036652
C48   C     C_R   0.710541 0.552390 0.215913 -0.154559
H26   H     H_    0.629610 0.463757 0.186578 0.110302
C49   C     C_R   0.717234 0.544462 0.289497 -0.144221
H27   H     H_    0.644871 0.447218 0.316023 0.119122
C50   C     C_R   0.822655 0.659188 0.327625 0.038534
O14   O     O_R   0.895110 0.806860 0.920430 -0.529017
O15   O     O_R   0.872260 0.046970 0.925000 -0.513082
C51   C     C_R   0.774988 0.054143 0.886928 0.548372
O16   O     O_R   0.691430 0.085060 0.918550 -0.532870
O17   O     O_R   0.451490 0.822460 0.925250 -0.521308
C52   C     C_R   0.395761 0.701296 0.896507 0.535859
O18   O     O_R   0.413330 0.603360 0.920440 -0.519246
O19   O     O_R   0.676110 0.626250 0.926750 -0.506691
C53   C     C_R   0.794972 0.695359 0.895424 0.540704
O20   O     O_R   0.895350 0.809870 0.080950 -0.526220
O21   O     O_R   0.872490 0.049760 0.073800 -0.502921
C54   C     C_R   0.809577 0.108793 0.102015 0.557384
O22   O     O_R   0.691680 0.088070 0.079070 -0.518639
O23   O     O_R   0.451720 0.825250 0.074050 -0.499906
C55   C     C_R   0.403884 0.707497 0.106070 0.552264
O24   O     O_R   0.413580 0.606370 0.080960 -0.525683
O25   O     O_R   0.676340 0.629040 0.075550 -0.505101
C56   C     C_R   0.796523 0.697588 0.106102 0.550800
Cr4   Cr    Cr6+3 0.874790 0.925890 0.000070 1.005123
Cr5   Cr    Cr6+3 0.574120 0.948670 0.999300 1.004666
Cr6   Cr    Cr6+3 0.551420 0.625320 0.000920 1.006410
O26   O     O_3   0.666780 0.833290 0.000090 -0.258068
N1    N     N_R   0.577241 0.964694 0.574299 0.075383
O27   O     O_R   0.489783 0.964242 0.526591 -0.341341
O28   O     O_R   0.658568 0.913181 0.557968 -0.368709

loop_
_geom_bond_atom_site_label_1
_geom_bond_atom_site_label_2
_geom_bond_distance
_ccdc_geom_bond_type
C34   C35   1.405457 A    
O19   C53   1.276188 A    
C2    C12   1.437357 S    
O15   C51   1.307509 A    
C14   H7    1.078308 S    
C39   C44   1.400806 A    
Cr6   O26   1.980701 S    
O4    Cr2   1.934378 S    
C22   C23   1.394936 A    
C28   H13   1.083247 S    
O8    Cr1   1.941089 S    
C13   C19   1.424249 A    
C39   C40   1.372622 A    
C41   C54   1.453808 S    
C10   H3    1.081083 S    
C45   C46   1.367384 A    
O15   Cr4   1.941571 S    
O4    C2    1.262109 A    
C46   C47   1.403971 A    
C27   C32   1.409852 A    
C5    O11   1.269186 A    
C23   H10   1.082315 S    
C55   O24   1.257540 A    
O20   C56   1.257599 A    
C14   C15   1.394457 A    
C23   C24   1.382369 A    
C31   C32   1.392282 A    
O25   C56   1.274296 A    
O23   Cr5   1.950173 S    
C35   C36   1.397183 A    
C47   C56   1.448239 S    
C25   H9    1.069356 S    
C15   C16   1.387638 A    
C28   C29   1.397887 A    
O6    C3    1.264486 A    
C33   C38   1.393494 A    
C29   C53   1.450632 S    
C48   C49   1.391672 A    
O25   Cr6   1.933863 S    
C24   H11   1.083373 S    
C47   C48   1.399239 A    
C34   H17   1.081917 S    
C36   C37   1.392312 A    
C30   H14   1.082373 S    
Cr3   O13   1.966032 S    
O19   Cr6   1.950631 S    
C16   H6    1.082732 S    
C36   H18   1.083223 S    
O21   C54   1.270849 A    
C43   C44   1.402608 A    
C6    C44   1.451305 S    
C27   C28   1.392944 A    
O1    Cr1   2.062844 S    
C30   C31   1.371953 A    
C39   H20   1.081696 S    
O22   Cr5   2.069283 S    
C14   C19   1.419609 A    
O1    C3    1.277441 A    
O10   Cr2   1.950663 S    
Cr1   O13   1.969370 S    
C3    C26   1.484030 S    
C40   H21   1.083883 S    
C49   H27   1.082245 S    
O21   Cr4   1.954721 S    
C41   C42   1.404020 A    
C20   C26   1.403726 A    
O17   Cr5   1.949021 S    
C29   C30   1.406262 A    
O5    Cr3   2.065433 S    
C43   H23   1.083171 S    
O20   Cr4   2.058312 S    
C33   C34   1.373620 A    
C20   C21   1.413461 A    
C17   C18   1.415252 A    
C49   C50   1.406115 A    
C24   C25   1.391728 A    
O7    Cr1   2.075590 S    
O23   C55   1.275244 A    
C9    C52   1.435502 S    
C51   O16   1.268850 A    
O12   C6    1.266292 A    
O18   Cr6   2.054867 S    
C45   H24   1.083917 S    
C20   C22   1.427056 A    
O24   Cr6   2.070041 S    
C5    C38   1.449902 S    
Cr2   O13   1.980628 S    
C11   H4    1.083788 S    
C4    C50   1.447138 S    
O16   Cr5   2.069979 S    
C1    O3    1.271471 A    
C13   C51   1.488551 S    
C18   C26   1.413492 A    
C42   C43   1.394058 A    
C27   H12   1.083282 S    
C16   C17   1.392050 A    
O9    Cr2   2.051984 S    
O2    Cr1   1.956185 S    
C46   H25   1.081531 S    
C13   C21   1.442585 A    
C40   C41   1.399428 A    
O6    Cr3   1.950371 S    
O8    C4    1.271168 A    
O11   Cr3   2.069886 S    
C2    O5    1.262407 A    
C1    C32   1.450200 S    
C8    C9    1.390477 A    
C54   O22   1.259644 A    
C52   O18   1.258711 A    
C33   H16   1.083925 S    
C10   C11   1.381075 A    
O2    C1    1.268080 A    
C8    H2    1.083442 S    
C37   H19   1.083231 S    
C7    C12   1.409140 A    
C11   C12   1.389945 A    
C17   H8    1.081525 S    
C22   N1    1.441653 S    
C18   C19   1.412208 A    
O7    C6    1.258538 A    
O14   Cr4   2.075284 S    
N1    O28   1.301803 A    
N1    O27   1.301726 A    
C15   H5    1.082774 S    
C45   C50   1.394724 A    
C7    C8    1.388057 A    
C31   H15   1.082545 S    
O12   Cr3   1.946940 S    
C7    H1    1.083327 S    
C42   H22   1.081477 S    
O3    Cr2   2.071578 S    
C4    O9    1.268072 A    
O14   C53   1.256240 A    
O17   C52   1.274660 A    
C37   C38   1.409501 A    
C9    C10   1.404612 A    
O10   C5    1.266262 A    
C35   C55   1.449422 S    
C48   H26   1.083094 S    
Cr4   O26   1.967849 S    
C21   C25   1.426257 A    
Cr5   O26   1.967251 S    
