data_mof_unit_30834.cif
_audit_creation_date              2012-12-11T17:37:54-0500
_audit_creation_method            fapswitch 2.2
_symmetry_space_group_name_H-M    P1
_symmetry_Int_Tables_number       1
_space_group_crystal_system       triclinic
_cell_length_a                    12.91878
_cell_length_b                    13.074711
_cell_length_c                    15.155147
_cell_angle_alpha                 116.210063
_cell_angle_beta                  63.967759
_cell_angle_gamma                 97.155188
_cell_volume                      2056.00910757

loop_
_atom_site_label
_atom_site_type_symbol
_atom_type_description
_atom_site_fract_x
_atom_site_fract_y
_atom_site_fract_z
_atom_type_partial_charge
C1    C     C_R   0.072020 0.816282 0.983763 -0.127177
C2    C     C_R   0.709110 0.430821 0.308337 0.058204
C3    C     C_R   0.637362 0.565510 0.027821 0.187178
C4    C     C_R   0.971594 0.826975 0.322008 0.057043
C5    C     C_R   0.322471 0.579702 0.012140 -0.207288
C6    C     C_R   0.901261 0.202247 0.793892 -0.127713
C7    C     C_R   0.216162 0.434148 0.686674 -0.142428
C8    C     C_R   0.058454 0.255372 0.084010 -0.152996
C9    C     C_R   0.955598 0.171172 0.990013 -0.125776
C10   C     C_R   0.320962 0.523171 0.779288 -0.125869
C11   C     C_R   0.243602 0.479312 0.108078 -0.090342
C12   C     C_R   0.701499 0.405808 0.211711 -0.081868
C13   C     C_R   0.979736 0.303015 0.698955 -0.162918
C14   C     C_R   0.336181 0.541604 0.077747 0.048559
C15   C     C_R   0.918078 0.210817 0.702044 0.060030
C16   C     C_R   0.328169 0.446357 0.675947 0.057640
C17   C     C_R   0.015510 0.151781 0.039193 0.076937
C18   C     C_R   0.323040 0.819632 0.393489 -0.029853
C19   C     C_R   0.205449 0.851130 0.436812 -0.172071
C20   C     C_R   0.164725 0.893290 0.385957 0.145704
C21   C     C_R   0.243367 0.898687 0.288478 -0.145891
C22   C     C_R   0.360764 0.865893 0.244754 -0.146907
C23   C     C_R   0.740689 0.585906 0.955398 -0.172253
C24   C     C_R   0.400874 0.828651 0.298426 -0.046767
C25   C     C_R   0.029919 0.051485 0.543475 -0.256751
C26   C     C_R   0.923828 0.115710 0.606599 0.069837
C27   C     C_R   0.830107 0.085694 0.579210 0.015797
C28   C     C_R   0.847923 0.987842 0.483413 -0.278065
C29   C     C_R   0.956487 0.925724 0.418494 0.058128
C30   C     C_R   0.048260 0.955923 0.448634 -0.003394
C31   C     C_R   0.613445 0.097393 0.675017 -0.161506
C32   C     C_R   0.505532 0.160467 0.741548 -0.105363
C33   C     C_R   0.498126 0.279622 0.782547 -0.080693
C34   C     C_R   0.953896 0.718956 0.316572 -0.116215
C35   C     C_R   0.598557 0.335879 0.756510 -0.117997
C36   C     C_R   0.706434 0.273103 0.688899 -0.146801
C37   C     C_R   0.715318 0.153130 0.648540 0.133272
C38   C     C_R   0.868828 0.556821 0.592378 -0.088694
C39   C     C_R   0.796299 0.480448 0.553430 -0.126362
C40   C     C_R   0.716013 0.517422 0.532115 0.084277
C41   C     C_R   0.705391 0.633444 0.555591 -0.155087
C42   C     C_R   0.778149 0.709640 0.594449 -0.137362
C43   C     C_R   0.860338 0.671167 0.612139 -0.116602
C44   C     C_R   0.539215 0.425316 0.582064 -0.217980
C45   C     C_R   0.661469 0.480198 0.047470 -0.069314
C46   C     C_R   0.434576 0.398596 0.573754 0.059288
C47   C     C_R   0.436396 0.347158 0.468420 0.036900
C48   C     C_R   0.539970 0.334631 0.379378 -0.212357
C49   C     C_R   0.631833 0.396803 0.394728 0.053444
C50   C     C_R   0.633612 0.438999 0.498121 0.014511
C51   C     C_R   0.289355 0.221952 0.417944 -0.203387
C52   C     C_R   0.191397 0.206777 0.397777 -0.320862
C53   C     C_R   0.135629 0.298681 0.404612 0.607841
C54   C     C_R   0.182516 0.404789 0.430785 -0.198695
C55   C     C_R   0.280955 0.419852 0.450090 -0.176701
C56   C     C_R   0.034003 0.819911 0.218705 -0.138013
C57   C     C_R   0.333276 0.329199 0.446348 0.092433
C58   C     C_2   0.427157 0.570040 0.113853 0.463554
C59   C     C_2   0.523621 0.605773 0.055191 -0.369910
C60   C     C_2   0.076882 0.893506 0.853621 -0.218302
C61   C     C_2   0.176658 0.941022 0.842929 -0.168341
C62   C     C_R   0.806953 0.487423 0.303367 -0.155333
C63   C     C_R   0.967872 0.733093 0.891165 -0.167639
C64   C     C_R   0.030873 0.826042 0.916965 0.177348
H1    H     H_    0.140431 0.862590 0.003080 0.101051
H2    H     H_    0.852141 0.141388 0.823076 0.093708
H3    H     H_    0.185244 0.377565 0.628775 0.128972
H4    H     H_    0.102397 0.274313 0.135262 0.116998
H5    H     H_    0.903786 0.111772 0.953834 0.093232
H6    H     H_    0.390424 0.553896 0.803027 0.092732
H7    H     H_    0.219467 0.449532 0.170164 0.144939
H8    H     H_    0.001749 0.336961 0.640053 0.107470
H9    H     H_    0.492189 0.805593 0.265725 0.129784
H10   H     H_    0.354124 0.790019 0.434629 0.129410
H11   H     H_    0.146874 0.848461 0.513195 0.109405
H12   H     H_    0.645825 0.348958 0.179530 0.092496
H13   H     H_    0.215872 0.934652 0.249553 0.093572
H14   H     H_    0.421173 0.872362 0.170817 0.113359
H15   H     H_    0.099937 0.077395 0.568245 0.146999
H16   H     H_    0.778649 0.960964 0.458058 0.140005
H17   H     H_    0.617541 0.005244 0.645403 0.107446
H18   H     H_    0.427620 0.116935 0.761846 0.108685
H19   H     H_    0.414609 0.328292 0.834326 0.120234
H20   H     H_    0.592851 0.428213 0.788388 0.106180
H21   H     H_    0.782710 0.318362 0.667897 0.108197
H22   H     H_    0.916548 0.730202 0.642277 0.100563
H23   H     H_    0.752140 0.643943 0.919156 0.108377
H24   H     H_    0.930826 0.527568 0.608240 0.108335
H25   H     H_    0.801704 0.393271 0.541425 0.126366
H26   H     H_    0.641252 0.664408 0.543184 0.123548
H27   H     H_    0.770781 0.798502 0.610864 0.119170
H28   H     H_    0.542324 0.456624 0.659699 0.122752
H29   H     H_    0.539550 0.293378 0.300153 0.131695
H30   H     H_    0.329726 0.150680 0.413155 0.148685
H31   H     H_    0.159592 0.123601 0.378570 0.129396
H32   H     H_    0.141938 0.476590 0.436597 0.153160
H33   H     H_    0.914515 0.694374 0.382790 0.116926
H34   H     H_    0.315163 0.502904 0.470231 0.163085
H35   H     H_    0.524150 0.638187 0.000483 0.110931
H36   H     H_    0.032118 0.899127 0.809519 0.117679
H37   H     H_    0.211045 0.987788 0.793477 0.128554
H38   H     H_    0.604115 0.433482 0.089970 0.159074
H39   H     H_    0.066305 0.888590 0.195092 0.092870
H40   H     H_    0.854673 0.499153 0.349694 0.128606
H41   H     H_    0.942142 0.703247 0.825383 0.093284
H42   H     H_    0.366294 0.645677 0.988474 0.102073
N1    N     N_R   0.037320 0.720000 0.995830 -0.043795
N2    N     N_R   0.946240 0.290870 0.848020 -0.040776
N3    N     N_R   0.146160 0.501170 0.788610 -0.041515
N4    N     N_R   0.025750 0.332680 0.063570 -0.043027
N5    N     N_R   0.962680 0.280000 0.004170 -0.043750
N6    N     N_R   0.209230 0.553860 0.848010 -0.038486
N7    N     N_R   0.175100 0.482030 0.063570 -0.051027
N8    N     N_R   0.996810 0.351820 0.788610 -0.040600
N9    N     N_R   0.790770 0.446140 0.151990 -0.044935
N10   N     N_R   0.824900 0.517970 0.936430 -0.041641
N11   N     N_R   0.003190 0.648180 0.211390 -0.039270
N12   N     N_R   0.774330 0.457010 0.995830 -0.058777
N13   N     N_R   0.053760 0.709130 0.151980 -0.033947
N14   N     N_R   0.853840 0.498830 0.211390 -0.041324
N15   N     N_R   0.974250 0.667320 0.936430 -0.037765
N16   N     N_R   0.225670 0.542990 0.004170 -0.036141
Ni1   Ni    Ni4+2 0.130310 0.630310 0.000000 0.212190
Ni2   Ni    Ni4+2 0.869690 0.369690 0.000000 0.206680
Ni3   Ni    Ni4+2 0.985660 0.509480 0.863750 0.206998
Ni4   Ni    Ni4+2 0.014340 0.490520 0.136250 0.218946
O1    O     O_3   0.033597 0.293598 0.392462 -0.688150
C65   C     C_3   0.006803 0.181108 0.339920 0.136146
H43   H     H_    0.984720 0.136088 0.392304 0.124375
H44   H     H_    0.080824 0.133323 0.259569 0.103628
C66   C     C_3   0.900182 0.185948 0.321905 -0.247266
H45   H     H_    0.822842 0.220090 0.401507 0.193144
H46   H     H_    0.911659 0.243988 0.283141 0.209772
C67   C     C_3   0.878045 0.067623 0.250606 -1.013376
H47   H     H_    0.954064 0.029741 0.170307 0.267082
H48   H     H_    0.801888 0.074851 0.237237 0.271768
H49   H     H_    0.860179 0.010163 0.290994 0.271131
Cl1   Cl    Cl    0.409192 0.545130 0.225471 -0.758374

loop_
_geom_bond_atom_site_label_1
_geom_bond_atom_site_label_2
_ccdc_geom_bond_type
C45   N12   A    
C9    N5    A    
C65   C66   S    
C59   H35   S    
C41   C42   A    
C3    C23   A    
C35   C36   A    
N1    Ni1   S    
C66   C67   S    
C2    C12   A    
C65   H43   S    
C67   H49   S    
C20   C30   S    
C53   C54   A    
C26   C27   A    
C18   C24   A    
C28   C29   A    
C9    H5    S    
C18   C19   A    
N11   N13   A    
C38   C39   A    
C11   C14   A    
C11   H7    S    
C24   H9    S    
C44   C50   A    
C34   H33   S    
C52   H31   S    
C42   H27   S    
N2    N8    A    
C49   C50   A    
N4    N5    A    
C53   O1    S    
C6    C15   A    
C46   C47   A    
N7    N16   A    
C19   C20   A    
C1    H1    S    
O1    C65   S    
C10   N6    A    
C51   C57   A    
C63   H41   S    
N11   Ni4   S    
C54   H32   S    
C13   N8    A    
C44   H28   S    
C12   N9    A    
C58   Cl1   S    
C34   N11   A    
C41   H26   S    
C23   N10   A    
C18   H10   S    
C23   H23   S    
C21   C22   A    
C4    C56   A    
N2    Ni2   S    
C28   H16   S    
C63   N15   A    
C44   C46   A    
C62   H40   S    
C5    H42   S    
C14   C58   S    
C4    C34   A    
C48   H29   S    
C51   C52   A    
C22   H14   S    
N6    Ni1   S    
N3    N6    A    
C16   C46   S    
C39   C40   A    
N8    Ni3   S    
C15   C26   S    
C67   H48   S    
N7    Ni4   S    
C66   H46   S    
C58   C59   D    
C5    N16   A    
C3    C45   A    
C31   C37   A    
C38   H24   S    
C60   C61   D    
C61   H37   S    
N15   Ni3   S    
C29   C30   A    
C2    C49   S    
C8    N4    A    
C47   C57   S    
C47   C48   A    
C48   C49   A    
N12   Ni2   S    
C33   H19   S    
C5    C14   A    
C1    N1    A    
C10   H6    S    
N3    Ni3   S    
C40   C41   A    
N4    Ni4   S    
C8    H4    S    
N10   Ni3   S    
C55   C57   A    
C12   H12   S    
C56   N13   A    
C22   C24   A    
C42   C43   A    
N1    N15   A    
C66   H45   S    
C1    C64   A    
C52   C53   A    
C9    C17   A    
C25   C30   A    
C54   C55   A    
C36   C37   A    
N9    Ni2   S    
N5    Ni2   S    
C25   H15   S    
C43   H22   S    
C62   N14   A    
C31   C32   A    
C7    C16   A    
C4    C29   S    
C56   H39   S    
C60   H36   S    
C65   H44   S    
C35   H20   S    
C67   H47   S    
C13   H8    S    
N13   Ni1   S    
C36   H21   S    
C32   H18   S    
C8    C17   A    
C31   H17   S    
C60   C64   S    
C32   C33   A    
C13   C15   A    
C25   C26   A    
C38   C43   A    
C10   C16   A    
C27   C37   S    
C40   C50   S    
C55   H34   S    
C19   H11   S    
C33   C35   A    
N10   N12   A    
N14   Ni4   S    
C11   N7    A    
C45   H38   S    
C51   H30   S    
C7    H3    S    
C63   C64   A    
C7    N3    A    
C6    H2    S    
C20   C21   A    
N9    N14   A    
C21   H13   S    
C27   C28   A    
C6    N2    A    
N16   Ni1   S    
C39   H25   S    
C2    C62   A    
C3    C59   S    
