data_mof_unit_56745.cif
_audit_creation_date              2012-12-10T20:26:32-0500
_audit_creation_method            fapswitch 2.2
_symmetry_space_group_name_H-M    P1
_symmetry_Int_Tables_number       1
_space_group_crystal_system       triclinic
_cell_length_a                    10.728221
_cell_length_b                    10.678369
_cell_length_c                    9.977806
_cell_angle_alpha                 90.556022
_cell_angle_beta                  91.565373
_cell_angle_gamma                 90.109385
_cell_volume                      1142.57339601

loop_
_atom_site_label
_atom_site_type_symbol
_atom_type_description
_atom_site_fract_x
_atom_site_fract_y
_atom_site_fract_z
_atom_type_partial_charge
C1    C     C_R   0.502171 0.260678 0.499700 0.900149
C2    C     C_R   0.511530 0.128858 0.501383 -0.006926
C3    C     C_R   0.565975 0.063891 0.395433 -0.179216
C4    C     C_R   0.565999 0.934184 0.396121 -0.154617
C5    C     C_R   0.510924 0.871481 0.502369 -0.018022
C6    C     C_R   0.470763 0.937783 0.613593 -0.029683
C7    C     C_3   0.351084 0.932156 0.687470 0.244561
C8    C     C_3   0.354474 0.075320 0.690559 0.171394
C9    C     C_R   0.400272 0.454924 0.067119 0.040366
C10   C     C_R   0.600708 0.537390 0.077735 -0.151231
C11   C     C_R   0.601150 0.542530 0.935697 0.472096
C12   C     C_R   0.263071 0.495791 0.498823 1.009170
C13   C     C_R   0.400370 0.453969 0.925464 -0.039627
C14   C     C_3   0.268525 0.500120 0.917219 0.215842
C15   C     C_3   0.269629 0.502128 0.070112 0.179224
C16   C     C_R   0.501291 0.739455 0.500431 0.940110
C17   C     C_R   0.737141 0.501227 0.501169 0.919573
C18   C     C_2   0.929754 0.480987 0.390098 -0.141625
C19   C     C_2   0.869288 0.508282 0.502044 -0.267676
C20   C     C_2   0.063284 0.489611 0.387009 -0.109136
C21   C     C_2   0.131897 0.478841 0.498977 -0.226286
C22   C     C_R   0.472196 0.065259 0.613705 -0.036976
H1    H     H_    0.880902 0.455593 0.296857 0.188791
H2    H     H_    0.372269 0.114638 0.792895 0.098529
H3    H     H_    0.680323 0.568931 0.137547 0.193787
H4    H     H_    0.204064 0.428465 0.872662 0.109955
H5    H     H_    0.205642 0.431446 0.111523 0.071608
H6    H     H_    0.915607 0.540809 0.593707 0.202586
H7    H     H_    0.104335 0.505603 0.291297 0.205518
H8    H     H_    0.092392 0.454576 0.594290 0.177917
H9    H     H_    0.604032 0.112680 0.311022 0.170464
H10   H     H_    0.604302 0.883531 0.312157 0.181923
H11   H     H_    0.364416 0.890671 0.788468 0.153096
N1    N     N_R   0.499170 0.499140 0.142800 -0.103180
N2    N     N_R   0.499170 0.499180 0.857150 -0.132527
O1    O     O_R   0.500020 0.316790 0.614690 -0.622461
O2    O     O_R   0.500000 0.316760 0.385350 -0.628834
O3    O     O_R   0.319080 0.500020 0.614640 -0.580555
O4    O     O_R   0.319070 0.499980 0.385300 -0.594196
O5    O     O_R   0.500000 0.683240 0.614650 -0.549303
O6    O     O_R   0.499980 0.683210 0.385310 -0.593887
O7    O     O_R   0.680930 0.500020 0.614700 -0.539399
O8    O     O_R   0.680920 0.499980 0.385360 -0.651658
Zn1   Zn    Zn3+2 0.500010 0.500020 0.653130 1.080693
Zn2   Zn    Zn3+2 0.499990 0.499980 0.346870 1.014000
S1    S     S_3+6 0.738384 0.612174 0.873301 0.050861
O9    O     O_2   0.804179 0.686231 0.983119 -0.285710
O10   O     O_2   0.824770 0.509850 0.829811 -0.315625
O11   O     O_3   0.708474 0.711370 0.747143 -0.535713
H12   H     H_    0.791403 0.738647 0.717124 0.380550
Cl1   Cl    Cl    0.251372 0.650653 0.841375 -0.455363
Cl2   Cl    Cl    0.260001 0.655223 0.146482 -0.453873
Cl3   Cl    Cl    0.225951 0.862657 0.588916 -0.432578
Cl4   Cl    Cl    0.230217 0.153385 0.600980 -0.536878

loop_
_geom_bond_atom_site_label_1
_geom_bond_atom_site_label_2
_ccdc_geom_bond_type
C2    C22   A    
C8    C22   S    
C17   O8    A    
O3    Zn1   S    
C6    C7    S    
N2    Zn1   S    
C7    H11   S    
C21   H8    S    
C15   H5    S    
C14   Cl1   S    
C14   C15   S    
C1    O2    A    
O4    Zn2   S    
C12   O4    A    
C11   N2    A    
C2    C3    A    
C9    C15   S    
C7    C8    S    
C10   N1    A    
N1    Zn2   S    
C13   C14   S    
C14   H4    S    
C3    H9    S    
C19   H6    S    
O8    Zn2   S    
S1    O11   S    
C4    H10   S    
O7    Zn1   S    
C16   O5    A    
C5    C6    A    
C12   C21   S    
C10   H3    S    
C17   C19   S    
O11   H12   S    
C18   C20   S    
C20   H7    S    
C12   O3    A    
C9    N1    A    
S1    O10   D    
O1    Zn1   S    
C10   C11   A    
C7    Cl3   S    
O2    Zn2   S    
C3    C4    A    
C6    C22   A    
O5    Zn1   S    
C20   C21   D    
C1    C2    S    
S1    O9    D    
C8    Cl4   S    
C9    C13   A    
C17   O7    A    
C18   C19   D    
C5    C16   S    
O6    Zn2   S    
C8    H2    S    
C15   Cl2   S    
C16   O6    A    
C13   N2    A    
C18   H1    S    
C1    O1    A    
C4    C5    A    
C11   S1    S    
