data_mof_unit_19785.cif
_audit_creation_date              2012-12-11T21:01:47-0500
_audit_creation_method            fapswitch 2.2
_symmetry_space_group_name_H-M    P1
_symmetry_Int_Tables_number       1
_space_group_crystal_system       triclinic
_cell_length_a                    8.205452
_cell_length_b                    18.827293
_cell_length_c                    22.898638
_cell_angle_alpha                 99.947259
_cell_angle_beta                  89.786004
_cell_angle_gamma                 91.788392
_cell_volume                      3482.64808782

loop_
_atom_site_label
_atom_site_type_symbol
_atom_type_description
_atom_site_fract_x
_atom_site_fract_y
_atom_site_fract_z
_atom_type_partial_charge
Ba1   Ba    Ba6+2 0.157800 0.534120 0.474430 1.641163
Ba2   Ba    Ba6+2 0.652390 0.465870 0.525520 1.638248
C1    C     C_3   0.378392 0.716229 0.265750 -0.348618
C2    C     C_R   0.082808 0.909715 0.561317 0.021480
C3    C     C_R   0.233563 0.935411 0.587657 -0.084346
C4    C     C_3   0.925301 0.726904 0.358249 0.361777
C5    C     C_R   0.295452 0.003993 0.583572 -0.087538
C6    C     C_R   0.206440 0.049894 0.554922 0.031265
C7    C     C_R   0.055905 0.025639 0.528177 0.021937
C8    C     C_R   0.264876 0.120222 0.554175 -0.113883
C9    C     C_R   0.172040 0.169094 0.529338 -0.039461
C10   C     C_R   0.021969 0.144883 0.501081 -0.006701
C11   C     C_R   0.965212 0.072677 0.500264 -0.005476
C12   C     C_3   0.404571 0.693036 0.325149 0.322094
C13   C     C_R   0.223424 0.241887 0.532872 -0.003825
C14   C     C_R   0.123344 0.289963 0.511053 -0.301246
C15   C     C_R   0.981012 0.266508 0.479378 0.048670
C16   C     C_3   0.934863 0.802053 0.342282 -0.366178
C17   C     C_R   0.929275 0.192509 0.473445 -0.048627
C18   C     C_R   0.845685 0.929926 0.503040 -0.010575
C19   C     C_R   0.787256 0.858091 0.503322 -0.035695
C20   C     C_R   0.878175 0.811025 0.532565 -0.025257
C21   C     C_R   0.017255 0.840703 0.566687 0.155050
C22   C     C_R   0.786931 0.164621 0.442016 -0.039773
C23   C     C_3   0.486714 0.686974 0.625439 0.318314
C24   C     C_R   0.726684 0.094252 0.443712 0.032213
C25   C     C_R   0.815824 0.048019 0.472985 0.006539
C26   C     C_R   0.755608 0.976927 0.474610 0.022008
C27   C     C_R   0.576481 0.069722 0.417378 -0.079548
C28   C     C_3   0.821516 0.373889 0.343561 0.295961
C29   C     C_R   0.515293 0.000205 0.420002 -0.088708
C30   C     C_R   0.604520 0.953221 0.448038 0.031022
C31   C     C_R   0.636529 0.833934 0.474853 -0.035329
C32   C     C_R   0.545251 0.882826 0.449100 -0.104357
C33   C     C_R   0.582891 0.761252 0.472226 0.002168
C34   C     C_3   0.526187 0.765715 0.650839 -0.401419
C35   C     C_R   0.680812 0.713752 0.495481 -0.315037
C36   C     C_R   0.825360 0.736592 0.525868 0.055431
C37   C     C_R   0.645006 0.524906 0.335362 -0.304023
C38   C     C_R   0.386953 0.552922 0.945044 -0.026323
C39   C     C_R   0.336127 0.547713 0.885491 0.594130
C40   C     C_3   0.814543 0.353361 0.276362 -0.363740
C41   C     C_R   0.260090 0.422630 0.881497 0.574390
C42   C     C_R   0.307368 0.426457 0.941149 -0.016913
C43   C     C_R   0.371993 0.491879 0.972946 -0.054052
C44   C     C_R   0.453080 0.617801 0.977323 -0.075013
C45   C     C_3   0.866129 0.268684 0.645583 0.370689
C46   C     C_R   0.503490 0.621907 0.036034 -0.074145
C47   C     C_R   0.488549 0.561370 0.064500 -0.016844
C48   C     C_R   0.422323 0.496188 0.032865 -0.053508
C49   C     C_R   0.293051 0.365858 0.969523 -0.071633
C50   C     C_R   0.342528 0.370104 0.028322 -0.076199
C51   C     C_R   0.407756 0.435094 0.060688 -0.024759
C52   C     C_3   0.983459 0.616639 0.653130 0.301619
C53   C     C_R   0.459082 0.440141 0.120135 0.590618
C54   C     C_R   0.538097 0.564833 0.123916 0.577396
C55   C     C_2   0.094353 0.443075 0.768531 -0.087811
C56   C     C_3   0.834638 0.195221 0.663298 -0.372799
C57   C     C_3   0.075998 0.421365 0.702210 -0.048799
C58   C     C_1   0.306445 0.504670 0.692908 0.003840
C59   C     C_2   0.350059 0.505765 0.748861 -0.098433
C60   C     C_2   0.234351 0.477081 0.791040 0.196722
C61   C     C_R   0.714124 0.542810 0.235913 -0.098172
C62   C     C_R   0.753486 0.550299 0.296124 -0.023277
C63   C     C_R   0.501342 0.487827 0.314729 0.033157
C64   C     C_3   0.998028 0.632516 0.720367 -0.362339
C65   C     C_R   0.458058 0.482423 0.254684 -0.095452
C66   C     C_R   0.563422 0.510574 0.214422 0.196403
C67   C     C_3   0.401743 0.308188 0.676205 0.326705
C68   C     C_2   0.180508 0.466108 0.667269 -0.281765
C69   C     C_3   0.318400 0.313850 0.391973 0.315720
C70   C     C_3   0.311665 0.232429 0.372195 -0.390371
C71   C     C_3   0.417241 0.283972 0.736293 -0.079949
C72   C     C_R   0.995591 0.954636 0.530146 -0.010513
H1    H     H_    0.337292 0.640856 0.324790 0.092409
H2    H     H_    0.194658 0.332313 0.404160 0.005685
H3    H     H_    0.400901 0.327179 0.430868 0.067786
H4    H     H_    0.246835 0.724698 0.258912 0.153364
H5    H     H_    0.222121 0.217391 0.335559 0.129985
H6    H     H_    0.274713 0.205055 0.409488 0.057020
H7    H     H_    0.433784 0.213758 0.356456 0.118984
H8    H     H_    0.536965 0.685905 0.330942 -0.040202
H9    H     H_    0.419426 0.673398 0.229904 0.137910
H10   H     H_    0.601857 0.661995 0.607998 0.018441
H11   H     H_    0.398280 0.684344 0.588505 0.047521
H12   H     H_    0.723239 0.308705 0.263361 0.140077
H13   H     H_    0.626145 0.769438 0.683903 0.138960
H14   H     H_    0.565595 0.794969 0.614805 0.053004
H15   H     H_    0.417177 0.791710 0.672838 0.122774
H16   H     H_    0.448874 0.767351 0.263884 0.119042
H17   H     H_    0.886516 0.841788 0.379210 0.073913
H18   H     H_    0.821226 0.266540 0.599578 0.080296
H19   H     H_    0.000328 0.278887 0.646654 -0.080707
H20   H     H_    0.702908 0.180306 0.660469 0.150256
H21   H     H_    0.901670 0.153624 0.633074 0.071896
H22   H     H_    0.877474 0.196234 0.709331 0.117822
H23   H     H_    0.779587 0.400018 0.256251 0.070055
H24   H     H_    0.271269 0.315279 0.667114 -0.066300
H25   H     H_    0.469575 0.360626 0.678334 0.073949
H26   H     H_    0.403382 0.331375 0.771897 0.115741
H27   H     H_    0.998994 0.727564 0.398986 0.088416
H28   H     H_    0.540665 0.262928 0.741229 0.144514
H29   H     H_    0.306624 0.902971 0.611379 0.061058
H30   H     H_    0.411874 0.021747 0.604152 0.071273
H31   H     H_    0.162481 0.346044 0.515459 0.068592
H32   H     H_    0.381526 0.136511 0.574666 0.110466
H33   H     H_    0.718274 0.197621 0.417421 0.099757
H34   H     H_    0.935927 0.335772 0.258957 0.130349
H35   H     H_    0.505268 0.104535 0.395181 0.064977
H36   H     H_    0.398482 0.982948 0.399573 0.073364
H37   H     H_    0.428236 0.866633 0.428844 0.113468
H38   H     H_    0.795751 0.713622 0.367335 -0.066560
H39   H     H_    0.640639 0.657818 0.491484 0.072446
H40   H     H_    0.329125 0.322174 0.048406 0.125345
H41   H     H_    0.243730 0.314680 0.946269 0.128693
H42   H     H_    0.553994 0.672921 0.059155 0.123770
H43   H     H_    0.801574 0.561299 0.205905 0.120288
H44   H     H_    0.466978 0.665666 0.957168 0.124677
H45   H     H_    0.100410 0.597461 0.633566 0.005346
H46   H     H_    0.470017 0.526787 0.764145 0.121766
H47   H     H_    0.004978 0.422943 0.797205 0.117163
H48   H     H_    0.343567 0.455711 0.239386 0.125888
H49   H     H_    0.677735 0.529796 0.381638 0.083615
H50   H     H_    0.063608 0.817488 0.334032 0.141685
H51   H     H_    0.169778 0.454463 0.619332 0.077536
H52   H     H_    0.861444 0.803235 0.301796 0.123703
H53   H     H_    0.698914 0.388856 0.360343 0.013455
H54   H     H_    0.908660 0.420372 0.355428 0.066529
H55   H     H_    0.301028 0.185608 0.707685 0.190220
H56   H     H_    0.888306 0.573789 0.640923 0.087818
H57   H     H_    0.178311 0.250125 0.742594 0.199336
H58   H     H_    0.077576 0.838275 0.652220 0.159841
H59   H     H_    0.204173 0.792619 0.600830 0.184852
H60   H     H_    0.102726 0.670560 0.733762 0.144343
H61   H     H_    0.016771 0.582078 0.737825 0.071368
H62   H     H_    0.884436 0.656802 0.740042 0.130835
N1    N     N_R   0.275511 0.482765 0.853820 -0.426022
N2    N     N_R   0.519442 0.505120 0.151971 -0.423415
N3    N     N_3   0.293940 0.228257 0.743542 -0.469698
N4    N     N_3   0.082837 0.804436 0.610972 -0.454342
O1    O     O_2   0.110690 0.676100 0.539200 -0.448046
O2    O     O_2   0.743851 0.462080 0.706798 -0.498988
O3    O     O_3   0.784061 0.321958 0.684683 -0.594153
O4    O     O_3   0.863220 0.586720 0.534720 -0.494574
O5    O     O_3   0.450900 0.461390 0.429220 -0.490274
O6    O     O_2   0.599830 0.538970 0.641850 -0.460778
O7    O     O_3   0.418952 0.652813 0.670233 -0.626141
O8    O     O_2   0.561046 0.243516 0.522756 -0.491229
O9    O     O_3   0.468980 0.256324 0.632240 -0.611047
O10   O     O_2   0.344528 0.601289 0.862025 -0.592677
O11   O     O_2   0.207073 0.365209 0.854012 -0.608015
O12   O     O_3   0.375477 0.345693 0.344771 -0.625716
O13   O     O_2   0.452389 0.386227 0.143215 -0.597770
O14   O     O_2   0.597529 0.621385 0.150658 -0.616480
O15   O     O_3   0.368310 0.629070 0.432760 -0.483812
O16   O     O_2   0.244496 0.756276 0.477492 -0.493307
O17   O     O_3   0.942267 0.680025 0.633372 -0.614790
O18   O     O_3   0.344908 0.746342 0.369791 -0.607996
O19   O     O_2   0.210480 0.460990 0.358130 -0.464581
O20   O     O_3   0.959520 0.592090 0.401630 -0.490740
O21   O     O_2   0.093359 0.545826 0.296150 -0.495448
O22   O     O_3   0.987622 0.677388 0.311029 -0.596421
O23   O     O_2   0.699610 0.323860 0.460780 -0.468435
O24   O     O_3   0.947090 0.413280 0.465240 -0.490859
O25   O     O_3   0.442000 0.370930 0.567190 -0.479696
O26   O     O_3   0.871740 0.314266 0.366758 -0.638548
O27   O     O_3   0.359410 0.538600 0.570730 -0.478416
O28   O     O_3   0.850780 0.407910 0.598320 -0.479179
P1    P     P_3+3 0.935930 0.665430 0.555670 1.007866
P2    P     P_3+3 0.382700 0.439650 0.365620 0.995071
P3    P     P_3+3 0.949664 0.590040 0.325269 0.951728
P4    P     P_3+3 0.874370 0.334570 0.444280 0.975130
P5    P     P_3+3 0.862300 0.406278 0.674132 0.946302
P6    P     P_3+3 0.386577 0.723177 0.438777 0.931221
P7    P     P_3+3 0.415805 0.559391 0.645756 0.959046
P8    P     P_3+3 0.423403 0.277773 0.563048 0.937054

loop_
_geom_bond_atom_site_label_1
_geom_bond_atom_site_label_2
_ccdc_geom_bond_type
C34   H15   S    
C71   H26   S    
O12   P2    S    
C3    H29   S    
O26   P4    S    
O19   P2    D    
Ba2   O4    S    
C45   H18   S    
C66   N2    S    
C56   H21   S    
C15   P4    S    
C5    C6    A    
C34   H14   S    
O25   P8    S    
C38   C44   A    
C37   C62   A    
O16   P6    D    
C24   C25   A    
O8    P8    D    
C53   N2    Am   
C13   P8    S    
C12   O18   S    
C1    H16   S    
C16   H17   S    
Ba1   O19   S    
C27   H35   S    
C33   C35   A    
C22   C24   A    
C70   H5    S    
C69   H2    S    
C61   H43   S    
O7    P7    S    
C64   H61   S    
C55   C57   S    
C19   C31   A    
Ba1   O27   S    
C13   C14   A    
C20   C36   A    
C45   O3    S    
Ba1   P2    S    
C37   H49   S    
C44   H44   S    
Ba1   Ba2   S    
C4    H27   S    
Ba1   O15   S    
C7    C11   A    
C56   H22   S    
O17   P1    S    
C64   H60   S    
C9    C13   A    
O18   P6    S    
O22   P3    S    
C4    O22   S    
Ba1   O24   S    
C14   C15   A    
C63   C65   A    
C23   H10   S    
C67   C71   S    
C40   H12   S    
C2    C72   A    
C70   H7    S    
C29   H36   S    
C46   H42   S    
C67   H24   S    
C52   H45   S    
C59   H46   S    
C32   H37   S    
C37   C63   A    
O28   P5    S    
C4    H38   S    
C52   H56   S    
C26   C30   A    
C23   H11   S    
O2    P5    D    
C44   C46   A    
C51   C53   A    
C34   H13   S    
C38   C43   A    
C4    C16   S    
C28   H54   S    
C48   C51   A    
C49   C50   A    
C21   N4    S    
C55   C60   D    
H57   N3    S    
C28   O26   S    
C54   O14   D    
C40   H23   S    
Ba2   O24   S    
C3    C5    A    
C2    C21   A    
C6    C7    A    
C39   O10   D    
C18   C26   A    
O4    P1    S    
C49   H41   S    
C65   C66   A    
C58   C59   D    
Ba2   O5    S    
C30   C32   A    
C28   H53   S    
C41   C42   A    
C35   C36   A    
C54   N2    Am   
C69   O12   S    
H55   N3    S    
C58   C68   D    
C27   C29   A    
O6    P7    D    
O1    P1    D    
C31   C32   A    
C45   H19   S    
C18   C72   A    
C23   O7    S    
C22   H33   S    
C10   C11   A    
O23   P4    D    
Ba2   O25   S    
C1    C12   S    
C14   H31   S    
H59   N4    S    
C64   H62   S    
C67   H25   S    
C42   C49   A    
C71   H28   S    
C5    H30   S    
C1    H9    S    
C8    H32   S    
H58   N4    S    
Ba1   O5    S    
C12   H8    S    
C15   C17   A    
C65   H48   S    
Ba2   O28   S    
C69   H3    S    
C41   O11   D    
C50   C51   A    
O15   P6    S    
C36   P1    S    
O27   P7    S    
C53   O13   D    
O24   P4    S    
O5    P2    S    
C46   C47   A    
C57   C68   S    
C33   P6    S    
C39   N1    Am   
C29   C30   A    
C28   C40   S    
C42   C43   A    
C2    C3    A    
C57   P5    S    
Ba2   O23   S    
C9    C10   A    
C52   C64   S    
C50   H40   S    
Ba2   O6    S    
C47   C54   A    
C71   N3    S    
C61   C66   A    
C63   P2    S    
O9    P8    S    
C67   O9    S    
C12   H1    S    
C62   P3    S    
C17   C22   A    
C56   H20   S    
C69   C70   S    
C70   H6    S    
Ba1   O4    S    
C16   H52   S    
C45   C56   S    
Ba1   O20   S    
C43   C48   A    
C10   C17   A    
Ba1   P1    S    
C31   C33   A    
O20   P3    S    
C41   N1    Am   
C60   N1    S    
C68   H51   S    
C59   C60   S    
Ba1   O1    S    
C8    C9    A    
C23   C34   S    
C55   H47   S    
C61   C62   A    
O21   P3    D    
C35   H39   S    
C18   C19   A    
C24   C27   A    
C6    C8    A    
C47   C48   A    
C7    C72   A    
Ba2   P4    S    
C25   C26   A    
C58   P7    S    
O3    P5    S    
C20   C21   A    
C11   C25   A    
C38   C39   A    
C19   C20   A    
C1    H4    S    
C40   H34   S    
Ba2   O27   S    
C16   H50   S    
C52   O17   S    
