data_mof_unit_22413.cif
_audit_creation_date              2013-03-05T15:52:43-0500
_audit_creation_method            fapswitch 2.2
_symmetry_space_group_name_H-M    P1
_symmetry_Int_Tables_number       1
_space_group_crystal_system       triclinic
_cell_length_a                    9.936675
_cell_length_b                    10.620613
_cell_length_c                    13.078388
_cell_angle_alpha                 92.29318
_cell_angle_beta                  69.67112
_cell_angle_gamma                 90.39007
_cell_volume                      1293.16778999

loop_
_atom_site_label
_atom_site_type_symbol
_atom_site_description
_atom_site_fract_x
_atom_site_fract_y
_atom_site_fract_z
_atom_type_partial_charge
O1    O     O_R   0.385310 0.683220 0.500000 -0.651606
O2    O     O_R   0.614640 0.683250 0.500010 -0.585974
C1    C     C_R   0.507777 0.737168 0.482081 0.916234
O3    O     O_R   0.328400 0.499950 0.653610 -0.557895
O4    O     O_R   0.557730 0.499970 0.653620 -0.631258
C2    C     C_R   0.419110 0.489897 0.704111 0.874570
Zn1   Zn    Zn3+2 0.346880 0.499980 0.499990 0.984537
Zn2   Zn    Zn3+2 0.653120 0.500020 0.500010 0.959864
O5    O     O_R   0.385360 0.316750 0.499990 -0.559964
O6    O     O_R   0.614690 0.316780 0.500000 -0.624307
O7    O     O_R   0.442270 0.500030 0.346380 -0.635461
O8    O     O_R   0.671600 0.500050 0.346390 -0.624632
C3    C     C_R   0.497269 0.259066 0.504371 0.902045
C4    C     C_R   0.580360 0.498891 0.295615 0.827885
C5    C     C_R   0.776899 0.366632 0.014033 -0.067786
H1    H     H_    0.829064 0.384518 0.160019 0.142474
H2    H     H_    0.784873 0.282938 0.816884 0.227176
H3    H     H_    0.872119 0.310953 0.970668 0.162597
C6    C     C_R   0.630501 0.481153 0.177751 -0.058498
C7    C     C_R   0.220460 0.499061 0.889561 0.298234
C8    C     C_R   0.189573 0.521914 0.001353 -0.229551
C9    C     C_R   0.296457 0.513895 0.046443 -0.263276
C10   C     C_R   0.435966 0.471448 0.982305 0.111898
C11   C     C_R   0.463586 0.434700 0.872326 0.026841
C12   C     C_R   0.547143 0.459094 0.025353 0.086232
C13   C     C_R   0.673131 0.389084 0.966285 0.135821
C14   C     C_R   0.691096 0.339344 0.862203 -0.138937
C15   C     C_R   0.588227 0.362451 0.815368 -0.159180
C16   C     C_R   0.535031 0.513244 0.126763 -0.239287
C17   C     C_R   0.754289 0.410642 0.120695 -0.204870
C18   C     C_R   0.364475 0.469179 0.822490 -0.240300
H4    H     H_    0.447419 0.576394 0.170555 0.139379
H5    H     H_    0.263741 0.532238 0.133453 0.140168
H6    H     H_    0.081439 0.545760 0.054617 0.178569
H7    H     H_    0.604580 0.319014 0.735641 0.196655
C19   C     C_R   0.284402 0.878972 0.427486 -0.321541
H8    H     H_    0.315284 0.796370 0.373651 0.175637
C20   C     C_R   0.145398 0.931783 0.459170 0.415007
C21   C     C_R   0.115571 0.041247 0.529574 0.200823
C22   C     C_R   0.227835 0.099250 0.557827 0.422811
C23   C     C_R   0.371377 0.054460 0.507388 -0.105820
C24   C     C_R   0.390015 0.933065 0.462584 -0.067017
C25   C     C_R   0.516053 0.868327 0.453761 -0.217791
C26   C     C_R   0.642377 0.935512 0.435891 0.592825
H9    H     H_    0.731558 0.115866 0.442638 0.207698
C27   C     C_R   0.632715 0.063434 0.459861 -0.208715
C28   C     C_R   0.497581 0.123253 0.499616 -0.186845
H10   H     H_    0.929660 0.355995 0.378275 0.130453
C29   C     C_R   0.799624 0.672208 0.638727 -0.260644
H11   H     H_    0.691160 0.675324 0.643181 0.251283
C30   C     C_R   0.840099 0.763830 0.702437 0.288130
C31   C     C_R   0.981742 0.763679 0.701573 0.444644
C32   C     C_R   0.077754 0.669939 0.639896 -0.237515
H12   H     H_    0.182186 0.670955 0.645274 0.222956
C33   C     C_R   0.040795 0.582155 0.570652 0.136763
C34   C     C_R   0.897190 0.583254 0.569741 0.131484
N1    N     N_R   0.856860 0.501200 0.500990 -0.102517
C35   C     C_R   0.958662 0.420854 0.432967 -0.073966
H13   H     H_    0.179718 0.356194 0.378119 0.131702
C36   C     C_R   0.101644 0.420973 0.432907 -0.051499
N2    N     N_R   0.142450 0.501280 0.501020 -0.094902
O9    O     O_3   0.033713 0.877376 0.430861 -0.522167
C37   C     C_3   0.076313 0.774991 0.353589 -0.223000
H14   H     H_    0.980406 0.731756 0.342949 0.218736
H15   H     H_    0.125279 0.697296 0.382570 0.123889
H16   H     H_    0.148554 0.807049 0.273276 0.136962
N3    N     N_R   0.972028 0.093393 0.573295 0.240099
O10   O     O_R   0.860872 0.023933 0.581265 -0.313200
O11   O     O_R   0.951007 0.211603 0.604873 -0.367041
O12   O     O_3   0.192045 0.190012 0.642432 -0.514744
C38   C     C_3   0.236012 0.150835 0.728399 -0.102506
H17   H     H_    0.249359 0.046881 0.729931 0.143087
H18   H     H_    0.153280 0.180422 0.807391 0.188865
H19   H     H_    0.337947 0.197715 0.723881 0.123719
N4    N     N_R   0.736333 0.856962 0.766519 0.252440
O13   O     O_R   0.612827 0.868052 0.753648 -0.406946
O14   O     O_R   0.762404 0.929984 0.839630 -0.350370
O15   O     O_3   0.032948 0.867253 0.744162 -0.600103
C39   C     C_3   0.059839 0.834532 0.838555 -0.188220
H20   H     H_    0.960811 0.800209 0.901574 0.217003
H21   H     H_    0.092923 0.920378 0.874467 0.156725
H22   H     H_    0.149407 0.765264 0.819064 0.161210
N5    N     N_R   0.103452 0.500222 0.848395 0.177419
O16   O     O_R   0.988956 0.566792 0.900187 -0.478132
O17   O     O_R   0.093392 0.411325 0.780284 -0.353446
O18   O     O_3   0.774956 0.880632 0.383083 -0.546478
C40   C     C_3   0.792524 0.863026 0.271252 -0.327753
H23   H     H_    0.765587 0.949724 0.236718 0.154402
H24   H     H_    0.727078 0.782476 0.258674 0.153288
H25   H     H_    0.906477 0.840873 0.223668 0.184425

loop_
_geom_bond_atom_site_label_1
_geom_bond_atom_site_label_2
_geom_bond_distance
_ccdc_geom_bond_type
C5    H3    1.083754 S    
C33   C34   1.431274 A    
C37   H15   1.104500 S    
C23   C24   1.381056 A    
C19   C24   1.395510 A    
C40   H23   1.115394 S    
C32   H12   1.064141 S    
Zn1   O7    1.900367 S    
C1    C25   1.450156 S    
C13   C14   1.392405 A    
C22   O12   1.387765 S    
C19   H8    1.078720 S    
C30   N4    1.446034 S    
C16   H4    1.080052 S    
O4    C2    1.310129 A    
O7    C4    1.300140 A    
C31   O15   1.385436 S    
C35   C36   1.420481 A    
C34   N1    1.382543 A    
O5    C3    1.292871 A    
Zn1   N2    2.026852 S    
C38   H19   1.109622 S    
C15   H7    1.082239 S    
C29   C30   1.401975 A    
C10   C11   1.406678 A    
O12   C38   1.417479 S    
C2    C18   1.477071 S    
C37   H16   1.111707 S    
H13   C36   1.081752 S    
C8    C9    1.386870 A    
O3    Zn1   1.952927 S    
C26   O18   1.377791 S    
C26   C27   1.378440 A    
C32   C33   1.408215 A    
C12   C16   1.390408 A    
N3    O10   1.300037 A    
H2    C14   1.083476 S    
O3    C2    1.296406 A    
C21   C22   1.421007 A    
C39   H21   1.108543 S    
O18   C40   1.416226 S    
C5    C13   1.404508 A    
C8    H6    1.083263 S    
C12   C13   1.418329 A    
H9    C27   1.083680 S    
C30   C31   1.403592 A    
C36   N2    1.367798 A    
O1    C1    1.291199 A    
N4    O13   1.302071 A    
O9    C37   1.415621 S    
Zn2   N1    2.028935 S    
O4    Zn2   1.900367 S    
N5    O16   1.300088 A    
Zn2   O8    1.952928 S    
C23   C28   1.421862 A    
N4    O14   1.301112 A    
C22   C23   1.423455 A    
N5    O17   1.299296 A    
O8    C4    1.296371 A    
C40   H24   1.112355 S    
C25   C26   1.391664 A    
C7    N5    1.441356 S    
C24   C25   1.399822 A    
C6    C16   1.386696 A    
C31   C32   1.402137 A    
C5    C17   1.395116 A    
C3    C28   1.441257 S    
Zn1   O5    1.985777 S    
C9    H5    1.079186 S    
C27   C28   1.406091 A    
O1    Zn1   1.980682 S    
C21   N3    1.444598 S    
C4    C6    1.450615 S    
O2    Zn2   1.985776 S    
C11   C15   1.415552 A    
C37   H14   1.104304 S    
O6    C3    1.298867 A    
C39   H22   1.111118 S    
H10   C35   1.081800 S    
C29   C34   1.408172 A    
C19   C20   1.410107 A    
O2    C1    1.304785 A    
C11   C18   1.413784 A    
C38   H17   1.114692 S    
O15   C39   1.407466 S    
N1    C35   1.366968 A    
C20   C21   1.420093 A    
C33   N2    1.377491 A    
C10   C12   1.412316 A    
C39   H20   1.111795 S    
C7    C8    1.396982 A    
Zn2   O6    1.980683 S    
C29   H11   1.059619 S    
C40   H25   1.107733 S    
C38   H18   1.108723 S    
C14   C15   1.389509 A    
C9    C10   1.413811 A    
N3    O11   1.300968 A    
C6    C17   1.400247 A    
H1    C17   1.083191 S    
C20   O9    1.400789 S    
C7    C18   1.424685 A    
