data_mof_unit_65904.cif
_audit_creation_date              2013-03-05T16:04:24-0500
_audit_creation_method            fapswitch 2.2
_symmetry_space_group_name_H-M    P1
_symmetry_Int_Tables_number       1
_space_group_crystal_system       triclinic
_cell_length_a                    21.47461
_cell_length_b                    21.474546
_cell_length_c                    47.158078
_cell_angle_alpha                 90.002861
_cell_angle_beta                  90.00184
_cell_angle_gamma                 90.002734
_cell_volume                      21747.3013053

loop_
_atom_site_label
_atom_site_type_symbol
_atom_site_description
_atom_site_fract_x
_atom_site_fract_y
_atom_site_fract_z
_atom_type_partial_charge
O1    O     O_R   0.999860 0.092630 0.023790 -0.623715
O2    O     O_R   0.907370 0.999860 0.023790 -0.623735
O3    O     O_R   0.000140 0.907370 0.023790 -0.623709
O4    O     O_R   0.092630 0.000140 0.023790 -0.623672
O5    O     O_R   0.499860 0.592630 0.523790 -0.623725
O6    O     O_R   0.407370 0.499860 0.523790 -0.623712
O7    O     O_R   0.500140 0.407370 0.523790 -0.623682
O8    O     O_R   0.592630 0.500140 0.523790 -0.623727
O9    O     O_R   0.999880 0.092690 0.976450 -0.633268
O10   O     O_R   0.907310 0.999880 0.976450 -0.633312
O11   O     O_R   0.000120 0.907310 0.976450 -0.633278
O12   O     O_R   0.092690 0.000120 0.976450 -0.633231
O13   O     O_R   0.499880 0.592690 0.476450 -0.633309
O14   O     O_R   0.407310 0.499880 0.476450 -0.633266
O15   O     O_R   0.500120 0.407310 0.476450 -0.633235
O16   O     O_R   0.592690 0.500120 0.476450 -0.633269
C1    C     C_R   0.998786 0.121485 0.000092 0.854641
C2    C     C_R   0.878512 0.998891 0.000090 0.854526
C3    C     C_R   0.001139 0.878513 0.000090 0.854626
C4    C     C_R   0.121488 0.001107 0.000090 0.854733
C5    C     C_R   0.498873 0.621487 0.500091 0.854531
C6    C     C_R   0.378516 0.498766 0.500091 0.854638
C7    C     C_R   0.501137 0.378513 0.500090 0.854713
C8    C     C_R   0.621483 0.501299 0.500092 0.854605
C9    C     C_R   0.500000 0.999997 0.234946 -0.137042
C10   C     C_R   0.000043 0.500049 0.234944 -0.137023
C11   C     C_R   0.999911 0.500074 0.734945 -0.137011
C12   C     C_R   0.500001 0.999987 0.734946 -0.137024
C13   C     C_R   0.500000 0.000003 0.086464 -0.157611
C14   C     C_R   0.000008 0.500004 0.086468 -0.157965
C15   C     C_R   0.999988 0.500012 0.586465 -0.157811
C16   C     C_R   0.500003 0.999996 0.586463 -0.157568
Zn1   Zn    Zn3+2 0.000000 0.000000 0.031720 0.960668
Zn2   Zn    Zn3+2 0.500000 0.500000 0.531720 0.960706
Zn3   Zn    Zn3+2 1.000000 1.000000 0.968510 0.925528
Zn4   Zn    Zn3+2 0.500000 0.500000 0.468510 0.925573
N1    N     N_R   0.499996 0.000003 0.176235 -0.325063
N2    N     N_R   0.000034 0.500023 0.176237 -0.325076
N3    N     N_R   0.999950 0.500054 0.676235 -0.325074
N4    N     N_R   0.500004 0.999990 0.676234 -0.325063
C17   C     C_R   0.070970 0.588016 0.764947 -0.264105
C18   C     C_R   0.411661 0.070544 0.764941 -0.264109
C19   C     C_R   0.928817 0.412150 0.764933 -0.264108
C20   C     C_R   0.588336 0.929425 0.764941 -0.264114
C21   C     C_R   0.570722 0.088213 0.264944 -0.264121
C22   C     C_R   0.912716 0.571874 0.264934 -0.264118
C23   C     C_R   0.429285 0.911775 0.264937 -0.264127
C24   C     C_R   0.087377 0.428251 0.264943 -0.264116
H1    H     H_    0.099242 0.621627 0.776254 0.198371
H2    H     H_    0.377889 0.098622 0.776246 0.198372
H3    H     H_    0.900532 0.378544 0.776235 0.198351
H4    H     H_    0.622107 0.901346 0.776245 0.198366
H5    H     H_    0.598863 0.121936 0.276250 0.198385
H6    H     H_    0.879351 0.600440 0.276238 0.198362
H7    H     H_    0.401146 0.878050 0.276240 0.198382
H8    H     H_    0.120744 0.399694 0.276249 0.198376
C25   C     C_R   0.536531 0.044038 0.220040 -0.111977
C26   C     C_R   0.956458 0.537121 0.220035 -0.111879
C27   C     C_R   0.463467 0.955959 0.220037 -0.111971
C28   C     C_R   0.043624 0.462966 0.220040 -0.111881
C29   C     C_R   0.036629 0.543964 0.720042 -0.111925
C30   C     C_R   0.455900 0.036439 0.720039 -0.111960
C31   C     C_R   0.963209 0.456177 0.720034 -0.111922
C32   C     C_R   0.544103 0.963535 0.720038 -0.111959
C33   C     C_3   0.213779 0.055178 0.018889 -0.413469
C34   C     C_3   0.945317 0.213827 0.019236 -0.412819
C35   C     C_3   0.786223 0.944831 0.018891 -0.413443
C36   C     C_3   0.055046 0.786216 0.018982 -0.413308
C37   C     C_3   0.713875 0.554265 0.519522 -0.412205
C38   C     C_3   0.444891 0.713782 0.518939 -0.413317
C39   C     C_3   0.286161 0.445411 0.519298 -0.412674
C40   C     C_3   0.555060 0.286217 0.518975 -0.413257
H9    H     H_    0.195763 0.050830 0.040934 0.207873
H10   H     H_    0.950327 0.195813 0.041251 0.208138
H11   H     H_    0.804244 0.949188 0.040935 0.207876
H12   H     H_    0.050506 0.804222 0.041020 0.207945
H13   H     H_    0.695880 0.548699 0.541514 0.208379
H14   H     H_    0.449337 0.695768 0.540980 0.207925
H15   H     H_    0.304168 0.450550 0.541309 0.208207
H16   H     H_    0.550544 0.304233 0.541013 0.207956
H17   H     H_    0.197155 0.100562 0.010334 0.158639
H18   H     H_    0.899656 0.197245 0.010971 0.158661
H19   H     H_    0.802842 0.899442 0.010339 0.158618
H20   H     H_    0.100505 0.802844 0.010511 0.158620
H21   H     H_    0.697321 0.600151 0.511508 0.158717
H22   H     H_    0.399465 0.697159 0.510426 0.158642
H23   H     H_    0.302737 0.399697 0.511091 0.158678
H24   H     H_    0.600516 0.302835 0.510494 0.158665
C41   C     C_3   0.285264 0.054281 0.019572 -0.484572
C42   C     C_3   0.946307 0.285314 0.019919 -0.485320
C43   C     C_3   0.714738 0.945733 0.019576 -0.484586
C44   C     C_3   0.054137 0.714730 0.019655 -0.484756
C45   C     C_3   0.785363 0.553214 0.520193 -0.485905
C46   C     C_3   0.445801 0.785268 0.519621 -0.484713
C47   C     C_3   0.214674 0.446410 0.519974 -0.485424
C48   C     C_3   0.554142 0.214731 0.519656 -0.484806
H25   H     H_    0.302847 0.099905 0.011739 0.195936
H26   H     H_    0.900446 0.302949 0.012403 0.195972
H27   H     H_    0.697150 0.900103 0.011749 0.195949
H28   H     H_    0.099820 0.697146 0.011896 0.195953
H29   H     H_    0.803033 0.599258 0.512927 0.195995
H30   H     H_    0.400142 0.802855 0.511833 0.195934
H31   H     H_    0.197032 0.400510 0.512508 0.195982
H32   H     H_    0.599825 0.197139 0.511900 0.195927
H33   H     H_    0.301678 0.048729 0.041825 0.195277
H34   H     H_    0.952619 0.301715 0.042133 0.195167
H35   H     H_    0.698330 0.951305 0.041829 0.195276
H36   H     H_    0.048403 0.698308 0.041897 0.195252
H37   H     H_    0.801768 0.546313 0.542370 0.195056
H38   H     H_    0.451465 0.801683 0.541869 0.195267
H39   H     H_    0.198269 0.452844 0.542180 0.195132
H40   H     H_    0.548405 0.198322 0.541900 0.195252
H41   H     H_    0.194691 0.931566 0.034343 0.189837
H42   H     H_    0.069377 0.194670 0.033892 0.189380
H43   H     H_    0.805311 0.068450 0.034337 0.189826
H44   H     H_    0.931302 0.805329 0.034214 0.189691
H45   H     H_    0.694623 0.429834 0.533507 0.188948
H46   H     H_    0.568569 0.694695 0.534279 0.189758
H47   H     H_    0.305356 0.569561 0.533803 0.189272
H48   H     H_    0.431329 0.305319 0.534228 0.189713
H49   H     H_    0.300643 0.931016 0.035213 0.165469
H50   H     H_    0.070100 0.300624 0.034723 0.165755
H51   H     H_    0.699360 0.069012 0.035203 0.165472
H52   H     H_    0.930750 0.699377 0.035089 0.165543
H53   H     H_    0.800576 0.429026 0.534327 0.165978
H54   H     H_    0.569145 0.800646 0.535143 0.165507
H55   H     H_    0.199404 0.570287 0.534638 0.165799
H56   H     H_    0.430745 0.199368 0.535092 0.165533
C49   C     C_3   0.212789 0.938478 0.012444 -0.415872
C50   C     C_3   0.061805 0.212751 0.012034 -0.416431
C51   C     C_3   0.787214 0.061527 0.012437 -0.415942
C52   C     C_3   0.938406 0.787220 0.012328 -0.415959
C53   C     C_3   0.712708 0.437959 0.511691 -0.416919
C54   C     C_3   0.561559 0.712788 0.512385 -0.416127
C55   C     C_3   0.287266 0.561860 0.511955 -0.416519
C56   C     C_3   0.438410 0.287219 0.512339 -0.416136
C57   C     C_3   0.215818 0.009178 0.969649 -0.403160
C58   C     C_3   0.989754 0.215797 0.969704 -0.403117
C59   C     C_3   0.784180 0.990802 0.969649 -0.403176
C60   C     C_3   0.009478 0.784186 0.969662 -0.403149
C61   C     C_3   0.715782 0.511120 0.469751 -0.403121
C62   C     C_3   0.490657 0.715812 0.469657 -0.403148
C63   C     C_3   0.284204 0.489553 0.469712 -0.403117
C64   C     C_3   0.509452 0.284184 0.469660 -0.403169
C65   C     C_3   0.189567 0.001086 0.000180 0.108091
C66   C     C_3   0.998807 0.189564 0.000181 0.108169
C67   C     C_3   0.810434 0.998912 0.000179 0.108205
C68   C     C_3   0.001119 0.810435 0.000178 0.108155
C69   C     C_3   0.689561 0.501275 0.500180 0.108269
C70   C     C_3   0.498894 0.689566 0.500181 0.108222
C71   C     C_3   0.310438 0.498788 0.500179 0.108198
C72   C     C_3   0.501117 0.310435 0.500178 0.108157
H57   H     H_    0.198398 0.971013 0.955751 0.206176
H58   H     H_    0.027467 0.198375 0.955555 0.206743
H59   H     H_    0.801594 0.028961 0.955748 0.206161
H60   H     H_    0.971448 0.801616 0.955692 0.206315
H61   H     H_    0.698333 0.473802 0.455391 0.207175
H62   H     H_    0.528755 0.698394 0.455723 0.206216
H63   H     H_    0.301642 0.527170 0.455514 0.206835
H64   H     H_    0.471403 0.301601 0.455698 0.206286
H65   H     H_    0.198963 0.053826 0.960402 0.127873
H66   H     H_    0.944814 0.198937 0.960752 0.127157
H67   H     H_    0.801036 0.946151 0.960403 0.127848
H68   H     H_    0.054215 0.801030 0.960500 0.127654
H69   H     H_    0.698949 0.556309 0.461054 0.126587
H70   H     H_    0.445966 0.698954 0.460452 0.127775
H71   H     H_    0.301045 0.444551 0.460820 0.127024
H72   H     H_    0.554176 0.301037 0.460488 0.127710
C73   C     C_3   0.310317 0.000006 0.000949 0.087005
C74   C     C_3   0.999981 0.310313 0.000930 0.087019
C75   C     C_3   0.689684 0.999994 0.000947 0.087009
C76   C     C_3   0.000013 0.689685 0.000941 0.086987
C77   C     C_3   0.810309 0.500020 0.500912 0.087073
C78   C     C_3   0.499988 0.810316 0.500946 0.087032
C79   C     C_3   0.189689 0.499984 0.500923 0.087036
C80   C     C_3   0.500013 0.189685 0.500943 0.087039
C81   C     C_3   0.284217 0.937743 0.013031 -0.339234
C82   C     C_3   0.062620 0.284177 0.012593 -0.338672
C83   C     C_3   0.715786 0.062266 0.013022 -0.339251
C84   C     C_3   0.937657 0.715793 0.012918 -0.339049
C85   C     C_3   0.784133 0.437089 0.512239 -0.338163
C86   C     C_3   0.562307 0.784216 0.512969 -0.339130
C87   C     C_3   0.215840 0.562686 0.512516 -0.338547
C88   C     C_3   0.437656 0.215792 0.512922 -0.339059
C89   C     C_3   0.287468 0.009048 0.969975 0.361673
C90   C     C_3   0.989926 0.287449 0.970021 0.361501
C91   C     C_3   0.712528 0.990928 0.969974 0.361678
C92   C     C_3   0.009311 0.712535 0.969984 0.361654
C93   C     C_3   0.787435 0.510876 0.470059 0.361381
C94   C     C_3   0.490796 0.787463 0.469981 0.361652
C95   C     C_3   0.212552 0.489757 0.470025 0.361482
C96   C     C_3   0.509305 0.212532 0.469984 0.361649
H73   H     H_    0.303450 0.055984 0.962679 0.051060
H74   H     H_    0.942774 0.303447 0.963029 0.051667
H75   H     H_    0.696548 0.943986 0.962684 0.051081
H76   H     H_    0.056291 0.696532 0.962760 0.051202
H77   H     H_    0.803479 0.558183 0.463304 0.052128
H78   H     H_    0.443830 0.803445 0.462728 0.051139
H79   H     H_    0.196527 0.442576 0.463080 0.051767
H80   H     H_    0.556292 0.196543 0.462761 0.051187
H81   H     H_    0.195415 0.899117 0.999255 0.160599
H82   H     H_    0.100739 0.195331 0.998600 0.160866
H83   H     H_    0.804590 0.100881 0.999247 0.160561
H84   H     H_    0.899164 0.804588 0.999067 0.160716
H85   H     H_    0.695263 0.399381 0.498048 0.161115
H86   H     H_    0.600857 0.695409 0.499162 0.160573
H87   H     H_    0.304688 0.600714 0.498473 0.160927
H88   H     H_    0.399155 0.304596 0.499088 0.160628
H89   H     H_    0.301050 0.897313 0.000414 0.219916
H90   H     H_    0.102638 0.300966 0.999694 0.219770
H91   H     H_    0.698955 0.102686 0.000399 0.219900
H92   H     H_    0.897329 0.698955 0.000234 0.219885
H93   H     H_    0.800896 0.397399 0.499122 0.219603
H94   H     H_    0.602676 0.801044 0.500311 0.219866
H95   H     H_    0.199054 0.602636 0.499573 0.219719
H96   H     H_    0.397326 0.198963 0.500236 0.219859
C97   C     C_R   0.499997 0.000003 0.145834 0.065321
C98   C     C_R   0.000028 0.500010 0.145839 0.065412
C99   C     C_R   0.999968 0.500042 0.645836 0.065356
C100  C     C_R   0.500004 0.999991 0.645833 0.065318
C101  C     C_R   0.999924 0.500038 0.854186 0.297161
C102  C     C_R   0.499999 0.999988 0.854185 0.297771
C103  C     C_R   0.500004 0.999992 0.354185 0.297616
C104  C     C_R   0.000009 0.500045 0.354187 0.296266
C105  C     C_R   0.570110 0.089941 0.235263 0.513459
C106  C     C_R   0.910982 0.571281 0.235254 0.513402
C107  C     C_R   0.429891 0.910053 0.235256 0.513462
C108  C     C_R   0.089106 0.428822 0.235262 0.513414
C109  C     C_R   0.070384 0.589738 0.735266 0.513467
C110  C     C_R   0.409938 0.069933 0.735259 0.513482
C111  C     C_R   0.929432 0.410416 0.735252 0.513452
C112  C     C_R   0.590062 0.930039 0.735260 0.513483
C113  C     C_R   0.943961 0.507263 0.869095 -0.124472
C114  C     C_R   0.492973 0.943986 0.869083 -0.124784
C115  C     C_R   0.055914 0.492786 0.869075 -0.124592
C116  C     C_R   0.507026 0.055993 0.869083 -0.124801
C117  C     C_R   0.444008 0.007084 0.369082 -0.124738
C118  C     C_R   0.992456 0.444099 0.369080 -0.124138
C119  C     C_R   0.555998 0.992903 0.369085 -0.124728
C120  C     C_R   0.007545 0.555974 0.369096 -0.124150
C121  C     C_R   0.537810 0.040829 0.190277 0.638511
C122  C     C_R   0.959679 0.538344 0.190273 0.638552
C123  C     C_R   0.462184 0.959174 0.190274 0.638509
C124  C     C_R   0.040395 0.461717 0.190278 0.638571
C125  C     C_R   0.037914 0.540739 0.690279 0.638537
C126  C     C_R   0.459111 0.037727 0.690276 0.638507
C127  C     C_R   0.961964 0.459383 0.690272 0.638522
C128  C     C_R   0.540896 0.962251 0.690275 0.638517
H97   H     H_    0.900514 0.513446 0.857790 0.157252
H98   H     H_    0.486965 0.900526 0.857768 0.157129
H99   H     H_    0.099340 0.486617 0.857753 0.157348
H100  H     H_    0.513033 0.099450 0.857768 0.157119
H101  H     H_    0.400557 0.013142 0.357766 0.157165
H102  H     H_    0.986039 0.400700 0.357762 0.157561
H103  H     H_    0.599450 0.986843 0.357772 0.157149
H104  H     H_    0.013969 0.599386 0.357791 0.157513
C129  C     C_R   0.943863 0.506600 0.898592 -0.257545
C130  C     C_R   0.493605 0.943868 0.898581 -0.257113
C131  C     C_R   0.056067 0.493424 0.898573 -0.257090
C132  C     C_R   0.506393 0.056118 0.898581 -0.257100
C133  C     C_R   0.443883 0.006448 0.398580 -0.257152
C134  C     C_R   0.993129 0.443949 0.398578 -0.257388
C135  C     C_R   0.556119 0.993542 0.398583 -0.257209
C136  C     C_R   0.006865 0.556088 0.398593 -0.257797
H105  H     H_    0.899998 0.512018 0.909642 0.169323
H106  H     H_    0.488335 0.899977 0.909623 0.169334
H107  H     H_    0.099948 0.487989 0.909608 0.169638
H108  H     H_    0.511663 0.100012 0.909623 0.169339
H109  H     H_    0.399996 0.011766 0.409621 0.169389
H110  H     H_    0.987472 0.400100 0.409616 0.169783
H111  H     H_    0.600004 0.988226 0.409626 0.169343
H112  H     H_    0.012512 0.599928 0.409642 0.169547
O17   O     O_2   0.932589 0.413445 0.824074 -0.584457
O18   O     O_2   0.587009 0.933196 0.824086 -0.584168
O19   O     O_2   0.067163 0.586720 0.824090 -0.584132
O20   O     O_2   0.412983 0.066770 0.824085 -0.584144
O21   O     O_2   0.433068 0.913086 0.324082 -0.584160
O22   O     O_2   0.086129 0.432088 0.324082 -0.584351
O23   O     O_2   0.566952 0.086889 0.324088 -0.584215
O24   O     O_2   0.913957 0.568068 0.324072 -0.584630
C137  C     C_R   0.999979 0.500009 0.913568 -0.070733
C138  C     C_R   0.499999 0.999995 0.913567 -0.070431
C139  C     C_R   0.500000 0.999996 0.413568 -0.070502
C140  C     C_R   0.999999 0.500010 0.413570 -0.071162
O25   O     O_2   0.576538 0.077724 0.175280 -0.501873
O26   O     O_2   0.923264 0.577512 0.175271 -0.501981
O27   O     O_2   0.423454 0.922282 0.175273 -0.501874
O28   O     O_2   0.076808 0.422538 0.175279 -0.501962
O29   O     O_2   0.076794 0.577477 0.675284 -0.501901
O30   O     O_2   0.422151 0.076389 0.675277 -0.501876
O31   O     O_2   0.923100 0.422638 0.675268 -0.501922
O32   O     O_2   0.577857 0.923591 0.675276 -0.501878
O33   O     O_R   0.499860 0.052350 0.042020 -0.619167
O34   O     O_R   0.947650 0.499860 0.042020 -0.619262
O35   O     O_R   0.500140 0.947650 0.042020 -0.619162
O36   O     O_R   0.052350 0.500140 0.042020 -0.619259
O37   O     O_R   0.999860 0.552350 0.542020 -0.619115
O38   O     O_R   0.447650 0.999860 0.542020 -0.619131
O39   O     O_R   0.000140 0.447650 0.542020 -0.619094
O40   O     O_R   0.552350 0.000140 0.542020 -0.619137
C141  C     C_R   0.500000 0.000001 0.055451 0.908236
C142  C     C_R   0.000001 0.500000 0.055453 0.908558
C143  C     C_R   0.999998 0.500002 0.555451 0.908678
C144  C     C_R   0.500001 1.000000 0.555451 0.908264
O41   O     O_R   0.407270 0.052320 0.000100 -0.643537
O42   O     O_R   0.947680 0.407270 0.000100 -0.643668
O43   O     O_R   0.592730 0.947680 0.000100 -0.643536
O44   O     O_R   0.052320 0.592730 0.000100 -0.643542
O45   O     O_R   0.907270 0.552320 0.500100 -0.643796
O46   O     O_R   0.447680 0.907270 0.500100 -0.643559
O47   O     O_R   0.092730 0.447680 0.500100 -0.643702
O48   O     O_R   0.552320 0.092730 0.500100 -0.643573
O49   O     O_R   0.407290 0.947770 0.000130 -0.604965
O50   O     O_R   0.052230 0.407290 0.000130 -0.605582
O51   O     O_R   0.592710 0.052230 0.000130 -0.604980
O52   O     O_R   0.947770 0.592710 0.000130 -0.605132
O53   O     O_R   0.907290 0.447770 0.500130 -0.606094
O54   O     O_R   0.552230 0.907290 0.500130 -0.605069
O55   O     O_R   0.092710 0.552230 0.500130 -0.605696
O56   O     O_R   0.447770 0.092710 0.500130 -0.605128
C145  C     C_R   0.378557 0.000002 0.001231 0.854965
C146  C     C_R   1.000000 0.378555 0.001207 0.855523
C147  C     C_R   0.621443 0.999998 0.001230 0.854989
C148  C     C_R   0.000003 0.621444 0.001222 0.855115
C149  C     C_R   0.878552 0.499994 0.501184 0.855827
C150  C     C_R   0.499996 0.878557 0.501228 0.855031
C151  C     C_R   0.121447 0.500003 0.501199 0.855543
C152  C     C_R   0.500003 0.121444 0.501224 0.855086
Zn5   Zn    Zn3+2 0.499870 0.069870 0.000100 0.967805
Zn6   Zn    Zn3+2 0.930130 0.499870 0.000100 0.967628
Zn7   Zn    Zn3+2 0.500130 0.930130 0.000100 0.967826
Zn8   Zn    Zn3+2 0.069870 0.500130 0.000100 0.967723
Zn9   Zn    Zn3+2 0.999870 0.569870 0.500100 0.967459
Zn10  Zn    Zn3+2 0.430130 0.999870 0.500100 0.967753
Zn11  Zn    Zn3+2 0.000130 0.430130 0.500100 0.967507
Zn12  Zn    Zn3+2 0.569870 0.000130 0.500100 0.967721
O57   O     O_R   0.499890 0.052320 0.958180 -0.619101
O58   O     O_R   0.947680 0.499890 0.958180 -0.619316
O59   O     O_R   0.500110 0.947680 0.958180 -0.619114
O60   O     O_R   0.052320 0.500110 0.958180 -0.618886
O61   O     O_R   0.999890 0.552320 0.458180 -0.619281
O62   O     O_R   0.447680 0.999890 0.458180 -0.619078
O63   O     O_R   0.000110 0.447680 0.458180 -0.618945
O64   O     O_R   0.552320 0.000110 0.458180 -0.619142
C153  C     C_R   0.500000 0.999999 0.944690 0.843471
C154  C     C_R   0.999997 0.499999 0.944690 0.843857
C155  C     C_R   0.999997 0.500000 0.444691 0.844437
C156  C     C_R   0.499999 0.999999 0.444690 0.843593
C157  C     C_R   0.526404 0.949284 0.130905 0.337126
C158  C     C_R   0.051027 0.525869 0.130909 0.336930
C159  C     C_R   0.473591 0.050723 0.130906 0.337134
C160  C     C_R   0.949019 0.474147 0.130914 0.336930
C161  C     C_R   0.026212 0.449227 0.630913 0.337058
C162  C     C_R   0.550680 0.026487 0.630906 0.337138
C163  C     C_R   0.973734 0.550842 0.630901 0.337048
C164  C     C_R   0.449329 0.973497 0.630902 0.337132
C165  C     C_R   0.524732 0.949320 0.101284 -0.271142
C166  C     C_R   0.050954 0.524211 0.101289 -0.271100
C167  C     C_R   0.475267 0.050687 0.101285 -0.271157
C168  C     C_R   0.949072 0.475799 0.101294 -0.271105
C169  C     C_R   0.024554 0.449257 0.601292 -0.271131
C170  C     C_R   0.550646 0.024813 0.601284 -0.271154
C171  C     C_R   0.975412 0.550782 0.601280 -0.271114
C172  C     C_R   0.449360 0.975176 0.601282 -0.271152
C173  C     C_R   0.965286 0.456571 0.809527 0.527014
C174  C     C_R   0.543698 0.965634 0.809533 0.527213
C175  C     C_R   0.034490 0.543583 0.809535 0.527258
C176  C     C_R   0.456296 0.034333 0.809533 0.527225
C177  C     C_R   0.465579 0.956347 0.309531 0.527185
C178  C     C_R   0.043258 0.465110 0.309532 0.527088
C179  C     C_R   0.534435 0.043633 0.309534 0.527156
C180  C     C_R   0.956821 0.535025 0.309527 0.526901
N5    N     N_R   0.999897 0.500066 0.823769 -0.352117
N6    N     N_R   0.499997 0.999985 0.823769 -0.352142
N7    N     N_R   0.500006 0.999991 0.323769 -0.352140
N8    N     N_R   0.000030 0.500061 0.323768 -0.352077
C181  C     C_R   0.035565 0.544098 0.779829 -0.056291
C182  C     C_R   0.455779 0.035400 0.779826 -0.056315
C183  C     C_R   0.964218 0.456065 0.779821 -0.056143
C184  C     C_R   0.544217 0.964569 0.779826 -0.056305
C185  C     C_R   0.535500 0.044152 0.279828 -0.056290
C186  C     C_R   0.956328 0.536102 0.279821 -0.056040
C187  C     C_R   0.464509 0.955833 0.279824 -0.056311
C188  C     C_R   0.043760 0.464026 0.279825 -0.056160
C189  C     C_R   0.999898 0.500079 0.764854 -0.019172
C190  C     C_R   0.499999 0.999985 0.764855 -0.019148
C191  C     C_R   0.500003 0.999994 0.264855 -0.019169
C192  C     C_R   0.000044 0.500059 0.264853 -0.019211
H113  H     H_    0.544825 0.910630 0.089720 0.203277
H114  H     H_    0.089857 0.543897 0.089728 0.203577
H115  H     H_    0.455176 0.089377 0.089721 0.203273
H116  H     H_    0.910162 0.456111 0.089736 0.203582
H117  H     H_    0.044525 0.410495 0.589734 0.203367
H118  H     H_    0.589303 0.044972 0.589721 0.203224
H119  H     H_    0.955447 0.589533 0.589714 0.203381
H120  H     H_    0.410703 0.955019 0.589716 0.203226
O65   O     O_3   0.309373 0.959247 0.952735 -0.647142
C193  C     C_3   0.340233 0.980790 0.928132 0.106520
H121  H     H_    0.369045 0.941720 0.920060 0.178275
H122  H     H_    0.372855 0.019757 0.932790 0.121758
C194  C     C_3   0.293665 0.999222 0.904988 -0.443507
H123  H     H_    0.261647 0.959622 0.900777 0.237772
H124  H     H_    0.265559 0.039690 0.912153 0.214056
C195  C     C_3   0.327187 0.016688 0.877592 -0.809593
H125  H     H_    0.359342 0.056365 0.881353 0.283233
H126  H     H_    0.292547 0.030599 0.861304 0.266968
H127  H     H_    0.354143 0.976358 0.869419 0.264921
O66   O     O_3   0.039191 0.309315 0.952457 -0.647529
C196  C     C_3   0.016900 0.340217 0.928004 0.105404
H128  H     H_    0.055778 0.368913 0.919662 0.178585
H129  H     H_    0.978180 0.372942 0.932932 0.122368
C197  C     C_3   0.997582 0.293695 0.904990 -0.444260
H130  H     H_    0.036936 0.261542 0.900528 0.237937
H131  H     H_    0.957244 0.265729 0.912419 0.213949
C198  C     C_3   0.979384 0.327261 0.877704 -0.807660
H132  H     H_    0.939912 0.359523 0.881708 0.282012
H133  H     H_    0.964890 0.292659 0.861504 0.266765
H134  H     H_    0.019539 0.354113 0.869282 0.266218
O67   O     O_3   0.690619 0.040714 0.952728 -0.647170
C199  C     C_3   0.659764 0.019149 0.928126 0.106492
H135  H     H_    0.630954 0.058212 0.920046 0.178276
H136  H     H_    0.627141 0.980186 0.932787 0.121783
C200  C     C_3   0.706337 0.000696 0.904988 -0.443563
H137  H     H_    0.738357 0.040292 0.900774 0.237745
H138  H     H_    0.734441 0.960233 0.912160 0.214043
C201  C     C_3   0.672819 0.983208 0.877592 -0.809580
H139  H     H_    0.640663 0.943535 0.881356 0.283217
H140  H     H_    0.707462 0.969281 0.861308 0.266943
H141  H     H_    0.645866 0.023531 0.869412 0.264950
O68   O     O_3   0.959630 0.690656 0.952666 -0.647271
C202  C     C_3   0.981339 0.659794 0.928094 0.106212
H142  H     H_    0.942295 0.631046 0.919949 0.178382
H143  H     H_    0.020221 0.627118 0.932814 0.121936
C203  C     C_3   0.000029 0.706356 0.904992 -0.443553
H144  H     H_    0.960525 0.738458 0.900734 0.237804
H145  H     H_    0.040504 0.734374 0.912224 0.213989
C204  C     C_3   0.017613 0.672831 0.877612 -0.809457
H146  H     H_    0.057186 0.640580 0.881421 0.283059
H147  H     H_    0.031722 0.707462 0.861357 0.266864
H148  H     H_    0.977278 0.645977 0.869372 0.265109
O69   O     O_3   0.809232 0.462024 0.452238 -0.647851
C205  C     C_3   0.840169 0.484874 0.427901 0.104471
H149  H     H_    0.868723 0.446125 0.419340 0.178835
H150  H     H_    0.873020 0.523363 0.433038 0.122902
C206  C     C_3   0.793691 0.504933 0.404999 -0.444634
H151  H     H_    0.761365 0.465819 0.400352 0.238020
H152  H     H_    0.765908 0.545210 0.412636 0.213863
C207  C     C_3   0.827295 0.523633 0.377792 -0.806503
H153  H     H_    0.859728 0.562880 0.381977 0.281152
H154  H     H_    0.792732 0.538642 0.361672 0.266558
H155  H     H_    0.853971 0.483566 0.369169 0.267135
O70   O     O_3   0.540520 0.809362 0.452695 -0.647240
C208  C     C_3   0.518869 0.840224 0.428113 0.106329
H156  H     H_    0.557917 0.869011 0.420000 0.178310
H157  H     H_    0.479946 0.872868 0.432810 0.121867
C209  C     C_3   0.500291 0.793661 0.404990 -0.443620
H158  H     H_    0.539843 0.761608 0.400746 0.237737
H159  H     H_    0.459830 0.765590 0.412194 0.214048
C210  C     C_3   0.482735 0.827186 0.377607 -0.809423
H160  H     H_    0.443108 0.859379 0.381400 0.283099
H161  H     H_    0.468715 0.792551 0.361335 0.266927
H162  H     H_    0.523056 0.854101 0.369395 0.265053
O71   O     O_3   0.190720 0.538942 0.452406 -0.647633
C211  C     C_3   0.159816 0.516544 0.427973 0.105144
H163  H     H_    0.131197 0.555417 0.419575 0.178656
H164  H     H_    0.127027 0.477902 0.432943 0.122543
C212  C     C_3   0.206327 0.497016 0.404991 -0.444114
H165  H     H_    0.238565 0.536286 0.400495 0.237912
H166  H     H_    0.234202 0.456662 0.412470 0.213912
C213  C     C_3   0.172754 0.478744 0.377714 -0.807836
H167  H     H_    0.140388 0.439370 0.381752 0.281956
H168  H     H_    0.207343 0.464079 0.361541 0.266635
H169  H     H_    0.146013 0.518916 0.369238 0.266251
O72   O     O_3   0.459631 0.190635 0.452665 -0.647258
C214  C     C_3   0.481353 0.159771 0.428095 0.106219
H170  H     H_    0.442324 0.130992 0.419954 0.178347
H171  H     H_    0.520256 0.127120 0.432816 0.121920
C215  C     C_3   0.500008 0.206332 0.404986 -0.443711
H172  H     H_    0.460476 0.238394 0.400719 0.237775
H173  H     H_    0.540456 0.234393 0.412216 0.214052
C216  C     C_3   0.517635 0.172805 0.377612 -0.809124
H174  H     H_    0.557249 0.140607 0.381428 0.282983
H175  H     H_    0.531703 0.207437 0.361349 0.266920
H176  H     H_    0.477334 0.145893 0.369376 0.265183
O73   O     O_3   0.605260 0.134450 0.221192 -0.581846
C217  C     C_3   0.578314 0.194276 0.224588 0.059083
H177  H     H_    0.615471 0.229227 0.220672 0.184846
H178  H     H_    0.561063 0.203136 0.246509 0.116863
C218  C     C_3   0.525940 0.204946 0.202991 -0.280745
H179  H     H_    0.544377 0.198432 0.181177 0.281432
H180  H     H_    0.487994 0.170671 0.206560 0.239418
C219  C     C_3   0.498976 0.270429 0.205530 -0.910484
H181  H     H_    0.479169 0.277728 0.227036 0.257879
H182  H     H_    0.461301 0.276621 0.189649 0.293844
H183  H     H_    0.535674 0.305803 0.201512 0.262343
O74   O     O_3   0.866934 0.607004 0.221179 -0.581859
C220  C     C_3   0.806757 0.580843 0.224574 0.059147
H184  H     H_    0.772297 0.618462 0.220674 0.184814
H185  H     H_    0.797682 0.563674 0.246490 0.116838
C221  C     C_3   0.795380 0.528644 0.202962 -0.280848
H186  H     H_    0.802123 0.547029 0.181153 0.281316
H187  H     H_    0.829154 0.490246 0.206514 0.239452
C222  C     C_3   0.729545 0.502540 0.205498 -0.910244
H188  H     H_    0.721998 0.482794 0.226997 0.257943
H189  H     H_    0.722843 0.464975 0.189605 0.293837
H190  H     H_    0.694656 0.539706 0.201497 0.262319
O75   O     O_3   0.394737 0.865547 0.221181 -0.581845
C223  C     C_3   0.421683 0.805720 0.224572 0.059080
H191  H     H_    0.384524 0.770771 0.220653 0.184846
H192  H     H_    0.438938 0.796856 0.246492 0.116860
C224  C     C_3   0.474053 0.795053 0.202974 -0.280739
H193  H     H_    0.455612 0.801572 0.181160 0.281433
H194  H     H_    0.512000 0.829327 0.206545 0.239421
C225  C     C_3   0.501015 0.729569 0.205507 -0.910489
H195  H     H_    0.520826 0.722265 0.227012 0.257871
H196  H     H_    0.538687 0.723379 0.189625 0.293846
H197  H     H_    0.464316 0.694197 0.201486 0.262344
O76   O     O_3   0.133154 0.393092 0.221191 -0.581859
C226  C     C_3   0.193330 0.419261 0.224582 0.059161
H198  H     H_    0.227792 0.381642 0.220685 0.184821
H199  H     H_    0.202407 0.436447 0.246496 0.116848
C227  C     C_3   0.204697 0.471445 0.202964 -0.280864
H200  H     H_    0.197949 0.453044 0.181157 0.281323
H201  H     H_    0.170921 0.509843 0.206513 0.239450
C228  C     C_3   0.270531 0.497555 0.205495 -0.910252
H202  H     H_    0.278083 0.517317 0.226992 0.257940
H203  H     H_    0.277226 0.535110 0.189598 0.293833
H204  H     H_    0.305421 0.460389 0.201497 0.262323
O77   O     O_3   0.105731 0.634095 0.721196 -0.581847
C229  C     C_3   0.079036 0.694036 0.724584 0.059043
H205  H     H_    0.116349 0.728829 0.720682 0.184756
H206  H     H_    0.061785 0.702969 0.746499 0.116866
C230  C     C_3   0.026744 0.704931 0.702969 -0.280746
H207  H     H_    0.045191 0.698340 0.681161 0.281356
H208  H     H_    0.988647 0.670816 0.706523 0.239468
C231  C     C_3   0.000054 0.770528 0.705499 -0.910393
H209  H     H_    0.980240 0.777910 0.726998 0.257939
H210  H     H_    0.962434 0.776882 0.689605 0.293889
H211  H     H_    0.036909 0.805747 0.701495 0.262240
O78   O     O_3   0.365373 0.105007 0.721186 -0.581846
C232  C     C_3   0.305592 0.077955 0.724578 0.059007
H212  H     H_    0.270580 0.115053 0.720665 0.184768
H213  H     H_    0.296761 0.060676 0.746496 0.116875
C233  C     C_3   0.295007 0.025575 0.702974 -0.280683
H214  H     H_    0.301489 0.044036 0.681162 0.281398
H215  H     H_    0.329347 0.987688 0.706538 0.239467
C234  C     C_3   0.229571 0.998494 0.705508 -0.910496
H216  H     H_    0.222308 0.978661 0.727011 0.257920
H217  H     H_    0.223440 0.960818 0.689622 0.293896
H218  H     H_    0.194135 0.035131 0.701495 0.262247
O79   O     O_3   0.894094 0.366056 0.721176 -0.581848
C235  C     C_3   0.920776 0.306112 0.724575 0.059037
H219  H     H_    0.883462 0.271323 0.720665 0.184751
H220  H     H_    0.938002 0.297187 0.746494 0.116853
C236  C     C_3   0.973090 0.295197 0.702974 -0.280734
H221  H     H_    0.954667 0.301777 0.681161 0.281346
H222  H     H_    0.011188 0.329310 0.706535 0.239472
C237  C     C_3   0.999768 0.229597 0.705516 -0.910383
H223  H     H_    0.019559 0.222227 0.727020 0.257949
H224  H     H_    0.037405 0.223229 0.689632 0.293890
H225  H     H_    0.962913 0.194381 0.701506 0.262237
O80   O     O_3   0.634628 0.894965 0.721186 -0.581845
C238  C     C_3   0.694410 0.922015 0.724583 0.058995
H226  H     H_    0.729421 0.884914 0.720673 0.184759
H227  H     H_    0.703237 0.939298 0.746502 0.116862
C239  C     C_3   0.705002 0.974390 0.702980 -0.280657
H228  H     H_    0.698526 0.955924 0.681168 0.281391
H229  H     H_    0.670662 0.012278 0.706542 0.239471
C240  C     C_3   0.770438 0.001470 0.705520 -0.910546
H230  H     H_    0.777695 0.021309 0.727024 0.257917
H231  H     H_    0.776575 0.039142 0.689634 0.293892
H232  H     H_    0.805875 0.964831 0.701510 0.262248
N9    N     N_R   0.555561 0.898076 0.145493 0.212202
O81   O     O_R   0.557102 0.843103 0.133896 -0.387927
O82   O     O_R   0.586130 0.907190 0.168954 -0.404458
N10   N     N_R   0.102568 0.554451 0.145497 0.212238
O83   O     O_R   0.157549 0.555387 0.133894 -0.387814
O84   O     O_R   0.093817 0.585090 0.168966 -0.404282
N11   N     N_R   0.444434 0.101930 0.145495 0.212208
O85   O     O_R   0.442893 0.156903 0.133900 -0.387921
O86   O     O_R   0.413866 0.092818 0.168954 -0.404447
N12   N     N_R   0.897486 0.445570 0.145508 0.212237
O87   O     O_R   0.842500 0.444624 0.133909 -0.387818
O88   O     O_R   0.906249 0.414948 0.168979 -0.404269
N13   N     N_R   0.055184 0.397924 0.645510 0.212228
O89   O     O_R   0.056553 0.342943 0.633914 -0.387852
O90   O     O_R   0.085752 0.406936 0.668978 -0.404299
N14   N     N_R   0.601837 0.055735 0.645496 0.212217
O91   O     O_R   0.656806 0.057381 0.633899 -0.387905
O92   O     O_R   0.592673 0.086284 0.668957 -0.404392
N15   N     N_R   0.944750 0.602159 0.645484 0.212229
O93   O     O_R   0.943398 0.657130 0.633881 -0.387849
O94   O     O_R   0.914154 0.593167 0.668945 -0.404311
N16   N     N_R   0.398172 0.944245 0.645490 0.212213
O95   O     O_R   0.343204 0.942600 0.633891 -0.387903
O96   O     O_R   0.407338 0.913694 0.668949 -0.404383

loop_
_geom_bond_atom_site_label_1
_geom_bond_atom_site_label_2
_geom_bond_distance
_ccdc_geom_bond_type
C226  C227  1.534540 S    
C210  H160  1.110934 S    
C50   C66   1.546123 S    
N13   O89   1.301477 A    
N2    C98   1.433525 S    
C38   C70   1.548521 S    
C231  H211  1.110854 S    
H45   C53   1.113462 S    
Zn8   O60   2.012459 S    
C173  N5    1.369566 A    
C204  H146  1.110931 S    
C33   C41   1.535573 S    
C237  H225  1.110851 S    
C102  C116  1.400973 A    
O41   C145  1.282669 A    
C118  H102  1.082758 S    
C199  H135  1.109820 S    
C54   C86   1.534208 S    
C37   C45   1.535664 S    
O37   Zn9   2.012368 S    
C170  H118  1.083473 S    
C39   C47   1.535630 S    
O4    Zn1   2.024052 S    
C93   H77   1.119021 S    
C40   H16   1.113174 S    
C114  C130  1.391128 A    
C229  H205  1.110905 S    
C73   C81   1.557736 S    
C74   C146  1.465508 S    
C47   C79   1.555229 S    
C181  C189  1.406666 A    
C174  C184  1.401156 A    
C14   C142  1.462641 S    
C235  C236  1.534528 S    
O64   C156  1.291148 A    
C159  C167  1.397334 A    
C211  H163  1.109723 S    
C23   C187  1.400010 A    
N12   O87   1.301485 A    
C64   H64   1.114055 S    
C168  H116  1.083470 S    
C49   C65   1.546235 S    
C50   H82   1.113735 S    
O15   C7    1.275048 A    
C58   H58   1.114044 S    
C63   C71   1.555928 S    
C194  H124  1.110736 S    
C180  C186  1.401109 A    
C183  C189  1.406654 A    
H42   C50   1.113416 S    
C114  H98   1.082742 S    
C62   H62   1.114045 S    
C17   H1    1.083429 S    
C56   C72   1.546223 S    
C41   H33   1.113440 S    
C200  C201  1.525803 S    
C222  H189  1.110462 S    
C87   H95   1.112900 S    
C116  C132  1.391129 A    
C128  O32   1.348926 S    
O71   C211  1.413980 S    
C43   H35   1.113438 S    
C131  C137  1.403872 A    
C129  H105  1.082771 S    
C34   C42   1.535626 S    
C45   H29   1.113132 S    
C172  H120  1.083471 S    
C240  H232  1.110843 S    
C159  N11   1.440389 S    
C125  O29   1.348937 S    
C208  C209  1.532283 S    
O45   Zn9   2.023930 S    
C233  C234  1.525477 S    
C176  C182  1.401157 A    
C214  H171  1.113194 S    
N4    C126  1.366168 A    
O12   C4    1.275032 A    
O80   C238  1.418132 S    
O13   C5    1.275036 A    
C58   H66   1.113787 S    
C21   C105  1.400249 A    
C42   H26   1.113092 S    
C231  H209  1.110876 S    
C27   C107  1.416625 A    
C60   H60   1.114036 S    
C61   H61   1.114076 S    
C212  H166  1.110750 S    
C74   C82   1.557885 S    
C165  H113  1.083475 S    
C59   H67   1.113786 S    
C230  H208  1.110900 S    
C35   C67   1.548504 S    
C44   C76   1.555274 S    
O43   C147  1.282669 A    
C214  H170  1.109808 S    
C12   C32   1.415613 A    
C79   C87   1.557925 S    
O55   Zn9   2.029392 S    
C204  H148  1.110736 S    
O54   Zn12  2.029351 S    
C80   C88   1.557788 S    
O33   Zn5   2.012368 S    
C237  H223  1.110871 S    
C102  C114  1.400973 A    
C58   C90   1.538777 S    
C199  C200  1.532287 S    
O18   C174  1.349570 S    
C21   C185  1.400009 A    
O76   C226  1.418168 S    
C177  C187  1.401151 A    
C43   C75   1.555361 S    
C31   C127  1.405505 A    
C3    C68   1.461955 S    
C179  C185  1.401148 A    
C94   O70   1.423340 S    
N10   O83   1.301488 A    
O11   Zn3   2.025409 S    
C1    C66   1.461961 S    
C41   C73   1.555368 S    
C103  C119  1.400985 A    
C207  H153  1.110976 S    
C26   C122  1.405470 A    
C57   H65   1.113787 S    
C16   C144  1.462476 S    
C240  H231  1.110453 S    
Zn7   O59   2.012489 S    
O72   C214  1.414014 S    
O10   C2    1.275039 A    
C211  C212  1.532354 S    
C45   C77   1.555183 S    
C36   C44   1.535583 S    
C108  O76   1.387043 S    
C96   H80   1.118973 S    
C217  H177  1.110895 S    
C34   C66   1.548700 S    
C106  O74   1.387045 S    
O23   C179  1.349570 S    
O4    C4    1.278127 A    
O5    C5    1.278123 A    
O52   C148  1.281216 A    
N16   O95   1.301468 A    
N4    C128  1.366167 A    
O57   C153  1.291155 A    
C63   C95   1.538785 S    
C15   C143  1.462542 S    
C121  O25   1.348935 S    
C196  H128  1.109757 S    
C104  C118  1.401093 A    
C182  C190  1.406642 A    
C161  N13   1.440415 S    
O6    C6    1.278081 A    
C176  N6    1.369518 A    
C35   H19   1.113615 S    
C157  N9    1.440391 S    
C175  C181  1.401151 A    
C164  N16   1.440383 S    
C37   H13   1.113198 S    
O67   C199  1.414029 S    
C55   C87   1.534164 S    
C79   C151  1.465529 S    
C78   C86   1.557756 S    
Zn11  O63   2.012489 S    
C194  H123  1.111445 S    
O61   C155  1.291109 A    
C13   C165  1.398290 A    
C202  H143  1.113182 S    
C138  C153  1.467687 S    
O36   C142  1.290378 A    
C210  H161  1.110216 S    
O73   C217  1.418133 S    
N3    C99   1.433596 S    
C197  H130  1.111449 S    
C231  H210  1.110455 S    
C97   C157  1.415482 A    
C11   C189  1.410465 A    
C55   C71   1.546154 S    
O39   Zn11  2.012331 S    
C74   C90   1.553121 S    
C34   H10   1.113161 S    
C10   C192  1.410437 A    
C221  H186  1.111136 S    
C18   C182  1.399996 A    
C217  C218  1.534524 S    
N9    O82   1.301196 A    
C84   H92   1.112855 S    
C167  H115  1.083470 S    
O50   C146  1.281147 A    
C198  H132  1.110945 S    
C209  H158  1.111441 S    
C30   C110  1.416616 A    
H44   C52   1.113400 S    
C198  H133  1.110226 S    
C51   C67   1.546232 S    
O10   Zn3   2.025408 S    
C96   O72   1.423346 S    
C132  H108  1.082760 S    
C133  H109  1.082770 S    
C36   C68   1.548521 S    
C161  C169  1.397327 A    
Zn10  O62   2.012483 S    
C135  H111  1.082765 S    
C224  C225  1.525482 S    
C21   H5    1.083420 S    
C228  H202  1.110869 S    
C129  C137  1.403911 A    
C119  C135  1.391124 A    
C206  H151  1.111473 S    
C9    C25   1.415620 A    
C116  H100  1.082739 S    
C188  C192  1.406670 A    
Zn5   O57   2.012452 S    
C47   H31   1.113104 S    
C216  H174  1.110936 S    
C39   C71   1.548765 S    
C120  H104  1.082755 S    
N1    C121  1.366171 A    
C117  C133  1.391130 A    
C207  H155  1.110812 S    
C234  H218  1.110842 S    
C195  H125  1.110932 S    
H51   C83   1.113356 S    
C2    C67   1.461972 S    
C103  C117  1.400993 A    
C33   H9    1.113169 S    
C213  H167  1.110960 S    
H49   C81   1.113356 S    
C169  H117  1.083472 S    
O36   Zn8   2.012362 S    
C220  H185  1.114484 S    
C40   C48   1.535591 S    
C206  C207  1.525857 S    
C166  H114  1.083471 S    
C232  H212  1.110891 S    
C62   H70   1.113782 S    
C178  C188  1.401126 A    
C202  H142  1.109771 S    
O46   C150  1.282688 A    
C89   O65   1.423351 S    
O77   C229  1.418149 S    
C184  C190  1.406640 A    
C139  C156  1.467677 S    
O8    Zn2   2.024052 S    
O12   Zn3   2.025382 S    
O3    C3    1.278109 A    
C218  H180  1.110888 S    
C63   H71   1.113801 S    
C101  N5    1.434426 S    
C80   C152  1.465505 S    
C53   C85   1.534143 S    
O55   C151  1.281139 A    
C124  O28   1.348946 S    
C160  C168  1.397294 A    
C193  H122  1.113181 S    
C35   H11   1.113167 S    
O33   C141  1.290350 A    
C32   C128  1.405536 A    
C130  H106  1.082761 S    
O15   Zn4   2.025409 S    
C194  C195  1.525803 S    
C37   H21   1.113665 S    
C13   C167  1.398291 A    
C31   C111  1.416646 A    
C17   C181  1.400032 A    
C226  H199  1.114488 S    
C239  H228  1.111129 S    
C126  O30   1.348929 S    
C77   C93   1.553258 S    
C101  C113  1.400988 A    
C90   H74   1.118979 S    
C197  C198  1.525804 S    
O70   C208  1.414011 S    
O50   Zn8   2.029351 S    
C213  H169  1.110777 S    
C26   C106  1.416663 A    
C97   C159  1.415484 A    
C222  H188  1.110875 S    
O38   Zn10  2.012338 S    
C196  C197  1.532291 S    
C36   H12   1.113156 S    
C92   O68   1.423300 S    
C59   H59   1.114047 S    
C61   H69   1.113831 S    
C162  C170  1.397335 A    
C221  C222  1.525534 S    
C52   C84   1.534192 S    
O14   C6    1.275102 A    
C199  H136  1.113182 S    
C225  H195  1.110875 S    
Zn12  O64   2.012459 S    
O62   C156  1.291160 A    
O65   C193  1.414028 S    
O16   Zn4   2.025382 S    
C58   C66   1.555926 S    
C209  C210  1.525796 S    
O7    C7    1.278112 A    
O52   Zn6   2.029351 S    
O8    C8    1.278074 A    
C229  H206  1.114486 S    
C215  H172  1.111446 S    
C236  C237  1.525506 S    
C78   C150  1.465500 S    
C227  H200  1.111137 S    
O40   C144  1.290343 A    
C23   C107  1.400256 A    
C211  H164  1.113249 S    
C228  H204  1.110863 S    
C127  O31   1.348939 S    
N12   O88   1.301201 A    
C9    C27   1.415621 A    
C43   H27   1.113080 S    
C205  H149  1.109719 S    
C10   C28   1.415681 A    
O47   C151  1.282738 A    
C224  H193  1.111131 S    
C123  O27   1.348932 S    
C223  H191  1.110895 S    
C239  C240  1.525477 S    
C12   C30   1.415609 A    
C7    C72   1.461963 S    
C98   C160  1.415479 A    
N1    C123  1.366172 A    
C229  C230  1.534529 S    
C234  H216  1.110872 S    
C195  H127  1.110733 S    
N1    C97   1.433639 S    
O45   C149  1.282779 A    
C174  N6    1.369522 A    
C203  H144  1.111437 S    
C113  H97   1.082747 S    
C200  H138  1.110736 S    
C111  O79   1.387021 S    
O11   C3    1.275045 A    
C117  H101  1.082747 S    
O78   C232  1.418131 S    
C38   C46   1.535588 S    
C90   O66   1.423326 S    
C232  C233  1.534510 S    
O63   C155  1.291166 A    
C19   C111  1.400241 A    
C88   H96   1.112877 S    
C24   C188  1.400055 A    
C201  H139  1.110933 S    
O3    Zn1   2.024018 S    
O53   C149  1.281078 A    
C62   C94   1.538751 S    
O49   Zn7   2.029392 S    
C216  H176  1.110748 S    
C219  H181  1.110876 S    
C75   C147  1.465504 S    
C208  H157  1.113186 S    
C122  O26   1.348945 S    
C25   C121  1.405527 A    
C50   C82   1.534165 S    
C99   C163  1.415476 A    
C133  C139  1.403897 A    
C22   C186  1.400053 A    
C134  C140  1.403865 A    
C163  N15   1.440413 S    
C40   C72   1.548571 S    
H56   C88   1.113359 S    
C29   C109  1.416650 A    
O35   Zn7   2.012331 S    
C51   H83   1.113729 S    
O51   Zn5   2.029392 S    
C57   C89   1.538754 S    
O35   C141  1.290345 A    
C91   H75   1.118967 S    
C76   C84   1.557733 S    
C23   H7    1.083420 S    
C77   C85   1.558074 S    
C136  H112  1.082785 S    
C230  H207  1.111132 S    
C101  C115  1.401041 A    
C160  N12   1.440442 S    
N13   O90   1.301199 A    
C60   C68   1.555921 S    
C39   H15   1.113178 S    
C12   C190  1.410484 A    
C204  H147  1.110207 S    
O59   C153  1.291156 A    
C237  H224  1.110461 S    
C28   C124  1.405483 A    
C52   H84   1.113721 S    
H53   C85   1.113402 S    
N11   O85   1.301472 A    
C36   H20   1.113603 S    
O75   C223  1.418135 S    
C61   C93   1.538812 S    
C42   H34   1.113455 S    
O21   C177  1.349576 S    
C16   C172  1.398275 A    
C14   C168  1.398375 A    
C32   C112  1.416619 A    
H43   C51   1.113405 S    
C64   C96   1.538769 S    
C49   C81   1.534231 S    
C46   H38   1.113439 S    
H47   C55   1.113436 S    
C238  H226  1.110891 S    
H48   C56   1.113414 S    
C60   C92   1.538763 S    
C55   H87   1.113753 S    
C236  H221  1.111133 S    
C158  N10   1.440441 S    
C134  H110  1.082784 S    
C102  N6    1.434365 S    
C57   C65   1.555971 S    
C33   H17   1.113619 S    
O40   Zn12  2.012362 S    
C95   H79   1.118995 S    
C59   C67   1.555958 S    
C56   C88   1.534199 S    
C35   C43   1.535569 S    
O37   C143  1.290342 A    
C130  C138  1.403896 A    
C217  H178  1.114481 S    
C10   C26   1.415686 A    
C109  O77   1.387019 S    
C11   C31   1.415653 A    
C78   C94   1.553065 S    
C223  C224  1.534522 S    
N3    C127  1.366170 A    
C18   C110  1.400257 A    
O2    Zn1   2.024030 S    
C98   C158  1.415467 A    
N16   O96   1.301197 A    
C136  C140  1.403893 A    
O7    Zn2   2.024018 S    
C118  C134  1.391124 A    
C238  C239  1.534511 S    
C60   H68   1.113775 S    
C157  C165  1.397321 A    
C233  H214  1.111128 S    
C94   H78   1.118967 S    
C56   H88   1.113739 S    
O34   Zn6   2.012338 S    
C222  H190  1.110861 S    
C49   H81   1.113728 S    
H50   C82   1.113366 S    
C48   C80   1.555333 S    
O56   Zn10  2.029351 S    
C112  O80   1.386992 S    
O43   Zn7   2.023930 S    
O17   C173  1.349565 S    
C28   C108  1.416665 A    
C63   H63   1.114056 S    
O19   C175  1.349586 S    
N2    C124  1.366169 A    
O48   Zn12  2.023959 S    
C219  H183  1.110843 S    
C37   C69   1.548954 S    
C75   C83   1.557734 S    
C197  H131  1.110741 S    
C104  C120  1.401053 A    
C99   C161  1.415497 A    
C214  C215  1.532295 S    
O14   Zn4   2.025408 S    
C19   H3    1.083429 S    
C24   C108  1.400242 A    
C162  N14   1.440382 S    
C221  H187  1.110912 S    
C171  H119  1.083473 S    
C187  C191  1.406651 A    
O34   C142  1.290397 A    
C131  H107  1.082771 S    
O1    Zn1   2.024053 S    
C73   C89   1.553071 S    
C180  N8    1.369623 A    
O22   C178  1.349586 S    
C212  C213  1.525847 S    
O66   C196  1.413977 S    
C158  C166  1.397275 A    
C115  C131  1.391149 A    
C230  C231  1.525504 S    
O9    Zn3   2.025370 S    
C4    C65   1.461976 S    
C16   C170  1.398276 A    
O39   C143  1.290372 A    
C104  N8    1.434502 S    
C64   C72   1.555960 S    
N10   O84   1.301199 A    
C9    C191  1.410479 A    
C224  H194  1.110888 S    
C83   H91   1.112864 S    
C38   H14   1.113163 S    
H55   C87   1.113376 S    
C18   H2    1.083416 S    
C115  H99   1.082751 S    
C62   C70   1.555957 S    
O6    Zn2   2.024030 S    
C14   C166  1.398386 A    
O69   C205  1.413983 S    
C61   C69   1.555960 S    
C226  H198  1.110916 S    
C95   O71   1.423330 S    
C48   H40   1.113448 S    
C30   C126  1.405534 A    
C82   H90   1.112888 S    
C137  C154  1.467654 S    
H41   C49   1.113406 S    
C64   H72   1.113795 S    
C107  O75   1.387000 S    
C234  H217  1.110451 S    
C195  H126  1.110219 S    
O42   Zn6   2.023959 S    
C79   C95   1.553182 S    
C213  H168  1.110240 S    
C80   C96   1.553094 S    
C34   H18   1.113615 S    
C29   C125  1.405518 A    
C54   C70   1.546206 S    
C19   C183  1.400028 A    
N4    C100  1.433648 S    
C135  C139  1.403902 A    
C27   C123  1.405531 A    
C220  H184  1.110918 S    
C81   H89   1.112864 S    
C206  H152  1.110766 S    
O68   C202  1.413975 S    
C11   C29   1.415648 A    
C85   H93   1.112931 S    
C177  N7    1.369535 A    
C15   C171  1.398327 A    
C200  H137  1.111446 S    
C205  H150  1.113301 S    
O54   C150  1.281227 A    
H46   C54   1.113401 S    
C89   H73   1.118967 S    
C196  H129  1.113239 S    
C218  H179  1.111132 S    
O51   C147  1.281245 A    
C132  C138  1.403895 A    
C93   O69   1.423357 S    
Zn9   O61   2.012452 S    
O16   C8    1.275136 A    
O20   C176  1.349572 S    
C193  C194  1.532284 S    
C22   H6    1.083437 S    
C208  H156  1.109804 S    
O60   C154  1.291183 A    
Zn6   O58   2.012483 S    
C59   C91   1.538763 S    
C76   C148  1.465507 S    
C40   H24   1.113630 S    
C44   H36   1.113423 S    
C202  C203  1.532260 S    
C238  H227  1.114486 S    
N2    C122  1.366166 A    
C210  H162  1.110738 S    
C239  H229  1.110884 S    
C164  C172  1.397332 A    
C233  H215  1.110888 S    
C57   H57   1.114048 S    
C52   C68   1.546168 S    
C53   C69   1.546148 S    
N14   O91   1.301468 A    
O13   Zn4   2.025370 S    
C13   C141  1.462495 S    
O79   C235  1.418152 S    
N15   O94   1.301196 A    
C51   C83   1.534227 S    
C173  C183  1.401125 A    
C113  C129  1.391092 A    
C215  C216  1.525797 S    
O48   C152  1.282695 A    
N3    C125  1.366176 A    
N14   O92   1.301195 A    
C41   H25   1.113082 S    
N11   O86   1.301194 A    
C225  H196  1.110454 S    
O47   Zn11  2.023930 S    
C185  C191  1.406648 A    
C212  H165  1.111458 S    
C186  C192  1.406656 A    
O5    Zn2   2.024053 S    
C42   C74   1.555211 S    
C22   C106  1.400226 A    
C198  H134  1.110769 S    
O42   C146  1.282738 A    
O38   C144  1.290339 A    
C5    C70   1.461967 S    
C215  H173  1.110740 S    
C236  H222  1.110900 S    
C54   H86   1.113729 S    
C100  C164  1.415484 A    
C53   H85   1.113780 S    
C227  H201  1.110909 S    
C46   C78   1.555334 S    
O9    C1    1.275085 A    
C235  H219  1.110907 S    
C17   C109  1.400250 A    
O24   C180  1.349565 S    
C228  H203  1.110466 S    
C39   H23   1.113633 S    
H54   C86   1.113353 S    
C225  H197  1.110844 S    
C91   O67   1.423349 S    
C6    C71   1.461952 S    
C77   C149  1.465533 S    
C38   H22   1.113614 S    
C110  O78   1.386994 S    
C44   H28   1.113062 S    
C223  H192  1.114480 S    
C24   H8    1.083436 S    
C73   C145  1.465498 S    
C103  N7    1.434379 S    
O49   C145  1.281247 A    
O2    C2    1.278119 A    
O44   Zn8   2.023959 S    
C227  C228  1.525534 S    
O44   C148  1.282693 A    
C203  H145  1.110731 S    
C163  C171  1.397307 A    
C179  N7    1.369535 A    
O58   C154  1.291116 A    
C209  H159  1.110740 S    
C75   C91   1.553071 S    
C175  N5    1.369564 A    
C220  C221  1.534542 S    
C205  C206  1.532397 S    
C48   H32   1.113087 S    
C20   C112  1.400258 A    
C25   C105  1.416624 A    
C232  H213  1.114485 S    
C47   H39   1.113473 S    
C119  H103  1.082749 S    
C15   C169  1.398317 A    
C20   H4    1.083415 S    
C240  H230  1.110871 S    
C201  H140  1.110220 S    
C76   C92   1.553046 S    
C33   C65   1.548500 S    
C235  H220  1.114486 S    
O74   C220  1.418173 S    
C216  H175  1.110224 S    
C219  H182  1.110453 S    
C140  C155  1.467592 S    
N9    O81   1.301471 A    
C218  C219  1.525483 S    
C105  O73   1.386999 S    
H52   C84   1.113338 S    
C203  C204  1.525786 S    
C207  H154  1.110263 S    
C8    C69   1.461959 S    
C120  C136  1.391078 A    
C100  C162  1.415485 A    
N15   O93   1.301481 A    
O1    C1    1.278097 A    
C92   H76   1.118953 S    
C45   H37   1.113509 S    
C86   H94   1.112868 S    
C193  H121  1.109821 S    
O56   C152  1.281218 A    
C20   C184  1.399998 A    
C178  N8    1.369622 A    
O53   Zn11  2.029392 S    
C46   H30   1.113080 S    
O41   Zn5   2.023930 S    
O46   Zn10  2.023959 S    
C201  H141  1.110736 S    
