data_mof_unit_11340.cif
_audit_creation_date              2012-10-26T20:57:28-0400
_audit_creation_method            fapswitch 2.2
_symmetry_space_group_name_H-M    P1
_symmetry_Int_Tables_number       1
_space_group_crystal_system       triclinic
_cell_length_a                    14.705788
_cell_length_b                    14.653328
_cell_length_c                    15.856736
_cell_angle_alpha                 76.543136
_cell_angle_beta                  102.582113
_cell_angle_gamma                 115.305385
_cell_volume                      2976.9070489

loop_
_atom_site_label
_atom_site_type_symbol
_atom_type_description
_atom_site_fract_x
_atom_site_fract_y
_atom_site_fract_z
_atom_type_partial_charge
C1    C     C_R   0.880054 0.311724 0.515132 0.541935
C2    C     C_R   0.364344 0.913578 0.521371 0.014369
C3    C     C_R   0.681965 0.995011 0.546322 -0.009098
C4    C     C_R   0.328303 0.984590 0.533626 -0.010504
C5    C     C_R   0.539028 0.037526 0.550697 -0.020399
C6    C     C_R   0.470667 0.936304 0.537780 -0.019751
C7    C     C_R   0.512306 0.861910 0.545775 0.256029
C8    C     C_R   0.500525 0.102377 0.572080 0.260075
C9    C     C_R   0.616600 0.892497 0.549620 -0.105029
C10   C     C_R   0.396508 0.077055 0.559731 -0.104745
C11   C     C_R   0.713886 0.664245 0.349774 -0.160314
C12   C     C_R   0.119972 0.688072 0.485989 0.538455
C13   C     C_R   0.291368 0.344626 0.656392 -0.168419
C14   C     C_R   0.795596 0.635258 0.374064 0.041754
C15   C     C_R   0.206391 0.367980 0.628238 0.033624
C16   C     C_R   0.999576 0.499999 0.659970 0.547896
C17   C     C_R   0.000891 0.500657 0.339969 0.550921
C18   C     C_R   0.716707 0.512856 0.491376 0.042144
C19   C     C_R   0.284568 0.489569 0.510223 0.049253
C20   C     C_R   0.631206 0.539293 0.470449 0.002562
C21   C     C_R   0.373781 0.469523 0.535546 0.005613
C22   C     C_R   0.631370 0.616416 0.397454 0.036455
C23   C     C_R   0.785714 0.024444 0.544377 -0.137372
C24   C     C_R   0.375216 0.395042 0.610396 0.027833
C25   C     C_R   0.546091 0.491993 0.518371 0.011806
C26   C     C_R   0.460752 0.520100 0.489881 0.024529
C27   C     C_R   0.465610 0.598185 0.417223 -0.110196
C28   C     C_R   0.543835 0.418369 0.594189 -0.120229
C29   C     C_R   0.549432 0.645432 0.372418 -0.124960
C30   C     C_R   0.460308 0.371604 0.639271 -0.122572
C31   C     C_3   0.009559 0.416155 0.047955 -0.134421
C32   C     C_3   0.997370 0.590827 0.951813 -0.136981
C33   C     C_3   0.924079 0.424189 0.974512 0.302261
C34   C     C_R   0.223642 0.960635 0.523079 -0.136157
C35   C     C_3   0.082976 0.582864 0.025301 0.303100
C36   C     C_1   0.999374 0.500885 0.749441 -0.029120
C37   C     C_1   0.003098 0.502281 0.250337 -0.024380
C38   C     C_3   0.089518 0.496955 0.989416 -0.133185
C39   C     C_3   0.917419 0.509986 0.010272 -0.134862
C40   C     C_3   0.002351 0.503358 0.916707 0.025242
C41   C     C_3   0.004510 0.503624 0.083071 0.025847
C42   C     C_1   0.000211 0.501852 0.824957 -0.031658
C43   C     C_1   0.004577 0.503458 0.174811 -0.028943
C44   C     C_R   0.812829 0.202437 0.527270 -0.016394
C45   C     C_R   0.850994 0.127407 0.536211 -0.134026
C46   C     C_R   0.188396 0.795379 0.489321 -0.016833
C47   C     C_3   0.783375 0.276265 0.009825 0.003344
C48   C     C_3   0.789599 0.172055 0.024535 -0.262145
C49   C     C_3   0.719588 0.094746 0.089563 -0.487999
C50   C     C_3   0.228280 0.726268 0.991274 0.009104
C51   C     C_3   0.330519 0.716210 0.014683 -0.257880
C52   C     C_3   0.400205 0.780335 0.945279 -0.494072
C53   C     C_3   0.427423 0.716101 0.636879 0.005226
C54   C     C_3   0.501481 0.669598 0.691136 -0.265260
C55   C     C_3   0.464329 0.607371 0.777586 -0.482661
C56   C     C_R   0.153925 0.865349 0.503231 -0.133418
C57   C     C_3   0.597949 0.157047 0.699536 0.000933
C58   C     C_3   0.513141 0.107170 0.758329 -0.275680
C59   C     C_3   0.556248 0.093050 0.854669 -0.489468
C60   C     C_R   0.709459 0.172885 0.530322 -0.110226
C61   C     C_R   0.292286 0.823418 0.491307 -0.108594
C62   C     C_R   0.643497 0.069045 0.544357 0.011517
Cu1   Cu    Cu3+1 0.081740 0.475690 0.522610 0.924688
Cu2   Cu    Cu3+1 0.918260 0.524310 0.477390 0.935121
H1    H     H_    0.276456 0.544814 0.454407 0.128149
H2    H     H_    0.994196 0.662680 0.911730 0.102155
H3    H     H_    0.846439 0.513213 0.020084 0.104295
H4    H     H_    0.159703 0.492619 0.979056 0.099696
H5    H     H_    0.646211 0.835139 0.553547 0.126247
H6    H     H_    0.369036 0.128926 0.574151 0.128326
H7    H     H_    0.314562 0.772971 0.469014 0.182055
H8    H     H_    0.680628 0.231864 0.518287 0.184394
H9    H     H_    0.073691 0.845319 0.501570 0.127309
H10   H     H_    0.930722 0.148355 0.534344 0.128587
H11   H     H_    0.816129 0.967852 0.547989 0.104331
H12   H     H_    0.722720 0.454302 0.544853 0.128282
H13   H     H_    0.195784 0.013999 0.533845 0.104908
H14   H     H_    0.549741 0.705021 0.317004 0.107130
H15   H     H_    0.462346 0.316338 0.697566 0.108351
H16   H     H_    0.703162 0.266769 0.988646 0.140397
H17   H     H_    0.806790 0.306041 0.073322 0.116931
H18   H     H_    0.767911 0.142759 0.961324 0.172610
H19   H     H_    0.868963 0.180523 0.049902 0.157820
H20   H     H_    0.740967 0.121747 0.153784 0.151450
H21   H     H_    0.726302 0.020265 0.099013 0.144325
H22   H     H_    0.639412 0.083273 0.064426 0.146277
H23   H     H_    0.141766 0.329770 0.663980 0.127606
H24   H     H_    0.241661 0.807378 0.988756 0.145819
H25   H     H_    0.193852 0.707679 0.924096 0.113096
H26   H     H_    0.368008 0.741763 0.078848 0.172751
H27   H     H_    0.318239 0.634877 0.020541 0.159746
H28   H     H_    0.365208 0.754462 0.880920 0.141784
H29   H     H_    0.473791 0.771849 0.964369 0.143600
H30   H     H_    0.414827 0.862325 0.939121 0.144761
H31   H     H_    0.350175 0.654248 0.630477 0.177555
H32   H     H_    0.422900 0.771588 0.671963 0.117630
H33   H     H_    0.509834 0.619019 0.653572 0.189638
H34   H     H_    0.859724 0.672483 0.337705 0.127751
H35   H     H_    0.577133 0.731664 0.704921 0.150264
H36   H     H_    0.456137 0.656557 0.816729 0.142192
H37   H     H_    0.520054 0.575607 0.815694 0.147702
H38   H     H_    0.390046 0.542885 0.765293 0.156105
H39   H     H_    0.656192 0.227152 0.724468 0.163610
H40   H     H_    0.637069 0.105293 0.704341 0.134547
H41   H     H_    0.469560 0.155561 0.748261 0.160797
H42   H     H_    0.460190 0.030917 0.741121 0.151792
H43   H     H_    0.598314 0.042786 0.866779 0.145844
H44   H     H_    0.493437 0.057382 0.895344 0.136446
H45   H     H_    0.715203 0.723706 0.294062 0.088468
H46   H     H_    0.607949 0.168316 0.874139 0.160995
H47   H     H_    0.291651 0.287697 0.713899 0.085970
H48   H     H_    0.405959 0.625547 0.393423 0.113386
H49   H     H_    0.606282 0.395857 0.621435 0.130105
H50   H     H_    0.013229 0.344651 0.088323 0.101576
N1    N     N_R   0.795440 0.560790 0.443380 -0.234215
N2    N     N_R   0.204560 0.439210 0.556620 -0.238899
O1    O     O_R   0.977900 0.338120 0.529810 -0.501485
O2    O     O_3   0.166190 0.666391 0.057355 -0.560316
O3    O     O_3   0.453952 0.758086 0.551412 -0.601228
O4    O     O_3   0.561633 0.187495 0.611745 -0.604545
O5    O     O_R   0.022100 0.661880 0.470190 -0.502261
O6    O     O_R   0.839850 0.379180 0.491620 -0.504113
O7    O     O_R   0.160150 0.620820 0.508380 -0.510153
O8    O     O_R   0.069010 0.479460 0.640020 -0.503869
O9    O     O_R   0.930990 0.520540 0.359980 -0.497074
O10   O     O_R   0.930960 0.520530 0.601820 -0.497396
O11   O     O_R   0.069040 0.479470 0.398180 -0.495822
O12   O     O_3   0.840233 0.341652 0.941951 -0.567873

loop_
_geom_bond_atom_site_label_1
_geom_bond_atom_site_label_2
_ccdc_geom_bond_type
C21   C26   A    
C34   C56   A    
C23   C45   A    
C22   C29   A    
C11   H45   S    
C36   C42   T    
Cu1   O8    S    
C47   O12   S    
C39   C41   S    
C53   C54   S    
C25   C28   A    
C55   H38   S    
C26   C27   A    
C33   C39   S    
C49   H20   S    
C15   H23   S    
C19   C21   A    
C9    H5    S    
C34   H13   S    
C5    C6    A    
Cu1   O1    S    
C11   C14   A    
C53   H31   S    
C20   C25   A    
C60   H8    S    
Cu2   O5    S    
C59   H46   S    
C27   C29   A    
C60   C62   A    
C32   C39   S    
C1    O6    A    
C1    C44   S    
C51   H27   S    
C3    C23   A    
C29   H14   S    
C55   H36   S    
C31   C33   S    
C54   H33   S    
C52   H30   S    
C31   H50   S    
C2    C61   A    
C50   H24   S    
C61   H7    S    
C40   C42   S    
Cu2   N1    S    
C53   H32   S    
C41   C43   S    
C2    C6    A    
C47   H16   S    
C48   H19   S    
C14   H34   S    
C57   H39   S    
C4    C34   A    
C33   C40   S    
C12   O5    A    
C46   C61   A    
C51   C52   S    
C32   C35   S    
C49   H21   S    
C35   C38   S    
C12   C46   S    
C23   H11   S    
C17   O11   A    
C47   H17   S    
C1    O1    A    
C25   C26   A    
C33   O12   S    
C59   H43   S    
C13   C24   A    
C45   H10   S    
C58   H42   S    
C37   C43   T    
C2    C4    A    
C3    C9    A    
C7    O3    S    
C50   H25   S    
C47   C48   S    
C50   C51   S    
C52   H29   S    
C17   C37   S    
C57   O4    S    
C30   H15   S    
C10   H6    S    
C8    C10   A    
C48   C49   S    
C20   C22   A    
C27   H48   S    
Cu2   O10   S    
C13   C15   A    
C54   H35   S    
C52   H28   S    
Cu1   N2    S    
C4    C10   A    
C44   C45   A    
C8    O4    S    
C32   H2    S    
C3    C62   A    
C7    C9    A    
C57   H40   S    
C54   C55   S    
C18   H12   S    
C56   H9    S    
C31   C41   S    
C50   O2    S    
C39   H3    S    
C49   H22   S    
C38   H4    S    
C18   N1    A    
C5    C8    A    
Cu1   O7    S    
C53   O3    S    
C6    C7    A    
C55   H37   S    
C11   C22   A    
C59   H44   S    
C31   C38   S    
C58   H41   S    
C28   C30   A    
C58   C59   S    
C51   H26   S    
C16   C36   S    
C38   C40   S    
C17   O9    A    
C57   C58   S    
C12   O7    A    
C19   N2    A    
C44   C60   A    
Cu2   O6    S    
C48   H18   S    
C5    C62   A    
C19   H1    S    
C18   C20   A    
C32   C40   S    
C16   O8    A    
C35   C41   S    
C24   C30   A    
C28   H49   S    
Cu1   Cu2   S    
C13   H47   S    
Cu2   O9    S    
C21   C24   A    
C46   C56   A    
C15   N2    A    
C35   O2    S    
C16   O10   A    
Cu1   O11   S    
C14   N1    A    
