data_mof_unit_34778.cif
_audit_creation_date              2012-12-10T17:09:50-0500
_audit_creation_method            fapswitch 2.2
_symmetry_space_group_name_H-M    P1
_symmetry_Int_Tables_number       1
_space_group_crystal_system       triclinic
_cell_length_a                    10.985467
_cell_length_b                    13.13363
_cell_length_c                    11.800135
_cell_angle_alpha                 98.289709
_cell_angle_beta                  92.356558
_cell_angle_gamma                 92.402483
_cell_volume                      1681.32699845

loop_
_atom_site_label
_atom_site_type_symbol
_atom_type_description
_atom_site_fract_x
_atom_site_fract_y
_atom_site_fract_z
_atom_type_partial_charge
C1    C     C_R   0.502917 0.299200 0.480096 0.866450
C2    C     C_R   0.065440 0.463775 0.595138 0.009539
C3    C     C_R   0.126789 0.498651 0.502988 -0.155324
C4    C     C_R   0.056406 0.526696 0.409607 -0.029064
C5    C     C_R   0.929917 0.512724 0.405904 -0.133987
C6    C     C_R   0.868850 0.479750 0.496099 -0.100433
C7    C     C_R   0.473659 0.809890 0.529494 -0.127848
C8    C     C_R   0.508041 0.184749 0.470800 -0.082997
C9    C     C_R   0.490832 0.017676 0.349955 -0.209946
C10   C     C_R   0.514831 0.123639 0.361613 -0.039362
C11   C     C_R   0.503913 0.133554 0.569750 -0.024013
C12   C     C_R   0.262174 0.501639 0.501434 0.781031
C13   C     C_R   0.487043 0.025498 0.556566 0.097748
C14   C     C_R   0.475170 0.967998 0.445700 0.088610
C15   C     C_R   0.455153 0.860547 0.432821 0.127207
C16   C     C_R   0.477197 0.867224 0.638939 -0.165568
C17   C     C_R   0.478417 0.973218 0.652384 -0.116246
C18   C     C_R   0.409435 0.385215 0.025783 0.032405
C19   C     C_R   0.405869 0.403000 0.146279 0.110693
C20   C     C_R   0.543061 0.549600 0.154685 0.327499
C21   C     C_R   0.530556 0.545803 0.032624 -0.030457
C22   C     C_R   0.467340 0.459476 0.967741 -0.005250
C23   C     C_R   0.490597 0.698948 0.519784 0.838453
C24   C     C_R   0.459685 0.452022 0.846335 0.046287
C25   C     C_R   0.592325 0.599141 0.851655 0.111270
C26   C     C_R   0.584516 0.621150 0.971512 -0.136503
C27   C     C_R   0.736348 0.492389 0.498286 0.851235
C28   C     C_R   0.128913 0.435501 0.690989 0.129722
C29   C     C_R   0.067848 0.441211 0.793214 0.212599
C30   C     C_R   0.943647 0.417521 0.786996 -0.268969
C31   C     C_R   0.881822 0.406566 0.680372 -0.069031
C32   C     C_R   0.936627 0.449576 0.589478 0.076447
Cu1   Cu    Cu3+1 0.509250 0.507730 0.615930 0.970234
Cu2   Cu    Cu3+1 0.490750 0.492270 0.384070 1.036301
H1    H     H_    0.476705 0.012753 0.739179 0.201851
H2    H     H_    0.401176 0.393941 0.796264 0.160584
H3    H     H_    0.897495 0.403244 0.862990 0.180941
H4    H     H_    0.877933 0.535089 0.334859 0.211371
H5    H     H_    0.478166 0.830349 0.715220 0.224568
H6    H     H_    0.494637 0.973099 0.265611 0.196410
N1    N     N_R   0.523180 0.519350 0.790130 -0.236219
N2    N     N_R   0.476820 0.480650 0.209890 -0.239801
O1    O     O_R   0.506570 0.354460 0.582000 -0.620469
O2    O     O_R   0.490940 0.341410 0.386200 -0.583646
O3    O     O_R   0.327470 0.506530 0.597920 -0.570618
O4    O     O_R   0.311840 0.493480 0.402120 -0.579979
O5    O     O_R   0.509060 0.658590 0.613800 -0.567435
O6    O     O_R   0.493430 0.645540 0.418000 -0.554755
O7    O     O_R   0.688160 0.506520 0.597880 -0.642934
O8    O     O_R   0.672530 0.493470 0.402080 -0.543920
C33   C     C_2   0.110260 0.581228 0.320316 0.510292
H7    H     H_    0.196655 0.623979 0.337371 0.088407
O9    O     O_2   0.056634 0.581672 0.227687 -0.484895
C34   C     C_2   0.558045 0.163717 0.258283 0.412539
H8    H     H_    0.519931 0.130683 0.173988 0.080242
O10   O     O_2   0.642336 0.228318 0.265393 -0.475877
C35   C     C_2   0.523208 0.189681 0.687601 0.386064
H9    H     H_    0.461176 0.246272 0.719977 0.107460
O11   O     O_2   0.606812 0.169224 0.750696 -0.522808
C36   C     C_2   0.679853 0.660988 0.794129 0.401237
H10   H     H_    0.759397 0.626046 0.757361 0.086845
O12   O     O_2   0.668234 0.752931 0.793701 -0.550056
I1    I     I_    0.328973 0.242645 0.937728 -0.323260
C37   C     C_2   0.618470 0.728185 0.024383 0.489775
H11   H     H_    0.710646 0.759824 0.019359 0.101859
O13   O     O_2   0.541874 0.783339 0.068725 -0.490120
C38   C     C_2   0.321775 0.337895 0.202044 0.545713
H12   H     H_    0.349630 0.265051 0.224475 0.031755
O14   O     O_2   0.216635 0.361844 0.215228 -0.491371
I2    I     I_    0.685694 0.648847 0.247899 -0.271434
I3    I     I_    0.204204 0.290049 0.644501 -0.319305
I4    I     I_    0.151775 0.501052 0.953081 -0.201564
C39   C     C_2   0.773756 0.336156 0.663435 0.505697
H13   H     H_    0.712540 0.334423 0.732724 0.091659
O15   O     O_2   0.755803 0.277369 0.573788 -0.519432
I5    I     I_    0.366171 0.783822 0.276756 -0.244104

loop_
_geom_bond_atom_site_label_1
_geom_bond_atom_site_label_2
_ccdc_geom_bond_type
C6    C32   A    
C21   C26   A    
C1    C8    S    
Cu1   O3    S    
C39   H13   S    
Cu2   N2    S    
C24   H2    S    
C36   O12   D    
C28   C29   A    
C5    C6    A    
C18   I1    S    
C35   O11   D    
Cu1   O7    S    
C2    C32   A    
C18   C19   A    
C26   C37   S    
C3    C12   S    
C21   C22   A    
C1    O1    A    
C31   C32   A    
C16   C17   A    
C19   C38   S    
Cu2   O4    S    
C25   C36   S    
C9    C10   A    
C27   O8    A    
C29   I4    S    
C7    C15   A    
C15   I5    S    
C13   C14   A    
C24   N1    A    
C39   O15   D    
C20   I2    S    
C34   O10   D    
Cu2   O8    S    
C23   O5    A    
C4    C33   S    
C33   H7    S    
Cu1   O1    S    
Cu2   O2    S    
C12   O4    A    
C25   N1    A    
C12   O3    A    
C25   C26   A    
C9    H6    S    
C38   H12   S    
C30   H3    S    
C36   H10   S    
C33   O9    D    
C37   O13   D    
C9    C14   A    
C29   C30   A    
C1    O2    A    
C6    C27   S    
Cu1   Cu2   S    
C7    C16   A    
C5    H4    S    
Cu1   O5    S    
C22   C24   A    
C28   I3    S    
Cu2   O6    S    
C3    C4    A    
C34   H8    S    
C23   O6    A    
C18   C22   A    
C4    C5    A    
C20   N2    A    
C19   N2    A    
C13   C17   A    
Cu1   N1    S    
C37   H11   S    
C2    C3    A    
C11   C13   A    
C35   H9    S    
C30   C31   A    
C8    C11   A    
C7    C23   S    
C10   C34   S    
C31   C39   S    
C16   H5    S    
C20   C21   A    
C8    C10   A    
C14   C15   A    
C2    C28   A    
C17   H1    S    
C38   O14   D    
C11   C35   S    
C27   O7    A    
