data_mof_unit_51065.cif
_audit_creation_date              2012-10-26T19:24:16-0400
_audit_creation_method            fapswitch 2.2
_symmetry_space_group_name_H-M    P1
_symmetry_Int_Tables_number       1
_space_group_crystal_system       triclinic
_cell_length_a                    27.793559
_cell_length_b                    10.813084
_cell_length_c                    9.603866
_cell_angle_alpha                 88.432865
_cell_angle_beta                  89.781242
_cell_angle_gamma                 93.01157
_cell_volume                      2881.18499119

loop_
_atom_site_label
_atom_site_type_symbol
_atom_type_description
_atom_site_fract_x
_atom_site_fract_y
_atom_site_fract_z
_atom_type_partial_charge
C1    C     C_R   0.497802 0.262746 0.502050 0.546893
C2    C     C_R   0.972609 0.397684 0.546534 0.022905
C3    C     C_R   0.976791 0.622205 0.489278 0.004624
C4    C     C_R   0.407538 0.500363 0.500263 0.533760
C5    C     C_R   0.949415 0.509171 0.516027 -0.007228
C6    C     C_R   0.943948 0.286401 0.564070 -0.139579
C7    C     C_R   0.894027 0.285406 0.557573 -0.115077
C8    C     C_R   0.870765 0.395288 0.533247 0.031771
C9    C     C_R   0.898318 0.507468 0.512766 -0.046116
C10   C     C_R   0.874647 0.617809 0.488989 -0.035382
C11   C     C_R   0.824091 0.614095 0.485256 0.435329
C12   C     C_R   0.278707 0.506875 0.377049 -0.057438
C13   C     C_R   0.820317 0.395549 0.528072 0.373460
C14   C     C_R   0.722107 0.524576 0.374971 0.321885
C15   C     C_R   0.671625 0.525868 0.376013 -0.136753
C16   C     C_R   0.498280 0.737506 0.497880 0.560235
C17   C     C_R   0.670178 0.476255 0.623780 -0.164974
C18   C     C_R   0.720274 0.477133 0.624066 -0.110238
C19   C     C_R   0.746418 0.502107 0.500638 0.252536
C20   C     C_R   0.023550 0.400537 0.556757 0.019379
C21   C     C_R   0.050867 0.509565 0.514210 0.025261
C22   C     C_R   0.027641 0.618492 0.473264 0.010568
C23   C     C_R   0.253748 0.508520 0.503887 0.243391
C24   C     C_R   0.048317 0.297594 0.607205 -0.140805
C25   C     C_R   0.106031 0.716133 0.406996 -0.130156
C26   C     C_R   0.951808 0.734308 0.481955 0.247261
C27   C     C_R   0.901658 0.729942 0.474702 -0.089569
C28   C     C_R   0.592450 0.500324 0.499831 0.552085
C29   C     C_R   0.056067 0.717955 0.412218 -0.132887
C30   C     C_R   0.422638 0.113407 0.656648 -0.101981
C31   C     C_R   0.386149 0.040999 0.723892 -0.118290
C32   C     C_R   0.385126 0.912599 0.716709 -0.119884
C33   C     C_R   0.421080 0.855566 0.644395 -0.105809
C34   C     C_R   0.101943 0.509163 0.510894 -0.027839
C35   C     C_R   0.458684 0.926846 0.575936 -0.021993
C36   C     C_R   0.459180 0.057763 0.581341 0.008384
C37   C     C_R   0.495055 0.128901 0.505676 -0.045793
C38   C     C_R   0.526757 0.072669 0.418741 -0.135465
C39   C     C_R   0.523220 0.945707 0.401587 0.244370
C40   C     C_R   0.176066 0.406060 0.555544 0.396990
C41   C     C_R   0.493537 0.871435 0.492965 0.003416
C42   C     C_R   0.569472 0.649443 0.138440 -0.082955
C43   C     C_R   0.606237 0.713837 0.064394 -0.174864
C44   C     C_R   0.605390 0.717431 0.920834 -0.189607
C45   C     C_R   0.125547 0.404148 0.558689 0.025552
C46   C     C_R   0.568704 0.653219 0.851116 -0.092472
C47   C     C_R   0.533978 0.574409 0.922639 0.156232
C48   C     C_R   0.534206 0.573355 0.072033 0.134299
C49   C     C_R   0.467609 0.429174 0.076433 -0.008040
C50   C     C_R   0.467708 0.428934 0.928557 -0.009236
C51   C     C_R   0.179942 0.611288 0.457008 0.398153
C52   C     C_R   0.279245 0.507948 0.629340 -0.060553
C53   C     C_R   0.329329 0.505295 0.628203 -0.156505
C54   C     C_R   0.328826 0.504112 0.375590 -0.144041
C55   C     C_3   0.989112 0.876787 0.623963 0.001539
C56   C     C_R   0.098342 0.299762 0.608482 -0.113729
C57   C     C_3   0.946826 0.921054 0.709468 -0.276380
C58   C     C_3   0.963924 0.975031 0.846957 -0.470658
C59   C     C_3   0.533780 0.939094 0.164243 0.005448
C60   C     C_3   0.484307 0.880759 0.124758 -0.270402
C61   C     C_3   0.472350 0.909402 0.973151 -0.469290
C62   C     C_3   0.741142 0.469834 0.151642 -0.002567
C63   C     C_3   0.778846 0.371912 0.164677 -0.264701
C64   C     C_3   0.776561 0.285410 0.041668 -0.465983
C65   C     C_R   0.129461 0.613413 0.458764 0.024744
C66   C     C_R   0.354604 0.503011 0.501263 0.001277
C67   C     C_R   0.645403 0.500421 0.499717 -0.035113
Cu1   Cu    Cu3+1 0.500000 0.499990 0.640660 0.909950
Cu2   Cu    Cu3+1 0.500000 0.500010 0.359340 0.922256
H1    H     H_    0.347305 0.502577 0.276219 0.126277
H2    H     H_    0.358147 0.084815 0.780157 0.123690
H3    H     H_    0.259183 0.506839 0.279691 0.129352
H4    H     H_    0.356323 0.856801 0.767378 0.121584
H5    H     H_    0.417897 0.755844 0.638558 0.144265
H6    H     H_    0.441075 0.371005 0.133593 0.117125
H7    H     H_    0.568900 0.667080 0.246617 0.220933
H8    H     H_    0.633511 0.768706 0.118851 0.153378
H9    H     H_    0.632263 0.774183 0.863028 0.136486
H10   H     H_    0.568941 0.670498 0.741725 0.189615
H11   H     H_    0.441281 0.370524 0.875452 0.105664
H12   H     H_    0.260164 0.509444 0.727748 0.128266
H13   H     H_    0.115616 0.218507 0.647987 0.163170
H14   H     H_    0.653141 0.548693 0.280502 0.127263
H15   H     H_    0.873717 0.197605 0.571481 0.162228
H16   H     H_    0.959227 0.197557 0.578676 0.113587
H17   H     H_    0.029992 0.214644 0.649732 0.100813
H18   H     H_    0.348178 0.504928 0.726691 0.122716
H19   H     H_    0.017770 0.952365 0.617338 0.155122
H20   H     H_    0.005389 0.796779 0.678306 0.134908
H21   H     H_    0.928058 0.992647 0.648592 0.172212
H22   H     H_    0.920631 0.841905 0.732456 0.163665
H23   H     H_    0.126213 0.795451 0.360817 0.167734
H24   H     H_    0.982487 0.904408 0.909967 0.158802
H25   H     H_    0.932453 0.004343 0.906968 0.163027
H26   H     H_    0.988984 0.057138 0.827415 0.143136
H27   H     H_    0.560675 0.915766 0.085378 0.162518
H28   H     H_    0.533169 0.041779 0.156464 0.121492
H29   H     H_    0.483728 0.778914 0.140710 0.201893
H30   H     H_    0.455968 0.916913 0.192209 0.157253
H31   H     H_    0.471092 0.010973 0.954092 0.158539
H32   H     H_    0.436585 0.864762 0.949977 0.160566
H33   H     H_    0.499506 0.871806 0.902816 0.166731
H34   H     H_    0.650886 0.456737 0.720772 0.144591
H35   H     H_    0.745896 0.519083 0.049050 0.160036
H36   H     H_    0.704220 0.424243 0.151430 0.111529
H37   H     H_    0.815443 0.418317 0.169234 0.185812
H38   H     H_    0.772387 0.316223 0.262464 0.199802
H39   H     H_    0.740375 0.237110 0.035975 0.158894
H40   H     H_    0.803949 0.214924 0.054942 0.166463
H41   H     H_    0.784155 0.338509 0.942638 0.157828
H42   H     H_    0.883923 0.816522 0.463376 0.177692
H43   H     H_    0.738955 0.459292 0.720737 0.124187
H44   H     H_    0.040439 0.796458 0.361910 0.183991
H45   H     H_    0.553427 0.128729 0.358987 0.134735
H46   H     H_    0.420959 0.212834 0.661216 0.129821
N1    N     N_R   0.202136 0.508756 0.505547 -0.398147
N2    N     N_R   0.798078 0.503886 0.503617 -0.379329
N3    N     N_R   0.500460 0.501210 0.147910 -0.252119
N4    N     N_R   0.500480 0.501290 0.852040 -0.241972
O1    O     O_R   0.500000 0.319640 0.618810 -0.497418
O2    O     O_R   0.569730 0.499970 0.618800 -0.513993
O3    O     O_R   0.569740 0.499990 0.381230 -0.522554
O4    O     O_2   0.198985 0.305679 0.600824 -0.498939
O5    O     O_3   0.974934 0.850665 0.485849 -0.593502
O6    O     O_3   0.549165 0.893812 0.296547 -0.577152
O7    O     O_3   0.748320 0.558990 0.255833 -0.536853
O8    O     O_2   0.793662 0.288352 0.546739 -0.519076
O9    O     O_2   0.206653 0.711183 0.408404 -0.497389
O10   O     O_2   0.801062 0.719883 0.464970 -0.468803
O11   O     O_R   0.500000 0.319660 0.381240 -0.499274
O12   O     O_R   0.430260 0.500010 0.618770 -0.520258
O13   O     O_R   0.430270 0.500030 0.381200 -0.506960
O14   O     O_R   0.500000 0.680340 0.618760 -0.536675
O15   O     O_R   0.500000 0.680360 0.381190 -0.492578

loop_
_geom_bond_atom_site_label_1
_geom_bond_atom_site_label_2
_ccdc_geom_bond_type
C10   C27   A    
Cu2   O15   S    
C39   O6    S    
C22   C29   A    
C35   C36   A    
C43   C44   A    
C60   H30   S    
C16   O15   A    
C64   H40   S    
C7    C8    A    
C39   C41   A    
C62   H36   S    
C31   C32   A    
C12   C23   A    
C26   C27   A    
C37   C38   A    
C6    H16   S    
C51   O9    S    
C36   C37   A    
C58   H24   S    
C18   H43   S    
Cu2   O11   S    
C60   H29   S    
Cu1   N4    S    
C30   C31   A    
C38   H45   S    
C28   O3    A    
C13   N2    A    
Cu2   N3    S    
C18   C19   A    
C51   C65   A    
C55   H19   S    
C23   N1    S    
C46   C47   A    
C46   H10   S    
C20   C24   A    
C45   C56   A    
C8    C9    A    
C49   H6    S    
C9    C10   A    
C1    C37   S    
C47   N4    A    
C7    H15   S    
C12   H3    S    
C27   H42   S    
C59   C60   S    
C21   C22   A    
C2    C6    A    
C26   O5    S    
C16   O14   A    
C11   O10   S    
C34   C65   A    
C44   C46   A    
C64   H39   S    
C4    O12   A    
C62   H35   S    
C30   H46   S    
C25   C29   A    
C40   C45   A    
C17   C67   A    
C57   H21   S    
C2    C20   A    
C50   N4    A    
C47   C48   A    
C28   C67   S    
C25   C65   A    
C4    O13   A    
C1    O11   A    
C32   H4    S    
C62   O7    S    
C28   O2    A    
Cu1   Cu2   S    
C15   H14   S    
C21   C34   A    
C60   C61   S    
C1    O1    A    
C13   O8    S    
Cu1   O12   S    
C61   H32   S    
C58   H26   S    
C5    C9    A    
C62   C63   S    
C64   H41   S    
C49   N3    A    
C54   H1    S    
C15   C67   A    
C17   C18   A    
C53   H18   S    
C34   C45   A    
C42   C48   A    
C63   H37   S    
C53   C66   A    
C55   C57   S    
C59   H28   S    
C61   H31   S    
C24   C56   A    
C42   C43   A    
C63   H38   S    
C11   N2    A    
C52   C53   A    
C40   O4    S    
C29   H44   S    
C55   O5    S    
Cu1   O14   S    
C25   H23   S    
C57   H22   S    
C14   C19   A    
C3    C26   A    
C3    C5    A    
C50   H11   S    
Cu1   O2    S    
C40   N1    A    
C48   N3    A    
C56   H13   S    
C6    C7    A    
C54   C66   A    
C43   H8    S    
C42   H7    S    
C51   N1    A    
C14   O7    S    
C30   C36   A    
C32   C33   A    
C44   H9    S    
C61   H33   S    
C58   H25   S    
C55   H20   S    
C59   O6    S    
Cu1   O1    S    
C4    C66   S    
C23   C52   A    
C38   C39   A    
Cu2   O3    S    
Cu2   O13   S    
C31   H2    S    
C33   C35   A    
C17   H34   S    
C52   H12   S    
C35   C41   A    
C10   C11   A    
C63   C64   S    
C2    C5    A    
C8    C13   A    
C33   H5    S    
C20   C21   A    
C19   N2    S    
C49   C50   A    
C59   H27   S    
C14   C15   A    
C3    C22   A    
C57   C58   S    
C24   H17   S    
C16   C41   S    
C12   C54   A    
