data_mof_unit_13641.cif
_audit_creation_date              2012-12-10T17:19:55-0500
_audit_creation_method            fapswitch 2.2
_symmetry_space_group_name_H-M    P1
_symmetry_Int_Tables_number       1
_space_group_crystal_system       triclinic
_cell_length_a                    9.629796
_cell_length_b                    10.905875
_cell_length_c                    15.540733
_cell_angle_alpha                 86.629007
_cell_angle_beta                  73.829169
_cell_angle_gamma                 90.938922
_cell_volume                      1563.90921782

loop_
_atom_site_label
_atom_site_type_symbol
_atom_type_description
_atom_site_fract_x
_atom_site_fract_y
_atom_site_fract_z
_atom_type_partial_charge
C1    C     C_R   0.994116 0.262745 0.512076 0.828643
C2    C     C_R   0.675749 0.486563 0.909945 0.038880
C3    C     C_R   0.776504 0.520797 0.956600 0.107278
C4    C     C_R   0.527426 0.462554 0.957632 0.024242
C5    C     C_R   0.478745 0.486388 0.049796 0.022658
C6    C     C_R   0.582316 0.519611 0.094218 -0.297600
C7    C     C_R   0.729292 0.536946 0.048711 0.366547
C8    C     C_R   0.427399 0.412187 0.916510 -0.293632
C9    C     C_R   0.280910 0.391921 0.962646 0.366644
C10   C     C_R   0.230754 0.422785 0.051962 0.096519
C11   C     C_R   0.328392 0.472520 0.095562 0.042203
C12   C     C_R   0.917891 0.500129 0.671884 0.795893
C13   C     C_R   0.083675 0.402901 0.099193 -0.093250
C14   C     C_R   0.032942 0.430748 0.188591 -0.181289
C15   C     C_R   0.271808 0.506892 0.184061 -0.217934
C16   C     C_R   0.230434 0.120583 0.555519 -0.161072
C17   C     C_R   0.368130 0.074160 0.529455 -0.256011
C18   C     C_R   0.390646 0.967863 0.482084 0.455447
C19   C     C_R   0.270902 0.903466 0.471315 -0.134831
C20   C     C_R   0.129393 0.945015 0.502787 0.003956
C21   C     C_R   0.114974 0.065300 0.530704 0.027022
C22   C     C_R   0.988023 0.127630 0.529755 -0.143207
C23   C     C_R   0.002123 0.738747 0.498713 0.790539
C24   C     C_R   0.860916 0.058320 0.536411 0.398204
C25   C     C_R   0.869050 0.931610 0.525570 -0.292022
C26   C     C_R   0.002828 0.874113 0.504758 -0.138010
C27   C     C_R   0.705577 0.653029 0.372342 -0.126765
C28   C     C_R   0.666104 0.722160 0.305710 -0.156815
C29   C     C_R   0.524483 0.718305 0.302820 -0.191781
C30   C     C_R   0.421405 0.647035 0.367567 -0.178512
C31   C     C_R   0.456848 0.571983 0.435009 0.232879
C32   C     C_R   0.605467 0.573616 0.436182 0.208810
C33   C     C_R   0.544637 0.431601 0.561990 -0.037787
C34   C     C_R   0.081961 0.497730 0.328319 0.779283
C35   C     C_R   0.396735 0.433211 0.562799 -0.073434
C36   C     C_R   0.872353 0.502424 0.770111 -0.058785
C37   C     C_R   0.127388 0.481974 0.231533 -0.055795
C38   C     C_R   0.923988 0.539289 0.909947 -0.099074
C39   C     C_R   0.971652 0.528633 0.817712 -0.199190
C40   C     C_R   0.726186 0.481860 0.816136 -0.216618
Cu1   Cu    Cu3+1 0.140660 0.499990 0.500010 0.937180
Cu2   Cu    Cu3+1 0.859340 0.500010 0.499990 0.959202
H1    H     H_    0.007586 0.363390 0.067836 0.200448
H2    H     H_    0.214795 0.200093 0.594749 0.156955
H3    H     H_    0.770159 0.878576 0.532046 0.183107
H4    H     H_    0.814973 0.667590 0.372052 0.191497
H5    H     H_    0.745431 0.781353 0.257311 0.160135
H6    H     H_    0.337477 0.553993 0.218213 0.145087
H7    H     H_    0.492649 0.775200 0.252517 0.154835
H8    H     H_    0.317645 0.380397 0.615473 0.118566
H9    H     H_    0.003178 0.563354 0.944347 0.198295
H10   H     H_    0.085464 0.544660 0.783393 0.163699
H11   H     H_    0.553361 0.528892 0.165461 0.147102
H12   H     H_    0.461010 0.382358 0.849257 0.130627
N1    N     N_R   0.648320 0.501210 0.499140 -0.203299
N2    N     N_R   0.352470 0.501290 0.499110 -0.195410
O1    O     O_R   0.118810 0.319640 0.500010 -0.589352
O2    O     O_R   0.881240 0.319660 0.500000 -0.515158
O3    O     O_R   0.055570 0.499980 0.629840 -0.588754
O4    O     O_R   0.818000 0.500010 0.629830 -0.586687
O5    O     O_R   0.118760 0.680340 0.500000 -0.598362
O6    O     O_R   0.881190 0.680360 0.499990 -0.592477
O7    O     O_R   0.182000 0.499990 0.370170 -0.596232
O8    O     O_R   0.944430 0.500020 0.370160 -0.605101
O9    O     O_3   0.828191 0.572608 0.092837 -0.761781
H13   H     H_    0.778406 0.578622 0.157378 0.326130
O10   O     O_3   0.729689 0.114626 0.557219 -0.743795
H14   H     H_    0.652220 0.050207 0.579750 0.306699
H15   H     H_    0.456434 0.123967 0.543265 0.158665
O11   O     O_3   0.526617 0.924040 0.446234 -0.741869
H16   H     H_    0.599477 0.986430 0.451011 0.328395
H17   H     H_    0.291219 0.827297 0.431723 0.160657
H18   H     H_    0.575471 0.375299 0.612879 0.147739
H19   H     H_    0.313845 0.662032 0.365692 0.178538
H20   H     H_    0.920708 0.409756 0.224564 0.164593
O12   O     O_3   0.185025 0.341584 0.921534 -0.754486
H21   H     H_    0.236332 0.327539 0.858296 0.320405
H22   H     H_    0.652795 0.466714 0.776513 0.151974

loop_
_geom_bond_atom_site_label_1
_geom_bond_atom_site_label_2
_ccdc_geom_bond_type
C33   N1    A    
C28   H5    S    
C17   H15   S    
C16   C21   A    
Cu2   O8    S    
C34   C37   S    
Cu1   Cu2   S    
C19   C20   A    
Cu1   O5    S    
C4    C8    A    
Cu2   O2    S    
C29   H7    S    
C28   C29   A    
C5    C11   A    
C3    C7    A    
C5    C6    A    
C30   H19   S    
C18   C19   A    
C23   C26   S    
C15   C37   A    
C24   O10   S    
C12   O3    A    
C11   C15   A    
C23   O6    A    
C3    C38   A    
C8    C9    A    
O11   H16   S    
C9    O12   S    
C31   N2    A    
C12   C36   S    
C9    C10   A    
C16   H2    S    
C32   N1    A    
C39   H10   S    
C27   C32   A    
C1    C22   S    
C13   C14   A    
C19   H17   S    
C15   H6    S    
C38   C39   A    
O10   H14   S    
C36   C40   A    
O12   H21   S    
Cu1   O3    S    
C8    H12   S    
C16   C17   A    
C38   H9    S    
C25   C26   A    
C2    C4    A    
Cu1   N2    S    
C29   C30   A    
C1    O1    A    
Cu2   N1    S    
C7    O9    S    
C31   C32   A    
C35   H8    S    
C34   O8    A    
C17   C18   A    
C24   C25   A    
C27   H4    S    
C33   H18   S    
C22   C24   A    
Cu1   O7    S    
C6    H11   S    
Cu2   O4    S    
C25   H3    S    
C13   H1    S    
Cu2   O6    S    
C35   N2    A    
C36   C39   A    
C4    C5    A    
C10   C13   A    
C6    C7    A    
C18   O11   S    
C14   H20   S    
C2    C3    A    
Cu1   O1    S    
C1    O2    A    
C14   C37   A    
C30   C31   A    
C20   C26   A    
C34   O7    A    
C33   C35   A    
C40   H22   S    
C10   C11   A    
C12   O4    A    
C2    C40   A    
C23   O5    A    
C20   C21   A    
O9    H13   S    
C27   C28   A    
C21   C22   A    
