data_mof_unit_33368.cif
_audit_creation_date              2012-10-26T20:18:41-0400
_audit_creation_method            fapswitch 2.2
_symmetry_space_group_name_H-M    P1
_symmetry_Int_Tables_number       1
_space_group_crystal_system       triclinic
_cell_length_a                    11.011741
_cell_length_b                    11.278497
_cell_length_c                    9.925726
_cell_angle_alpha                 108.283941
_cell_angle_beta                  96.072962
_cell_angle_gamma                 98.539238
_cell_volume                      1142.17891189

loop_
_atom_site_label
_atom_site_type_symbol
_atom_type_description
_atom_site_fract_x
_atom_site_fract_y
_atom_site_fract_z
_atom_type_partial_charge
C1    C     C_R   0.493277 0.255453 0.443086 0.522478
C2    C     C_2   0.486526 0.487443 0.924088 0.093459
C3    C     C_R   0.259722 0.499155 0.502017 0.536563
C4    C     C_R   0.516790 0.743191 0.555709 0.579953
C5    C     C_R   0.738356 0.495760 0.498671 0.568558
C6    C     C_3   0.076523 0.452618 0.637591 0.059027
C7    C     C_3   0.935225 0.476674 0.654021 0.022302
C8    C     C_3   0.090597 0.627328 0.515160 -0.236689
C9    C     C_3   0.038331 0.400826 0.361790 -0.258280
C10   C     C_3   0.120107 0.494580 0.506750 0.005966
C11   C     C_2   0.156054 0.531736 0.785998 0.589717
C12   C     C_3   0.876238 0.494910 0.505327 -0.031861
C13   C     C_2   0.494764 0.126057 0.668213 0.567937
C14   C     C_2   0.661358 0.952641 0.687257 0.634209
C15   C     C_3   0.498273 0.042088 0.254947 -0.279828
C16   C     C_3   0.627080 0.070674 0.215300 -0.407197
C17   C     C_3   0.379411 0.378696 0.834497 -0.239765
C18   C     C_3   0.296072 0.289236 0.893358 -0.431093
C19   C     C_2   0.600587 0.630619 0.172924 0.630468
C20   C     C_3   0.083070 0.304109 0.601705 -0.293688
C21   C     C_3   0.185846 0.239584 0.530600 -0.446203
C22   C     C_3   0.853898 0.361783 0.690876 -0.236494
C23   C     C_3   0.947364 0.619826 0.484213 -0.065537
C24   C     C_3   0.891608 0.347400 0.839724 -0.359457
C25   C     C_2   0.930193 0.600907 0.780715 0.627665
C26   C     C_2   0.908374 0.745560 0.555434 0.620027
C27   C     C_3   0.897841 0.384347 0.375111 -0.299317
C28   C     C_2   0.496526 0.117789 0.411707 -0.032241
C29   C     C_2   0.500151 0.061707 0.515732 0.063384
C30   C     C_2   0.551453 0.877457 0.576991 0.084938
C31   C     C_2   0.493558 0.924203 0.483400 -0.148728
C32   C     C_2   0.504562 0.520910 0.082546 0.167257
Cu1   Cu    Cu3+1 0.522160 0.521810 0.644910 1.037676
Cu2   Cu    Cu3+1 0.477840 0.478190 0.355090 0.982031
H1    H     H_    0.844759 0.384124 0.273123 0.154436
H2    H     H_    0.862289 0.290646 0.384542 0.111903
H3    H     H_    0.194839 0.554843 0.997111 0.348565
H4    H     H_    0.585057 0.245711 0.861208 0.318929
H5    H     H_    0.821422 0.079950 0.736282 0.320697
H6    H     H_    0.650926 0.171737 0.221982 0.159792
H7    H     H_    0.698634 0.051193 0.288961 0.157857
H8    H     H_    0.628084 0.009534 0.103449 0.202427
H9    H     H_    0.470545 0.938447 0.229245 0.194184
H10   H     H_    0.428647 0.066195 0.183329 0.176884
H11   H     H_    0.346428 0.223481 0.928302 0.183340
H12   H     H_    0.133617 0.660174 0.433230 0.114964
H13   H     H_    0.247482 0.340919 0.978950 0.199195
H14   H     H_    0.224000 0.222309 0.806889 0.161316
H15   H     H_    0.317492 0.420055 0.783400 0.208048
H16   H     H_    0.413997 0.316204 0.751046 0.210124
H17   H     H_    0.650085 0.820305 0.264483 0.342184
H18   H     H_    0.164439 0.201241 0.412079 0.136642
H19   H     H_    0.278181 0.298216 0.559213 0.169445
H20   H     H_    0.192647 0.154072 0.561537 0.162241
H21   H     H_    0.080209 0.281015 0.699771 0.171129
H22   H     H_    0.000167 0.244124 0.526551 0.148276
H23   H     H_    0.924830 0.607515 0.367835 0.145021
H24   H     H_    0.930570 0.438323 0.926592 0.231887
H25   H     H_    0.808955 0.306244 0.876084 0.172603
H26   H     H_    0.955616 0.280977 0.838665 0.126879
H27   H     H_    0.756729 0.370308 0.693302 0.252092
H28   H     H_    0.839077 0.268363 0.605592 0.133827
H29   H     H_    0.851138 0.686652 0.951420 0.346048
H30   H     H_    0.959905 0.931812 0.675341 0.346842
H31   H     H_    0.421176 0.861109 0.397039 0.140425
H32   H     H_    0.622084 0.631198 0.926360 0.252122
H33   H     H_    0.463788 0.356090 0.097277 0.213511
H34   H     H_    0.134710 0.699880 0.619136 0.245796
H35   H     H_    0.052895 0.440143 0.273561 0.146367
H36   H     H_    0.063520 0.306818 0.322909 0.138311
N1    N     N_2   0.444530 0.445420 0.137360 -0.402822
N2    N     N_2   0.555520 0.554510 0.862630 -0.322588
O1    O     O_R   0.511820 0.332340 0.577400 -0.523078
O2    O     O_R   0.142870 0.492559 0.904589 -0.763929
O3    O     O_2   0.410678 0.083638 0.721303 -0.559107
O4    O     O_R   0.593936 0.219739 0.755770 -0.693085
O5    O     O_2   0.678437 0.935153 0.802757 -0.500081
O6    O     O_R   0.748273 0.039395 0.655605 -0.697143
O7    O     O_2   0.705577 0.615085 0.206054 -0.518301
O8    O     O_R   0.575300 0.752963 0.206158 -0.723918
O9    O     O_2   0.001651 0.700800 0.801311 -0.468083
O10   O     O_R   0.842874 0.600991 0.873647 -0.690366
O11   O     O_2   0.799721 0.755023 0.532796 -0.490260
O12   O     O_R   0.474400 0.295500 0.332650 -0.530025
O13   O     O_R   0.997453 0.853614 0.636873 -0.660320
O14   O     O_R   0.336400 0.518400 0.622370 -0.498159
O15   O     O_R   0.298980 0.481560 0.377620 -0.507956
O16   O     O_R   0.525600 0.704500 0.667350 -0.436636
O17   O     O_R   0.488180 0.667660 0.422600 -0.484427
O18   O     O_R   0.701020 0.518440 0.622380 -0.476872
O19   O     O_R   0.663600 0.481600 0.377630 -0.466716
O20   O     O_2   0.222855 0.634650 0.806057 -0.457677

loop_
_geom_bond_atom_site_label_1
_geom_bond_atom_site_label_2
_ccdc_geom_bond_type
H3    O2    S    
C26   O11   D    
C20   H22   S    
C18   H13   S    
H4    O4    S    
C1    O12   A    
C12   C23   S    
C13   C29   S    
C28   C29   D    
Cu1   O16   S    
C9    H35   S    
C15   H10   S    
C24   H25   S    
C30   C31   D    
C14   O5    D    
C15   C16   S    
C8    C23   S    
C2    C32   S    
C23   C26   S    
Cu2   O19   S    
Cu1   N2    S    
H17   O8    S    
C11   O20   D    
H32   N2    S    
C13   O3    D    
C1    C28   S    
C9    C10   S    
C5    O18   A    
C24   H24   S    
C3    O14   A    
C25   O9    D    
Cu2   O12   S    
C14   C30   S    
C20   H21   S    
C2    N2    D    
C19   C32   S    
Cu1   Cu2   S    
C32   N1    D    
C7    C12   S    
C12   C27   S    
C3    O15   A    
H5    O6    S    
C9    H36   S    
C5    C12   S    
C17   H15   S    
C6    C11   S    
C31   H31   S    
H29   O10   S    
C27   H1    S    
Cu1   O14   S    
C22   H28   S    
C13   O4    S    
C24   H26   S    
C17   C18   S    
C19   O7    D    
C5    O19   A    
C16   H6    S    
Cu1   O1    S    
C8    H34   S    
C25   O10   S    
C22   C24   S    
C18   H11   S    
C16   H8    S    
H30   O13   S    
C9    C27   S    
C4    O17   A    
C23   H23   S    
C11   O2    S    
C18   H14   S    
C17   H16   S    
C6    C10   S    
C6    C7    S    
C4    O16   A    
C27   H2    S    
C7    C22   S    
C6    C20   S    
C7    C25   S    
C1    O1    A    
Cu2   O17   S    
C15   H9    S    
C29   C31   S    
C3    C10   S    
Cu1   O18   S    
C22   H27   S    
C21   H19   S    
C15   C28   S    
C21   H20   S    
C26   O13   S    
Cu2   N1    S    
H33   N1    S    
Cu2   O15   S    
C14   O6    S    
C19   O8    S    
C8    H12   S    
C20   C21   S    
C8    C10   S    
C16   H7    S    
C21   H18   S    
C4    C30   S    
C2    C17   S    
