data_mof_unit_27455.cif
_audit_creation_date              2012-12-10T20:03:51-0500
_audit_creation_method            fapswitch 2.2
_symmetry_space_group_name_H-M    P1
_symmetry_Int_Tables_number       1
_space_group_crystal_system       triclinic
_cell_length_a                    19.005041
_cell_length_b                    18.509319
_cell_length_c                    10.715493
_cell_angle_alpha                 90.347303
_cell_angle_beta                  92.40797
_cell_angle_gamma                 91.272857
_cell_volume                      3765.04289325

loop_
_atom_site_label
_atom_site_type_symbol
_atom_type_description
_atom_site_fract_x
_atom_site_fract_y
_atom_site_fract_z
_atom_type_partial_charge
C1    C     C_R   0.364955 0.499172 0.498364 0.902178
C2    C     C_R   0.957444 0.446910 0.352476 0.310165
C3    C     C_R   0.562054 0.729202 0.518727 0.380130
C4    C     C_R   0.437982 0.726085 0.480631 0.395437
C5    C     C_R   0.563200 0.805937 0.506742 0.282696
C6    C     C_R   0.435820 0.802404 0.498125 0.275778
C7    C     C_R   0.499305 0.842778 0.504192 -0.243786
C8    C     C_R   0.520493 0.963192 0.400496 -0.168306
C9    C     C_R   0.477051 0.962591 0.609267 -0.171040
C10   C     C_R   0.519458 0.039141 0.400131 -0.227839
C11   C     C_R   0.477940 0.038675 0.610242 -0.228679
C12   C     C_R   0.634624 0.500809 0.496014 0.914833
C13   C     C_R   0.498669 0.077840 0.505299 0.171969
C14   C     C_R   0.499559 0.499843 0.262390 0.917711
C15   C     C_R   0.502089 0.500266 0.737783 0.920307
C16   C     C_R   0.498886 0.923926 0.504735 0.250187
C17   C     C_R   0.541504 0.199212 0.589889 -0.419422
C18   C     C_R   0.456928 0.195745 0.417172 -0.409552
C19   C     C_R   0.542129 0.276272 0.587199 0.534413
C20   C     C_R   0.459435 0.272281 0.412796 0.516853
C21   C     C_R   0.498626 0.158766 0.504888 0.044473
C22   C     C_2   0.508018 0.440205 0.934023 -0.174408
C23   C     C_R   0.708679 0.503330 0.467402 -0.156978
C24   C     C_2   0.516571 0.442214 0.067746 -0.173582
C25   C     C_2   0.511516 0.501410 0.869645 -0.339500
C26   C     C_2   0.495410 0.499536 0.130452 -0.334684
C27   C     C_R   0.755400 0.451530 0.514562 0.447614
C28   C     C_R   0.255847 0.445003 0.396918 0.432262
C29   C     C_R   0.826601 0.459512 0.489165 -0.246862
C30   C     C_R   0.187402 0.456061 0.350196 -0.251152
C31   C     C_R   0.848889 0.510107 0.401248 0.168541
C32   C     C_R   0.146793 0.509959 0.401147 0.172178
C33   C     C_R   0.800682 0.557664 0.346975 -0.152382
C34   C     C_R   0.288661 0.497730 0.476446 -0.167864
C35   C     C_R   0.177980 0.558409 0.489592 -0.145488
C36   C     C_R   0.731527 0.556003 0.383463 -0.282439
C37   C     C_R   0.249194 0.554104 0.522971 -0.270474
C38   C     C_3   0.672183 0.855824 0.578664 0.144370
C39   C     C_3   0.642548 0.899904 0.685840 -0.415588
C40   C     C_3   0.697719 0.911310 0.792084 -0.969886
C41   C     C_3   0.325686 0.845631 0.429035 0.142641
C42   C     C_3   0.353623 0.894560 0.325858 -0.409709
C43   C     C_3   0.298257 0.903234 0.220090 -0.971098
C44   C     C_3   0.608350 0.288486 0.777204 0.080209
C45   C     C_R   0.962526 0.578047 0.373378 0.319890
C46   C     C_3   0.653105 0.343048 0.854626 -0.781361
C47   C     C_3   0.422151 0.286057 0.205877 0.101435
C48   C     C_3   0.376728 0.332375 0.119142 -0.751136
C49   C     C_3   0.748262 0.327501 0.543901 0.141662
C50   C     C_3   0.708758 0.309164 0.418945 -0.333610
C51   C     C_3   0.720037 0.231031 0.379954 -0.984302
C52   C     C_3   0.261563 0.321249 0.405400 0.131032
C53   C     C_3   0.285286 0.309066 0.542356 -0.327503
C54   C     C_3   0.254193 0.238632 0.591447 -0.992144
C55   C     C_3   0.946128 0.673493 0.507063 0.134177
C56   C     C_R   0.035614 0.576380 0.358640 0.308708
C57   C     C_3   0.899861 0.639953 0.606379 -0.379908
C58   C     C_3   0.910140 0.679556 0.731291 -0.984978
C59   C     C_3   0.064510 0.664265 0.219179 0.128906
C60   C     C_3   0.108243 0.620740 0.129031 -0.383979
C61   C     C_3   0.105279 0.653153 0.998415 -0.971285
C62   C     C_3   0.047899 0.351195 0.510835 0.117959
C63   C     C_3   0.091665 0.390138 0.615644 -0.390724
C64   C     C_3   0.082625 0.353427 0.741205 -0.969120
C65   C     C_3   0.918536 0.362794 0.206921 0.132100
C66   C     C_3   0.860426 0.401455 0.131251 -0.369241
C67   C     C_R   0.070248 0.510328 0.373526 -0.225096
C68   C     C_3   0.854383 0.373989 0.996602 -0.977432
C69   C     C_3   0.631690 0.685442 0.676473 0.112597
C70   C     C_3   0.705055 0.658767 0.711775 -0.849446
C71   C     C_3   0.377143 0.686146 0.307013 0.100124
C72   C     C_3   0.309206 0.649765 0.256367 -0.835264
C73   C     C_R   0.923311 0.512522 0.369963 -0.221913
C74   C     C_R   0.030399 0.444963 0.373219 0.330731
H1    H     H_    0.499679 0.387859 0.888842 0.180894
H2    H     H_    0.471990 0.546184 0.085659 0.144610
H3    H     H_    0.864761 0.425761 0.536981 0.152239
H4    H     H_    0.165032 0.420043 0.278288 0.178755
H5    H     H_    0.816498 0.596298 0.277484 0.185983
H6    H     H_    0.147371 0.599391 0.533357 0.174329
H7    H     H_    0.695088 0.594271 0.342461 0.202453
H8    H     H_    0.273366 0.594267 0.586097 0.198506
H9    H     H_    0.717452 0.887346 0.543074 0.155669
H10   H     H_    0.695143 0.804979 0.611680 0.170541
H11   H     H_    0.626336 0.953525 0.650269 0.244357
H12   H     H_    0.537399 0.395023 0.114834 0.165117
H13   H     H_    0.596089 0.871506 0.723771 0.208156
H14   H     H_    0.714232 0.858427 0.830598 0.266546
H15   H     H_    0.675070 0.943417 0.867882 0.269458
H16   H     H_    0.744532 0.941077 0.758286 0.264014
H17   H     H_    0.279368 0.872448 0.467019 0.156110
H18   H     H_    0.304390 0.793513 0.392010 0.175200
H19   H     H_    0.367702 0.948715 0.365975 0.244297
H20   H     H_    0.401271 0.871347 0.286216 0.206810
H21   H     H_    0.250256 0.927961 0.255808 0.264885
H22   H     H_    0.283988 0.849829 0.177128 0.266112
H23   H     H_    0.537234 0.934876 0.318532 0.155976
H24   H     H_    0.319686 0.938928 0.147225 0.269056
H25   H     H_    0.641918 0.240822 0.765159 0.121108
H26   H     H_    0.560782 0.273358 0.829278 0.116222
H27   H     H_    0.630913 0.397754 0.847345 0.277938
H28   H     H_    0.655791 0.326489 0.954128 0.189333
H29   H     H_    0.707432 0.345710 0.820640 0.257442
H30   H     H_    0.402614 0.229556 0.191881 0.109460
H31   H     H_    0.477864 0.290364 0.178346 0.115256
H32   H     H_    0.386082 0.390551 0.140554 0.283926
H33   H     H_    0.389171 0.321664 0.020490 0.181966
H34   H     H_    0.460414 0.933786 0.690989 0.156575
H35   H     H_    0.320128 0.319223 0.131040 0.241642
H36   H     H_    0.732284 0.286974 0.613752 0.166306
H37   H     H_    0.805871 0.321129 0.535785 0.121285
H38   H     H_    0.651532 0.317200 0.427399 0.251343
H39   H     H_    0.727666 0.345341 0.344484 0.201669
H40   H     H_    0.776993 0.221599 0.369192 0.270712
H41   H     H_    0.691462 0.219744 0.289163 0.261620
H42   H     H_    0.699423 0.193402 0.450830 0.268242
H43   H     H_    0.279503 0.275252 0.348799 0.173700
H44   H     H_    0.203004 0.319502 0.394943 0.133656
H45   H     H_    0.535786 0.067876 0.318107 0.141759
H46   H     H_    0.343549 0.306974 0.550940 0.250503
H47   H     H_    0.268440 0.354471 0.601444 0.199144
H48   H     H_    0.195730 0.239769 0.585757 0.266091
H49   H     H_    0.271910 0.231558 0.690598 0.268214
H50   H     H_    0.272142 0.192014 0.536272 0.268456
H51   H     H_    0.935616 0.732216 0.501736 0.162206
H52   H     H_    0.002850 0.669015 0.536043 0.151528
H53   H     H_    0.843636 0.642345 0.574368 0.252684
H54   H     H_    0.913554 0.582429 0.620128 0.214261
H55   H     H_    0.966091 0.677630 0.765237 0.265176
H56   H     H_    0.461564 0.067047 0.692418 0.142618
H57   H     H_    0.876767 0.653246 0.801320 0.274101
H58   H     H_    0.894559 0.736800 0.721546 0.264581
H59   H     H_    0.082789 0.721665 0.217525 0.159170
H60   H     H_    0.007979 0.663559 0.186734 0.154000
H61   H     H_    0.163887 0.619974 0.164734 0.241702
H62   H     H_    0.087764 0.564082 0.122702 0.212507
H63   H     H_    0.049996 0.653637 0.960489 0.263896
H64   H     H_    0.136753 0.620126 0.935367 0.268525
H65   H     H_    0.127409 0.709221 0.001015 0.265971
H66   H     H_    0.062137 0.293311 0.510645 0.155049
H67   H     H_    0.575042 0.169614 0.654187 0.145043
H68   H     H_    0.990883 0.352479 0.530508 0.158281
H69   H     H_    0.148147 0.390250 0.593545 0.236242
H70   H     H_    0.074892 0.447052 0.623428 0.212974
H71   H     H_    0.026459 0.353540 0.766074 0.260135
H72   H     H_    0.114534 0.383129 0.814885 0.269713
H73   H     H_    0.100747 0.296842 0.737532 0.265622
H74   H     H_    0.907429 0.303655 0.201426 0.160062
H75   H     H_    0.970719 0.372031 0.164866 0.135381
H76   H     H_    0.809139 0.392473 0.175514 0.231278
H77   H     H_    0.872306 0.460480 0.130414 0.215855
H78   H     H_    0.421454 0.164535 0.355320 0.153229
H79   H     H_    0.905204 0.382324 0.950568 0.263407
H80   H     H_    0.813127 0.404239 0.943951 0.274957
H81   H     H_    0.839536 0.315598 0.994003 0.262457
H82   H     H_    0.593119 0.645006 0.708336 0.183320
H83   H     H_    0.623516 0.736432 0.729196 0.093577
H84   H     H_    0.710531 0.651546 0.814492 0.207313
H85   H     H_    0.713937 0.606166 0.665718 0.262807
H86   H     H_    0.745776 0.698445 0.683186 0.249232
H87   H     H_    0.421955 0.655326 0.273940 0.173466
H88   H     H_    0.380903 0.740876 0.265181 0.100087
H89   H     H_    0.524298 0.553424 0.913268 0.146583
H90   H     H_    0.263029 0.675466 0.296883 0.262978
H91   H     H_    0.305138 0.654989 0.153147 0.201703
H92   H     H_    0.308849 0.591506 0.279473 0.258624
N1    N     N_R   0.500000 0.689440 0.500000 -0.219420
N2    N     N_R   0.500000 0.310560 0.500000 -0.168433
O1    O     O_R   0.398180 0.560840 0.499970 -0.557446
O2    O     O_3   0.374612 0.836565 0.530698 -0.621650
O3    O     O_3   0.588802 0.319395 0.660828 -0.554034
O4    O     O_3   0.415984 0.310096 0.330432 -0.549682
O5    O     O_3   0.731192 0.396674 0.590689 -0.631594
O6    O     O_3   0.292313 0.385593 0.358074 -0.601249
O7    O     O_3   0.929172 0.643291 0.387378 -0.643100
O8    O     O_3   0.074293 0.639808 0.343495 -0.646499
O9    O     O_3   0.062829 0.379244 0.391685 -0.650992
O10   O     O_3   0.918695 0.383135 0.334406 -0.648953
O11   O     O_3   0.624558 0.694931 0.545346 -0.564020
O12   O     O_R   0.601820 0.560840 0.500030 -0.577241
O13   O     O_3   0.377490 0.689422 0.439349 -0.567256
O14   O     O_R   0.398180 0.439210 0.499910 -0.567879
O15   O     O_R   0.601820 0.439210 0.500090 -0.566311
O16   O     O_R   0.500000 0.560800 0.319070 -0.644365
O17   O     O_R   0.500000 0.560800 0.680930 -0.652102
O18   O     O_R   0.499990 0.439170 0.319010 -0.586995
O19   O     O_R   0.500010 0.439170 0.680990 -0.585933
O20   O     O_3   0.623832 0.844236 0.476016 -0.617985
Zn1   Zn    Zn3+2 0.500000 0.581210 0.500000 0.973722
Zn2   Zn    Zn3+2 0.500000 0.418790 0.500000 1.018366

loop_
_geom_bond_atom_site_label_1
_geom_bond_atom_site_label_2
_ccdc_geom_bond_type
C66   C68   S    
C54   H49   S    
C11   H56   S    
C71   H88   S    
C38   H9    S    
C27   C29   A    
C18   C21   A    
C11   C13   A    
C41   C42   S    
C71   O13   S    
C43   H24   S    
O1    Zn1   S    
C68   H81   S    
C28   O6    S    
C27   O5    S    
C57   H54   S    
C49   O5    S    
C47   O4    S    
C53   H46   S    
C3    N1    A    
C53   C54   S    
C62   O9    S    
C46   H28   S    
C12   C23   S    
C56   O8    S    
C17   H67   S    
C35   C37   A    
C9    C16   A    
C24   C26   D    
C66   H76   S    
C68   H80   S    
O12   Zn1   S    
C45   O7    S    
C38   C39   S    
C14   O18   A    
C44   H25   S    
C18   H78   S    
C61   H64   S    
C31   C73   S    
C12   O15   A    
C65   O10   S    
C58   H55   S    
C34   C37   A    
C35   H6    S    
C33   C36   A    
N2    Zn2   S    
C45   C73   A    
C70   H85   S    
C72   H91   S    
C49   C50   S    
C3    O11   S    
O19   Zn2   S    
C10   H45   S    
C9    H34   S    
C48   H32   S    
C55   H51   S    
C45   C56   A    
C58   H58   S    
C47   H31   S    
C22   C25   D    
C43   H21   S    
C63   H70   S    
C31   C33   A    
C23   C27   A    
C4    O13   S    
C60   H62   S    
C70   H86   S    
C2    C74   A    
C49   H37   S    
C38   H10   S    
C52   H43   S    
C48   H35   S    
C54   H48   S    
C28   C34   A    
C59   C60   S    
C8    C16   A    
C20   O4    S    
C22   H1    S    
C62   H68   S    
C20   N2    A    
C44   C46   S    
C1    C34   S    
C50   C51   S    
N1    Zn1   S    
C46   H27   S    
C69   H82   S    
C51   H40   S    
C32   C35   A    
C64   H71   S    
C4    C6    A    
C68   H79   S    
C39   C40   S    
C5    C7    A    
C33   H5    S    
C36   H7    S    
C15   O19   A    
C59   H59   S    
C51   H41   S    
C60   C61   S    
C70   H84   S    
C30   H4    S    
O18   Zn2   S    
C8    H23   S    
C12   O12   A    
C62   C63   S    
C15   O17   A    
C26   H2    S    
C47   C48   S    
C55   H52   S    
C58   H57   S    
C50   H38   S    
C43   H22   S    
C72   H90   S    
C13   C21   S    
C67   C74   A    
C14   C26   S    
C65   H74   S    
C9    C11   A    
C60   H61   S    
C55   O7    S    
C2    C73   A    
C69   H83   S    
C32   C67   S    
C42   H19   S    
C7    C16   S    
C41   H17   S    
C59   O8    S    
C55   C57   S    
C64   H73   S    
C40   H15   S    
C22   C24   S    
C37   H8    S    
C42   C43   S    
C39   H11   S    
O15   Zn2   S    
C52   O6    S    
C52   C53   S    
C6    O2    S    
C54   H50   S    
C47   H30   S    
C71   H87   S    
C64   H72   S    
C42   H20   S    
C46   H29   S    
C72   H92   S    
C61   H65   S    
C19   O3    S    
C3    C5    A    
C10   C13   A    
C57   H53   S    
C14   O16   A    
C1    O14   A    
O17   Zn1   S    
C6    C7    A    
C56   C67   A    
O14   Zn2   S    
C41   O2    S    
C59   H60   S    
C51   H42   S    
C4    N1    A    
C50   H39   S    
C62   H66   S    
C40   H14   S    
C28   C30   A    
C44   O3    S    
C71   C72   S    
C29   C31   A    
C53   H47   S    
C69   O11   S    
C30   C32   A    
C44   H26   S    
C61   H63   S    
C57   C58   S    
C74   O9    S    
C25   H89   S    
C38   O20   S    
C1    O1    A    
C17   C19   A    
C18   C20   A    
C65   C66   S    
C65   H75   S    
C69   C70   S    
C17   C21   A    
C15   C25   S    
C63   C64   S    
C48   H33   S    
C66   H77   S    
C41   H18   S    
C29   H3    S    
C8    C10   A    
C23   C36   A    
C19   N2    A    
C63   H69   S    
O16   Zn1   S    
C2    O10   S    
C5    O20   S    
C40   H16   S    
C24   H12   S    
C39   H13   S    
C49   H36   S    
C52   H44   S    
