data_mof_unit_36629.cif
_audit_creation_date              2012-12-10T20:32:45-0500
_audit_creation_method            fapswitch 2.2
_symmetry_space_group_name_H-M    P1
_symmetry_Int_Tables_number       1
_space_group_crystal_system       triclinic
_cell_length_a                    11.502104
_cell_length_b                    10.686206
_cell_length_c                    9.948875
_cell_angle_alpha                 89.149789
_cell_angle_beta                  90.479827
_cell_angle_gamma                 90.418644
_cell_volume                      1222.64550315

loop_
_atom_site_label
_atom_site_type_symbol
_atom_type_description
_atom_site_fract_x
_atom_site_fract_y
_atom_site_fract_z
_atom_type_partial_charge
C1    C     C_R   0.498604 0.260589 0.500740 0.890650
C2    C     C_R   0.600714 0.494439 0.073843 -0.123962
C3    C     C_R   0.601373 0.491139 0.930985 0.258444
C4    C     C_R   0.282205 0.501186 0.499285 0.910159
C5    C     C_R   0.398611 0.514050 0.927766 0.022840
C6    C     C_3   0.293666 0.429242 0.922421 -0.083893
C7    C     C_3   0.294756 0.426464 0.077417 0.084023
C8    C     C_R   0.505003 0.739274 0.498916 0.919432
C9    C     C_R   0.717856 0.500813 0.500411 0.932526
C10   C     C_1   0.161794 0.506589 0.497342 -0.157701
C11   C     C_1   0.059488 0.509494 0.497547 -0.021997
C12   C     C_R   0.498798 0.128712 0.498996 -0.135913
C13   C     C_1   0.940713 0.508529 0.499432 -0.021609
C14   C     C_1   0.838405 0.505185 0.500776 -0.151364
C15   C     C_R   0.421687 0.059444 0.577621 -0.023198
C16   C     C_3   0.083172 0.430898 0.138534 -0.671630
C17   C     C_2   0.324245 0.300299 0.141401 0.940115
C18   C     C_2   0.661205 0.883064 0.311324 0.921271
C19   C     C_3   0.211918 0.821558 0.647606 -0.734169
C20   C     C_3   0.236459 0.083632 0.888540 -0.712537
C21   C     C_3   0.739782 0.342302 0.853982 -0.727359
C22   C     C_3   0.105089 0.408203 0.808460 -0.781784
C23   C     C_R   0.568120 0.070072 0.403678 -0.219571
C24   C     C_R   0.574958 0.940354 0.401939 -0.046039
C25   C     C_R   0.506600 0.871509 0.495062 -0.195354
C26   C     C_R   0.427038 0.931841 0.575237 0.041831
C27   C     C_3   0.403090 0.916360 0.722137 0.026914
C28   C     C_3   0.396195 0.059699 0.726029 0.009593
C29   C     C_R   0.398874 0.511613 0.069869 0.036176
H1    H     H_    0.623206 0.125746 0.337581 0.196371
H2    H     H_    0.291774 0.171660 0.287184 0.335351
H3    H     H_    0.746815 0.894057 0.135245 0.336839
H4    H     H_    0.306296 0.776778 0.821673 0.222585
H5    H     H_    0.132046 0.780117 0.692271 0.225338
H6    H     H_    0.249289 0.753618 0.577119 0.225207
H7    H     H_    0.187293 0.907932 0.591497 0.242494
H8    H     H_    0.220287 0.108034 0.678983 0.238103
H9    H     H_    0.189139 0.166084 0.924543 0.214975
H10   H     H_    0.307353 0.061294 0.961253 0.271688
H11   H     H_    0.174017 0.004049 0.886034 0.246689
H12   H     H_    0.315008 0.339756 0.872973 0.195605
H13   H     H_    0.776247 0.524561 0.907158 0.198862
H14   H     H_    0.755151 0.299235 0.954922 0.223906
H15   H     H_    0.820592 0.335058 0.794380 0.223888
H16   H     H_    0.669551 0.289978 0.801389 0.262631
H17   H     H_    0.208742 0.569051 0.805801 0.257555
H18   H     H_    0.028276 0.463398 0.775894 0.241078
H19   H     H_    0.075423 0.338141 0.883740 0.235467
H20   H     H_    0.140976 0.357551 0.721748 0.252122
H21   H     H_    0.478936 0.879334 0.780105 0.119692
H22   H     H_    0.466453 0.104270 0.786689 0.155079
H23   H     H_    0.681861 0.487138 0.128951 0.153490
H24   H     H_    0.195494 0.585634 0.131714 0.227831
H25   H     H_    0.027398 0.477290 0.061406 0.227337
H26   H     H_    0.040957 0.442891 0.236827 0.244345
H27   H     H_    0.087627 0.329218 0.118429 0.240373
N1    N     N_R   0.499240 0.499140 0.142800 -0.112476
N2    N     N_R   0.499240 0.499180 0.857150 -0.114449
N3    N     N_2   0.197410 0.489320 0.141229 -0.260891
N4    N     N_2   0.295143 0.849427 0.753559 -0.276032
N5    N     N_2   0.281614 0.109183 0.755179 -0.283438
N6    N     N_2   0.709021 0.472636 0.866468 -0.269671
N7    N     N_2   0.192175 0.491078 0.864922 -0.277385
O1    O     O_R   0.500010 0.316790 0.614690 -0.628567
O2    O     O_R   0.263006 0.256022 0.253505 -0.792114
O3    O     O_2   0.713248 0.788381 0.345861 -0.643627
O4    O     O_R   0.686092 0.940771 0.187679 -0.808086
O5    O     O_R   0.500000 0.316760 0.385350 -0.590719
O6    O     O_R   0.334450 0.500030 0.614670 -0.626772
O7    O     O_R   0.334440 0.500000 0.385330 -0.586720
O8    O     O_R   0.500000 0.683240 0.614650 -0.624997
O9    O     O_R   0.499990 0.683210 0.385310 -0.600980
O10   O     O_R   0.665560 0.500000 0.614670 -0.588884
O11   O     O_R   0.665550 0.499970 0.385330 -0.608058
O12   O     O_2   0.404302 0.238735 0.097253 -0.661626
Zn1   Zn    Zn3+2 0.500010 0.500020 0.653130 0.955402
Zn2   Zn    Zn3+2 0.499990 0.499980 0.346870 0.999301

loop_
_geom_bond_atom_site_label_1
_geom_bond_atom_site_label_2
_ccdc_geom_bond_type
C22   H19   S    
C7    C29   S    
C4    O7    A    
H24   N3    S    
C2    N1    A    
N2    Zn1   S    
C12   C23   A    
C26   C27   S    
C5    N2    A    
C18   C24   S    
C19   H7    S    
C5    C6    S    
C20   H11   S    
C28   H22   S    
C1    O5    A    
O6    Zn1   S    
C20   N5    S    
C22   N7    S    
C21   H14   S    
C7    C17   S    
C6    H12   S    
C23   C24   A    
H13   N6    S    
C21   H16   S    
C27   H21   S    
C28   N5    S    
C22   H18   S    
C13   C14   T    
O7    Zn2   S    
C8    C25   S    
C1    C12   S    
C9    O10   A    
C7    N3    S    
C4    O6    A    
C5    C29   A    
C8    O9    A    
C23   H1    S    
N1    Zn2   S    
C24   C25   A    
C20   H10   S    
C15   C26   A    
C25   C26   A    
O11   Zn2   S    
C16   N3    S    
C6    N7    S    
C9    C14   S    
C16   H27   S    
O9    Zn2   S    
C21   H15   S    
C20   H9    S    
C12   C15   A    
O1    Zn1   S    
C21   N6    S    
C2    H23   S    
H3    O4    S    
C29   N1    A    
H4    N4    S    
C22   H20   S    
O10   Zn1   S    
C9    O11   A    
C4    C10   S    
C1    O1    A    
C3    N6    S    
O5    Zn2   S    
H2    O2    S    
C8    O8    A    
C19   H5    S    
H8    N5    S    
C6    C7    S    
C19   N4    S    
C18   O3    D    
C17   O2    S    
H17   N7    S    
C27   N4    S    
C2    C3    A    
C18   O4    S    
C16   H26   S    
C19   H6    S    
C11   C13   S    
C15   C28   S    
O8    Zn1   S    
C16   H25   S    
C10   C11   T    
C3    N2    A    
C27   C28   S    
C17   O12   D    
