data_mof_unit_10377.cif
_audit_creation_date              2012-12-10T18:03:33-0500
_audit_creation_method            fapswitch 2.2
_symmetry_space_group_name_H-M    P1
_symmetry_Int_Tables_number       1
_space_group_crystal_system       triclinic
_cell_length_a                    10.779951
_cell_length_b                    9.724997
_cell_length_c                    19.396699
_cell_angle_alpha                 87.670752
_cell_angle_beta                  93.027263
_cell_angle_gamma                 91.517354
_cell_volume                      2028.33393788

loop_
_atom_site_label
_atom_site_type_symbol
_atom_type_description
_atom_site_fract_x
_atom_site_fract_y
_atom_site_fract_z
_atom_type_partial_charge
C1    C     C_R   0.871545 0.502886 0.501935 -0.006142
C2    C     C_R   0.128469 0.498895 0.499681 0.017889
C3    C     C_R   0.479075 0.628391 0.959687 0.126131
C4    C     C_R   0.476393 0.375935 0.039903 0.125270
C5    C     C_R   0.477043 0.630871 0.032616 0.125699
C6    C     C_R   0.478369 0.373453 0.966979 0.125258
C7    C     C_R   0.476740 0.504611 0.071970 -0.015237
C8    C     C_R   0.480643 0.499731 0.927689 -0.015591
C9    C     C_R   0.262686 0.498990 0.499626 0.792512
C10   C     C_R   0.737300 0.501258 0.500707 0.783779
C11   C     C_R   0.499044 0.502370 0.368479 0.805445
C12   C     C_R   0.501406 0.497908 0.631750 0.801205
C13   C     C_R   0.063900 0.387790 0.529993 -0.156640
C14   C     C_R   0.936312 0.616390 0.473785 -0.144231
C15   C     C_R   0.935690 0.388694 0.530170 -0.146940
C16   C     C_R   0.064467 0.613964 0.472150 -0.134157
C17   C     C_R   0.607273 0.485791 0.749503 -0.085514
C18   C     C_R   0.602979 0.525097 0.257281 -0.086098
C19   C     C_R   0.377131 0.491790 0.256760 -0.090615
C20   C     C_R   0.381465 0.507366 0.737270 -0.085681
C21   C     C_R   0.601601 0.485585 0.821704 -0.060063
C22   C     C_R   0.597302 0.525409 0.184834 -0.066568
C23   C     C_R   0.371419 0.491149 0.184286 -0.059186
C24   C     C_R   0.376072 0.508270 0.809401 -0.064372
C25   C     C_R   0.486090 0.497221 0.851545 0.013568
C26   C     C_R   0.481650 0.507270 0.148403 0.014150
C27   C     C_R   0.421964 0.075439 0.454156 0.201230
C28   C     C_R   0.581631 0.927620 0.541656 0.187376
C29   C     C_R   0.562195 0.069185 0.550905 0.180617
C30   C     C_R   0.425205 0.927154 0.452568 0.205660
C31   C     C_R   0.496757 0.494160 0.707256 -0.134057
C32   C     C_R   0.493031 0.507603 0.293037 -0.128431
Cu1   Cu    Cu3+1 0.500000 0.640660 0.500000 0.939551
Cu2   Cu    Cu3+1 0.500000 0.359340 0.500000 0.937365
H1    H     H_    0.112452 0.302486 0.555315 0.142158
H2    H     H_    0.887896 0.704794 0.451222 0.139815
H3    H     H_    0.887119 0.300992 0.553199 0.141686
H4    H     H_    0.113297 0.701451 0.448961 0.128722
N1    N     N_R   0.500000 0.852070 0.500000 -0.208341
N2    N     N_R   0.500000 0.147930 0.500000 -0.214515
O1    O     O_R   0.319640 0.618740 0.500000 -0.599256
O2    O     O_R   0.680360 0.381260 0.500000 -0.576283
O3    O     O_R   0.680360 0.618740 0.500000 -0.591626
O4    O     O_R   0.319640 0.381260 0.500000 -0.591693
O5    O     O_R   0.500020 0.618830 0.400190 -0.582509
O6    O     O_R   0.499980 0.381170 0.599810 -0.580346
O7    O     O_R   0.499980 0.618830 0.599810 -0.562389
O8    O     O_R   0.500020 0.381170 0.400190 -0.593310
C33   C     C_3   0.314464 0.145897 0.413544 -0.325829
C34   C     C_3   0.192339 0.119500 0.449479 -0.845158
H5    H     H_    0.207408 0.133921 0.505694 0.254304
H6    H     H_    0.121168 0.191821 0.427604 0.261742
H7    H     H_    0.154927 0.013470 0.443083 0.227155
H8    H     H_    0.326830 0.256000 0.405990 0.262421
H9    H     H_    0.304278 0.114487 0.359361 0.173743
C35   C     C_3   0.711347 0.880074 0.563425 -0.336703
C36   C     C_3   0.720991 0.792754 0.630703 -0.710610
H10   H     H_    0.640842 0.805380 0.663184 0.236206
H11   H     H_    0.727809 0.683311 0.619165 0.262549
H12   H     H_    0.807125 0.821616 0.661263 0.221156
H13   H     H_    0.754752 0.832644 0.520460 0.205483
H14   H     H_    0.774276 0.971220 0.570121 0.161798
C37   C     C_3   0.562894 0.105723 0.626219 -0.337465
C38   C     C_3   0.681937 0.178171 0.652798 -0.765941
H15   H     H_    0.760943 0.107403 0.657137 0.227188
H16   H     H_    0.706055 0.267803 0.618935 0.273764
H17   H     H_    0.668084 0.212419 0.705592 0.235731
H18   H     H_    0.478086 0.160850 0.636554 0.218806
H19   H     H_    0.551022 0.011482 0.659680 0.168875
C39   C     C_3   0.359189 0.857848 0.391006 -0.339703
C40   C     C_3   0.435844 0.874195 0.326607 -0.812268
H20   H     H_    0.533266 0.843099 0.338284 0.269682
H21   H     H_    0.393776 0.809438 0.285238 0.244724
H22   H     H_    0.438299 0.982649 0.306665 0.228634
H23   H     H_    0.334429 0.750270 0.401512 0.247006
H24   H     H_    0.265837 0.897370 0.377661 0.167997
C41   C     C_1   0.727291 0.480647 0.719353 0.184683
N3    N     N_1   0.823620 0.476214 0.695934 -0.281905
C42   C     C_1   0.722041 0.540501 0.294910 0.239867
N4    N     N_1   0.817393 0.552597 0.324566 -0.275804
C43   C     C_1   0.264005 0.476306 0.294031 0.199123
N5    N     N_1   0.173730 0.464041 0.323676 -0.284838
C44   C     C_1   0.268433 0.524483 0.694247 0.238492
N6    N     N_1   0.177539 0.539082 0.660654 -0.271310
C45   C     C_1   0.714378 0.473155 0.865641 0.240261
N7    N     N_1   0.804130 0.463265 0.900756 -0.235912
C46   C     C_1   0.710128 0.544369 0.147478 0.237292
N8    N     N_1   0.799916 0.559436 0.117588 -0.238219
C47   C     C_1   0.252925 0.470917 0.146524 0.235442
N9    N     N_1   0.158533 0.454780 0.116321 -0.238423
C48   C     C_1   0.257863 0.523894 0.840504 0.231483
N10   N     N_1   0.163770 0.536341 0.865383 -0.239053
C49   C     C_3   0.480617 0.762715 0.915685 -0.398931
C50   C     C_3   0.612837 0.817849 0.905938 -0.814387
H25   H     H_    0.667141 0.821948 0.956061 0.255404
H26   H     H_    0.661313 0.751828 0.871282 0.262529
H27   H     H_    0.609466 0.923361 0.881862 0.236216
H28   H     H_    0.433628 0.750439 0.864083 0.206725
H29   H     H_    0.426005 0.842692 0.938371 0.207405
C51   C     C_3   0.475153 0.241646 0.083926 -0.400064
C52   C     C_3   0.606410 0.192837 0.103404 -0.808601
H30   H     H_    0.663181 0.191214 0.057377 0.254256
H31   H     H_    0.653330 0.261258 0.141494 0.263697
H32   H     H_    0.601353 0.087195 0.127254 0.237021
H33   H     H_    0.425545 0.251726 0.131942 0.206592
H34   H     H_    0.421564 0.159029 0.057260 0.207516
C53   C     C_3   0.475594 0.767815 0.068956 -0.402142
C54   C     C_3   0.343248 0.814812 0.077015 -0.810626
H35   H     H_    0.289049 0.817101 0.026750 0.255535
H36   H     H_    0.295034 0.745003 0.113973 0.263406
H37   H     H_    0.346175 0.919796 0.097569 0.234674
H38   H     H_    0.524100 0.761805 0.120721 0.205913
H39   H     H_    0.528443 0.850086 0.041322 0.210538
C55   C     C_3   0.478286 0.236484 0.930607 -0.400355
C56   C     C_3   0.346405 0.182839 0.913056 -0.810448
H40   H     H_    0.289721 0.178501 0.959243 0.254840
H41   H     H_    0.300343 0.249839 0.872430 0.263034
H42   H     H_    0.350012 0.077698 0.893122 0.234018
H43   H     H_    0.529200 0.245057 0.882436 0.204432
H44   H     H_    0.529575 0.156861 0.962020 0.210043

loop_
_geom_bond_atom_site_label_1
_geom_bond_atom_site_label_2
_ccdc_geom_bond_type
C46   N8    T    
C29   C37   S    
C49   C50   S    
C10   O2    A    
Cu1   O5    S    
C53   H38   S    
Cu2   O2    S    
C55   C56   S    
C28   C35   S    
C45   N7    T    
C35   C36   S    
C51   H33   S    
C52   H30   S    
C7    C26   S    
Cu2   N2    S    
C28   C29   A    
C13   H1    S    
C4    C7    A    
C14   H2    S    
C36   H11   S    
C33   H8    S    
C54   H35   S    
C23   C26   A    
C2    C13   A    
C53   H39   S    
C6    C55   S    
C20   C24   A    
C18   C42   S    
C56   H41   S    
C34   H6    S    
C53   C54   S    
C23   C47   S    
C39   C40   S    
C1    C15   A    
C2    C16   A    
C49   H29   S    
C55   H43   S    
C41   N3    T    
C52   H31   S    
C27   C30   A    
C8    C25   S    
C11   O8    A    
C12   O7    A    
C19   C32   A    
C30   C39   S    
C43   N5    T    
C21   C45   S    
C34   H7    S    
Cu1   O3    S    
C38   H17   S    
C37   H19   S    
Cu2   O4    S    
C24   C25   A    
C12   O6    A    
C3    C8    A    
C48   N10   T    
C40   H21   S    
C36   H12   S    
C6    C8    A    
C28   N1    A    
C34   H5    S    
C33   H9    S    
C17   C21   A    
C42   N4    T    
C38   H16   S    
C19   C23   A    
C44   N6    T    
C27   N2    A    
C56   H42   S    
C17   C41   S    
Cu1   Cu2   S    
C3    C49   S    
Cu1   N1    S    
C22   C46   S    
C50   H26   S    
Cu2   O6    S    
C4    C6    A    
C11   C32   S    
C52   H32   S    
C13   C15   A    
C12   C31   S    
C39   H24   S    
C17   C31   A    
C14   C16   A    
C11   O5    A    
Cu2   O8    S    
C24   C48   S    
C5    C7    A    
C5    C53   S    
C21   C25   A    
C37   H18   S    
C9    O4    A    
C10   O3    A    
C18   C22   A    
C9    O1    A    
C1    C10   S    
C3    C5    A    
C40   H22   S    
C51   H34   S    
C50   H27   S    
C54   H37   S    
Cu1   O1    S    
C38   H15   S    
C4    C51   S    
C40   H20   S    
C15   H3    S    
C36   H10   S    
Cu1   O7    S    
C29   N2    A    
C51   C52   S    
C54   H36   S    
C30   N1    A    
C35   H14   S    
C50   H25   S    
C37   C38   S    
C27   C33   S    
C18   C32   A    
C33   C34   S    
C22   C26   A    
C20   C44   S    
C39   H23   S    
C35   H13   S    
C1    C14   A    
C47   N9    T    
C19   C43   S    
C2    C9    S    
C49   H28   S    
C55   H44   S    
C56   H40   S    
C16   H4    S    
C20   C31   A    
