data_mof_unit_25081.cif
_audit_creation_date              2013-03-05T15:41:44-0500
_audit_creation_method            fapswitch 2.2
_symmetry_space_group_name_H-M    P1
_symmetry_Int_Tables_number       1
_space_group_crystal_system       triclinic
_cell_length_a                    11.113169
_cell_length_b                    12.677306
_cell_length_c                    23.569003
_cell_angle_alpha                 90.881749
_cell_angle_beta                  97.049459
_cell_angle_gamma                 68.954697
_cell_volume                      3074.12874171

loop_
_atom_site_label
_atom_site_type_symbol
_atom_site_description
_atom_site_fract_x
_atom_site_fract_y
_atom_site_fract_z
_atom_type_partial_charge
O1    O     O_R   0.196340 0.303200 0.448500 -0.483146
O2    O     O_R   0.199310 0.519670 0.454880 -0.474566
C1    C     C_R   0.149948 0.616426 0.429257 0.548631
O3    O     O_R   0.045660 0.691380 0.441680 -0.500880
O4    O     O_R   0.811930 0.659460 0.430950 -0.495683
C2    C     C_R   0.746770 0.604871 0.403975 0.564889
O5    O     O_R   0.757900 0.507620 0.421760 -0.438753
O6    O     O_R   0.988630 0.322990 0.439840 -0.480931
C3    C     C_R   0.100794 0.280997 0.423858 0.554006
O7    O     O_R   0.196380 0.301720 0.573850 -0.491650
O8    O     O_R   0.199350 0.518300 0.571080 -0.489044
C4    C     C_R   0.153761 0.619542 0.589201 0.529095
O9    O     O_R   0.045700 0.689900 0.567030 -0.495512
O10   O     O_R   0.811960 0.658090 0.547150 -0.448532
C5    C     C_R   0.811757 0.570126 0.574929 0.553718
O11   O     O_R   0.757930 0.506140 0.547110 -0.482527
O12   O     O_R   0.988670 0.321620 0.556040 -0.520586
C6    C     C_R   0.099470 0.276653 0.584654 0.530538
Cr1   Cr    Cr6+3 0.189770 0.415650 0.511620 1.106524
Cr2   Cr    Cr6+3 0.930400 0.667320 0.496770 1.111765
Cr3   Cr    Cr6+3 0.879870 0.417010 0.491650 1.119299
O13   O     O_3   0.000020 0.499990 0.500010 -0.315182
C7    C     C_R   0.676810 0.756486 0.139157 -0.018176
C8    C     C_R   0.683725 0.640809 0.344544 -0.026447
C9    C     C_R   0.649761 0.568503 0.250434 -0.044233
C10   C     C_R   0.648200 0.562843 0.309483 0.172329
C11   C     C_R   0.684494 0.740963 0.319551 -0.064006
C12   C     C_R   0.688067 0.748061 0.259467 -0.050991
C13   C     C_R   0.682609 0.654590 0.226036 -0.056043
C14   C     C_R   0.700342 0.654198 0.167880 -0.053309
C15   C     C_R   0.688980 0.848046 0.170872 0.166311
C16   C     C_R   0.700731 0.842051 0.231143 -0.042687
C17   C     C_1   0.245940 0.151293 0.125432 0.060433
C18   C     C_2   0.228868 0.187810 0.235283 -0.032084
C19   C     C_2   0.124717 0.186864 0.259298 -0.038370
C20   C     C_1   0.117002 0.207764 0.319288 -0.011775
C21   C     C_1   0.235760 0.172327 0.174914 0.000969
C22   C     C_1   0.110803 0.234330 0.368340 0.042754
C23   C     C_1   0.172424 0.759594 0.125497 0.063534
C24   C     C_2   0.157342 0.734380 0.235005 -0.041701
C25   C     C_2   0.216915 0.635176 0.265186 0.185947
C26   C     C_1   0.207052 0.631603 0.325735 0.023701
C27   C     C_1   0.163984 0.744792 0.174887 0.033807
C28   C     C_1   0.188323 0.627155 0.374660 0.049187
C29   C     C_1   0.624993 0.758058 0.865080 0.034777
C30   C     C_2   0.670458 0.724442 0.757626 0.210367
C31   C     C_2   0.756940 0.625643 0.741803 -0.017992
C32   C     C_1   0.774433 0.603636 0.682757 0.045930
C33   C     C_1   0.651976 0.742687 0.817067 -0.003343
C34   C     C_1   0.789335 0.587773 0.633263 0.065556
C35   C     C_R   0.196922 0.186430 0.854592 -0.036319
C36   C     C_R   0.103911 0.221125 0.639622 -0.025243
C37   C     C_R   0.980540 0.203125 0.715485 -0.033165
C38   C     C_R   0.992103 0.208698 0.656891 -0.040417
C39   C     C_R   0.209508 0.210524 0.679901 -0.074270
C40   C     C_R   0.199159 0.209594 0.738017 -0.024703
C41   C     C_R   0.086187 0.200960 0.757241 -0.031807
C42   C     C_R   0.087816 0.185974 0.817070 -0.066700
C43   C     C_R   0.287397 0.227087 0.835082 0.192391
C44   C     C_R   0.297175 0.226070 0.776841 0.202438
H1    H     H_    0.296405 0.214884 0.665492 0.215241
C45   C     C_R   0.133329 0.746738 0.848684 -0.061748
C46   C     C_R   0.207820 0.650666 0.644544 -0.042359
C47   C     C_R   0.340231 0.590429 0.735990 0.000532
C48   C     C_R   0.322349 0.578954 0.676274 -0.020313
C49   C     C_R   0.128498 0.745766 0.670939 -0.001653
C50   C     C_R   0.124191 0.739707 0.729767 -0.021108
C51   C     C_R   0.233203 0.661398 0.763829 -0.041059
C52   C     C_R   0.232066 0.660771 0.823769 -0.052177
C53   C     C_R   0.017761 0.810251 0.814227 -0.049996
C54   C     C_R   0.012327 0.806917 0.754601 0.168382
O14   O     O_R   0.113660 0.883270 0.047820 -0.481198
O15   O     O_R   0.186930 0.068530 0.043990 -0.500022
C55   C     C_R   0.266402 0.110189 0.069361 0.558371
O16   O     O_R   0.377770 0.089040 0.054220 -0.446345
O17   O     O_R   0.562800 0.872960 0.056970 -0.450648
C56   C     C_R   0.602265 0.775102 0.081204 0.548964
O18   O     O_R   0.555390 0.700940 0.062700 -0.503120
O19   O     O_R   0.295020 0.731920 0.049950 -0.486009
C57   C     C_R   0.189185 0.788196 0.069422 0.550078
O20   O     O_R   0.094290 0.884230 0.921550 -0.491418
O21   O     O_R   0.168980 0.069410 0.926940 -0.501922
C58   C     C_R   0.239982 0.117328 0.908133 0.565485
O22   O     O_R   0.358400 0.089990 0.927950 -0.447503
O23   O     O_R   0.544850 0.873850 0.939920 -0.477485
C59   C     C_R   0.575311 0.775986 0.918838 0.549650
O24   O     O_R   0.536020 0.701900 0.936430 -0.494523
O25   O     O_R   0.277070 0.732810 0.932890 -0.493442
C60   C     C_R   0.164716 0.786253 0.906219 0.535590
Cr4   Cr    Cr6+3 0.149500 0.973980 0.985330 1.106710
Cr5   Cr    Cr6+3 0.457000 0.976510 0.994660 1.179541
Cr6   Cr    Cr6+3 0.411170 0.724270 0.995270 1.103656
O26   O     O_3   0.339220 0.891590 0.991750 -0.299061
C61   C     C_1   0.749076 0.549716 0.137529 0.248038
N1    N     N_1   0.788470 0.466610 0.113274 -0.219594
C62   C     C_1   0.093560 0.838563 0.262968 0.178432
N2    N     N_1   0.043485 0.921785 0.285501 -0.243166
C63   C     C_1   0.839778 0.539392 0.783483 0.181835
N3    N     N_1   0.906114 0.470474 0.816787 -0.263541
N4    N     N_R   0.587144 0.811263 0.716518 0.121982
O27   O     O_R   0.537601 0.915059 0.732587 -0.248843
O28   O     O_R   0.544686 0.785616 0.666231 -0.314844
C64   C     C_1   0.983792 0.165169 0.840887 0.263089
N5    N     N_1   0.901418 0.148616 0.860510 -0.172324
N6    N     N_R   0.371313 0.264860 0.875206 0.106594
O29   O     O_R   0.492695 0.241916 0.868874 -0.215235
O30   O     O_R   0.327816 0.316191 0.920863 -0.304239
C65   C     C_1   0.853669 0.214490 0.730495 0.252941
N7    N     N_1   0.751522 0.224889 0.741656 -0.095612
N8    N     N_R   0.406029 0.242823 0.757157 0.102374
O31   O     O_R   0.516042 0.158486 0.758493 -0.189395
O32   O     O_R   0.389609 0.336109 0.729907 -0.358136
C66   C     C_1   0.886654 0.204751 0.614771 0.279140
N9    N     N_1   0.802549 0.201603 0.581377 -0.190699
C67   C     C_1   0.327314 0.570398 0.860113 0.275659
N10   N     N_1   0.403716 0.499471 0.889608 -0.133459
N11   N     N_R   0.692749 0.945779 0.141973 0.094535
O33   O     O_R   0.617148 0.046942 0.153376 -0.280968
O34   O     O_R   0.771286 0.933455 0.103641 -0.299571
C68   C     C_1   0.902370 0.874665 0.839943 0.302216
N12   N     N_1   0.810168 0.926039 0.860435 -0.176703
C69   C     C_1   0.468803 0.532554 0.766464 0.261827
N13   N     N_1   0.571688 0.486094 0.790354 -0.217462
N14   N     N_R   0.891474 0.866618 0.719488 0.073952
O35   O     O_R   0.826131 0.972321 0.727950 -0.259992
O36   O     O_R   0.845929 0.815090 0.679035 -0.304370
C70   C     C_1   0.423750 0.499342 0.647311 0.295396
N15   N     N_1   0.504865 0.435899 0.624291 -0.212488
C71   C     C_1   0.062940 0.851504 0.638419 0.321915
N16   N     N_1   0.011167 0.935583 0.612323 -0.225803
C72   C     C_1   0.604736 0.491970 0.215059 0.303899
N17   N     N_1   0.568857 0.430847 0.186930 -0.121376
C73   C     C_1   0.726772 0.933143 0.261696 0.282566
N18   N     N_1   0.747258 0.006689 0.285480 -0.152786
N19   N     N_R   0.609683 0.478247 0.333908 0.114782
O37   O     O_R   0.523328 0.507063 0.369485 -0.294471
O38   O     O_R   0.664481 0.372032 0.322644 -0.261122
C74   C     C_1   0.672040 0.836072 0.356359 0.234530
N20   N     N_1   0.661454 0.911395 0.386243 -0.217376
C75   C     C_1   0.012793 0.174962 0.225416 0.254472
N21   N     N_1   0.923244 0.165490 0.198340 -0.169741
C76   C     C_1   0.343137 0.194144 0.269705 0.284168
N22   N     N_1   0.434829 0.198315 0.297313 -0.137954
N23   N     N_R   0.282546 0.530010 0.238692 0.082309
O39   O     O_R   0.360216 0.443778 0.270499 -0.253539
O40   O     O_R   0.253251 0.514505 0.184818 -0.319052

loop_
_geom_bond_atom_site_label_1
_geom_bond_atom_site_label_2
_geom_bond_distance
_ccdc_geom_bond_type
C39   C40   1.389140 A    
C46   C48   1.400699 A    
O11   Cr3   2.027644 S    
C35   C58   1.474291 S    
C18   C21   1.440889 S    
O15   C55   1.269704 A    
C19   C20   1.441726 S    
C8    C11   1.411096 A    
O23   Cr5   1.912168 S    
C6    C36   1.470988 S    
N19   O37   1.301472 A    
O4    Cr2   1.933398 S    
C56   O18   1.276279 A    
C40   C41   1.425955 A    
C4    O9    1.265624 A    
N6    O30   1.302034 A    
C30   C33   1.443940 S    
O8    Cr1   1.917160 S    
C43   N6    1.443482 S    
C31   C63   1.447847 S    
C48   C70   1.450945 S    
Cr6   O26   1.979035 S    
C12   C13   1.428229 A    
C8    C10   1.410918 A    
O15   Cr4   1.920199 S    
C66   N9    1.157558 T    
N11   O34   1.301407 A    
C16   C73   1.448836 S    
C5    O11   1.296758 A    
C38   C66   1.454755 S    
C65   N7    1.157564 T    
C45   C53   1.406675 A    
C18   C19   1.353219 D    
C25   C26   1.447281 S    
C5    C34   1.427248 S    
N8    O31   1.300614 A    
C15   N11   1.439094 S    
C10   N19   1.440117 S    
C24   C27   1.438381 S    
C18   C76   1.447633 S    
O25   Cr6   1.935318 S    
C45   C60   1.483240 S    
C53   C68   1.449856 S    
C51   C52   1.414493 A    
C31   C32   1.438002 S    
C53   C54   1.399838 A    
O22   Cr5   2.063243 S    
C36   C39   1.383344 A    
O16   Cr5   2.029917 S    
C49   C71   1.451986 S    
O20   C60   1.281907 A    
C32   C34   1.202036 T    
C49   C50   1.397438 A    
C46   C49   1.402078 A    
C43   C44   1.389711 A    
Cr3   O13   1.966265 S    
C26   C28   1.202287 T    
C24   C62   1.447991 S    
C36   C38   1.414593 A    
O6    Cr3   1.911921 S    
O17   C56   1.275606 A    
C9    C13   1.418430 A    
C1    C28   1.427584 S    
O1    Cr1   2.034053 S    
C11   C74   1.450162 S    
C55   O16   1.264189 A    
C50   C51   1.421162 A    
C7    C14   1.395788 A    
O10   Cr2   1.911708 S    
C54   N14   1.441491 S    
C12   C16   1.432905 A    
Cr1   O13   1.978092 S    
O1    C3    1.265801 A    
C75   N21   1.157427 T    
C25   N23   1.444698 S    
N23   O40   1.301421 A    
C4    C46   1.476516 S    
C37   C41   1.428932 A    
C59   O24   1.263192 A    
O6    C3    1.269468 A    
C23   C27   1.202185 T    
O18   Cr6   2.056891 S    
C9    C10   1.397241 A    
O23   C59   1.273337 A    
C17   C21   1.202149 T    
C40   C44   1.407231 A    
C45   C52   1.419914 A    
C7    C15   1.409106 A    
C13   C14   1.408183 A    
C19   C75   1.447353 S    
Cr5   O26   1.965871 S    
O14   Cr4   2.043366 S    
C58   O22   1.263593 A    
C29   C33   1.201232 T    
O7    Cr1   2.050666 S    
C2    C8    1.486624 S    
C62   N2    1.156921 T    
N4    O28   1.301598 A    
O12   C6    1.264854 A    
C35   C42   1.412091 A    
C7    C56   1.483036 S    
O19   Cr6   1.910759 S    
O20   Cr4   2.037909 S    
C24   C25   1.356428 D    
Cr2   O13   1.978900 S    
C63   N3    1.157335 T    
C73   N18   1.157763 T    
C35   C43   1.407495 A    
C1    O3    1.271072 A    
C9    C72   1.451971 S    
C47   C51   1.435093 A    
C11   C12   1.426653 A    
C68   N12   1.157525 T    
Cr4   O26   1.975874 S    
N14   O36   1.300694 A    
C71   N16   1.156874 T    
N19   O38   1.301614 A    
C30   N4    1.445033 S    
C30   C31   1.356679 D    
C52   C67   1.450329 S    
O9    Cr2   2.047929 S    
O2    Cr1   1.930819 S    
C76   N22   1.157334 T    
C15   C16   1.411168 A    
N23   O39   1.300304 A    
C72   N17   1.157650 T    
O8    C4    1.286709 A    
C37   C38   1.407756 A    
C2    O5    1.266748 A    
N6    O29   1.301078 A    
O21   Cr4   1.927912 S    
C47   C48   1.409748 A    
C20   C22   1.202365 T    
O2    C1    1.276088 A    
C14   C61   1.452643 S    
O5    Cr3   2.064489 S    
N11   O33   1.301464 A    
C23   C57   1.427079 S    
C37   C65   1.452163 S    
C41   C42   1.422779 A    
O4    C2    1.280956 A    
O7    C6    1.281137 A    
C47   C69   1.451607 S    
C39   H1    1.081842 S    
C3    C22   1.427987 S    
C29   C59   1.426378 S    
C50   C54   1.420043 A    
C61   N1    1.157623 T    
N8    O32   1.297684 A    
C44   N8    1.431454 S    
C74   N20   1.157882 T    
O17   Cr5   1.946641 S    
O19   C57   1.273860 A    
O3    Cr2   2.029938 S    
C17   C55   1.427296 S    
O25   C60   1.275178 A    
O14   C57   1.266423 A    
O21   C58   1.275354 A    
C64   N5    1.157950 T    
O10   C5    1.302632 A    
N4    O27   1.301376 A    
C42   C64   1.450488 S    
C67   N10   1.157034 T    
C69   N13   1.157488 T    
O24   Cr6   2.026406 S    
C70   N15   1.157477 T    
N14   O35   1.300468 A    
O12   Cr3   1.945101 S    
