data_mof_unit_40627.cif
_audit_creation_date              2012-12-10T18:58:37-0500
_audit_creation_method            fapswitch 2.2
_symmetry_space_group_name_H-M    P1
_symmetry_Int_Tables_number       1
_space_group_crystal_system       triclinic
_cell_length_a                    10.767006
_cell_length_b                    9.796506
_cell_length_c                    17.285636
_cell_angle_alpha                 90.362389
_cell_angle_beta                  89.871824
_cell_angle_gamma                 90.432653
_cell_volume                      1823.17945176

loop_
_atom_site_label
_atom_site_type_symbol
_atom_type_description
_atom_site_fract_x
_atom_site_fract_y
_atom_site_fract_z
_atom_type_partial_charge
C1    C     C_R   0.259095 0.499721 0.502441 0.886758
C2    C     C_R   0.739697 0.500907 0.501894 0.879777
C3    C     C_1   0.622133 0.501224 0.965368 0.217802
C4    C     C_1   0.620494 0.505840 0.034376 0.223062
C5    C     C_R   0.056759 0.378471 0.523008 0.056809
C6    C     C_R   0.938791 0.615459 0.477830 0.056528
C7    C     C_R   0.932625 0.394461 0.543391 0.058901
C8    C     C_R   0.061214 0.626213 0.501066 0.052962
C9    C     C_R   0.502862 0.499625 0.352828 0.913288
C10   C     C_R   0.504330 0.500395 0.647164 0.905727
C11   C     C_R   0.871205 0.503872 0.507859 -0.140485
C12   C     C_R   0.125557 0.500833 0.509235 -0.159804
C13   C     C_R   0.627602 0.614896 0.839457 0.417058
C14   C     C_R   0.633480 0.395391 0.161003 0.355139
C15   C     C_R   0.539339 0.621307 0.149383 0.399909
C16   C     C_R   0.556303 0.377494 0.849157 0.358384
C17   C     C_R   0.587669 0.616833 0.763026 -0.240343
C18   C     C_R   0.593972 0.390427 0.237583 -0.285374
C19   C     C_R   0.503328 0.615075 0.226598 -0.258863
C20   C     C_R   0.520053 0.381044 0.772018 -0.307544
C21   C     C_R   0.533086 0.500918 0.729375 -0.171698
C22   C     C_R   0.528945 0.499508 0.270359 -0.174597
C23   C     C_R   0.553636 0.073180 0.559234 -0.081163
C24   C     C_R   0.447320 0.926847 0.440490 -0.094187
C25   C     C_R   0.447695 0.070989 0.440386 -0.068261
C26   C     C_R   0.553821 0.929019 0.559162 -0.073658
C27   C     C_R   0.608249 0.495905 0.883516 -0.169905
C28   C     C_R   0.603143 0.509965 0.116027 -0.178160
H1    H     H_    0.601553 0.708475 0.729249 0.202728
H2    H     H_    0.617171 0.302686 0.272404 0.205848
H3    H     H_    0.456003 0.700646 0.253073 0.209643
H4    H     H_    0.481280 0.290380 0.744972 0.195757
H5    H     H_    0.596594 0.128812 0.606484 0.142661
H6    H     H_    0.404707 0.871240 0.393128 0.143994
H7    H     H_    0.405930 0.124933 0.392792 0.152752
H8    H     H_    0.596925 0.875126 0.606323 0.146496
N1    N     N_R   0.500000 0.857200 0.500000 -0.084619
N2    N     N_R   0.500000 0.142800 0.500000 -0.084529
O1    O     O_R   0.316770 0.614620 0.500000 -0.618607
O2    O     O_R   0.683230 0.385380 0.500000 -0.626780
O3    O     O_R   0.683230 0.614620 0.500000 -0.616745
O4    O     O_R   0.316770 0.385380 0.500000 -0.625314
O5    O     O_R   0.500010 0.614710 0.389120 -0.619192
O6    O     O_R   0.499990 0.385290 0.610880 -0.627945
O7    O     O_R   0.499990 0.614710 0.610880 -0.622150
O8    O     O_R   0.500010 0.385290 0.389120 -0.618776
Zn1   Zn    Zn3+2 0.500000 0.653120 0.500000 0.937032
Zn2   Zn    Zn3+2 0.500000 0.346880 0.500000 0.932331
S1    S     S_3+6 0.698564 0.764594 0.877190 0.090920
O9    O     O_2   0.599052 0.856048 0.908762 -0.131868
O10   O     O_2   0.788814 0.730629 0.940308 -0.252830
O11   O     O_3   0.774487 0.846785 0.806007 -0.585580
H9    H     H_    0.803561 0.933417 0.829912 0.402827
S2    S     S_3+6 0.719668 0.255653 0.124590 0.093216
O12   O     O_2   0.630741 0.150399 0.093245 -0.134793
O13   O     O_2   0.806934 0.299604 0.061319 -0.257150
O14   O     O_3   0.801998 0.184783 0.196309 -0.530527
H10   H     H_    0.858426 0.258371 0.214779 0.340191
S3    S     S_3+6 0.506587 0.771265 0.096964 0.086591
O15   O     O_2   0.627382 0.836157 0.072944 -0.168777
O16   O     O_2   0.431888 0.735118 0.026296 -0.257812
O17   O     O_3   0.426270 0.882520 0.151759 -0.555944
H11   H     H_    0.415274 0.963572 0.118564 0.420025
S4    S     S_3+6 0.536290 0.223241 0.900689 0.085595
O18   O     O_2   0.661602 0.172690 0.924901 -0.166665
O19   O     O_2   0.458456 0.247895 0.971650 -0.271159
O20   O     O_3   0.467286 0.103065 0.845268 -0.507261
H12   H     H_    0.378602 0.129057 0.843563 0.356183
C29   C     C_3   0.101271 0.234957 0.502954 -0.391203
C30   C     C_3   0.114807 0.218908 0.414620 -0.304696
C31   C     C_3   0.118760 0.069296 0.390163 -0.903908
H13   H     H_    0.192438 0.015437 0.422121 0.252075
H14   H     H_    0.027781 0.019813 0.402151 0.255165
H15   H     H_    0.138164 0.061479 0.327187 0.276052
H16   H     H_    0.034416 0.266731 0.385195 0.222557
H17   H     H_    0.200438 0.270798 0.393929 0.234605
H18   H     H_    0.187207 0.207398 0.534127 0.218935
H19   H     H_    0.032711 0.157327 0.522090 0.197933
C32   C     C_3   0.888726 0.715387 0.418017 -0.408788
C33   C     C_3   0.848108 0.641902 0.343300 -0.381855
C34   C     C_3   0.801382 0.743141 0.283447 -0.715177
H20   H     H_    0.717100 0.795643 0.305360 0.266066
H21   H     H_    0.874328 0.820327 0.270134 0.274394
H22   H     H_    0.777457 0.687784 0.229213 0.254211
H23   H     H_    0.928417 0.585702 0.318531 0.224550
H24   H     H_    0.773022 0.566780 0.354907 0.221200
H25   H     H_    0.813078 0.778834 0.442353 0.231215
H26   H     H_    0.962892 0.788024 0.400357 0.192538
C35   C     C_3   0.868402 0.297711 0.600269 -0.400512
C36   C     C_3   0.945496 0.276492 0.673859 -0.400140
C37   C     C_3   0.876358 0.185482 0.731269 -0.781126
H27   H     H_    0.787474 0.233348 0.749155 0.273462
H28   H     H_    0.856672 0.084043 0.704737 0.261876
H29   H     H_    0.934374 0.170803 0.783540 0.271742
H30   H     H_    0.035633 0.228114 0.659617 0.224236
H31   H     H_    0.964809 0.376993 0.701772 0.244453
H32   H     H_    0.779013 0.341274 0.620366 0.220208
H33   H     H_    0.847171 0.198336 0.571792 0.201246
C38   C     C_3   0.112254 0.767752 0.522150 -0.400667
C39   C     C_3   0.150734 0.776155 0.607701 -0.290477
C40   C     C_3   0.198035 0.918875 0.628728 -0.853924
H34   H     H_    0.277429 0.948002 0.591049 0.266108
H35   H     H_    0.122592 0.994443 0.622031 0.244336
H36   H     H_    0.229418 0.920739 0.689871 0.268513
H37   H     H_    0.069128 0.751620 0.644783 0.226626
H38   H     H_    0.224450 0.701497 0.621038 0.238947
H39   H     H_    0.188410 0.799001 0.482762 0.222973
H40   H     H_    0.039348 0.846328 0.515031 0.188421

loop_
_geom_bond_atom_site_label_1
_geom_bond_atom_site_label_2
_ccdc_geom_bond_type
C40   H34   S    
C17   H1    S    
C14   C18   A    
C29   H18   S    
C19   H3    S    
C32   H25   S    
C34   H20   S    
C6    C32   S    
C36   H30   S    
C15   C19   A    
C38   H40   S    
C39   H37   S    
O17   H11   S    
C8    C38   S    
C9    C22   S    
C2    O3    A    
C7    C35   S    
C23   C26   A    
C33   H24   S    
C34   H21   S    
C23   H5    S    
C5    C29   S    
C30   C31   S    
C18   H2    S    
N1    Zn1   S    
N2    Zn2   S    
C8    C12   A    
C16   C27   A    
S3    O15   D    
C40   H35   S    
C29   H19   S    
C1    C12   S    
C2    C11   S    
C32   H26   S    
C4    C28   S    
O8    Zn2   S    
O7    Zn1   S    
C10   C21   S    
S2    O13   D    
S3    O16   D    
C9    O5    A    
C10   O6    A    
O20   H12   S    
S4    O20   S    
C19   C22   A    
C24   C25   A    
C5    C12   A    
C6    C11   A    
C5    C7    A    
C6    C8    A    
S1    O10   D    
C24   H6    S    
C35   H32   S    
S4    O19   D    
C7    C11   A    
C33   H23   S    
C25   N2    A    
C37   H28   S    
C38   C39   S    
C16   C20   A    
S1    O11   S    
C10   O7    A    
C24   N1    A    
O3    Zn1   S    
O4    Zn2   S    
C25   H7    S    
C13   S1    S    
C26   H8    S    
C14   S2    S    
C40   H36   S    
C30   H17   S    
C15   C28   A    
C3    C4    T    
C37   H27   S    
C34   H22   S    
O11   H9    S    
O1    Zn1   S    
C20   H4    S    
O2    Zn2   S    
S2    O12   D    
S3    O17   S    
C18   C22   A    
C15   S3    S    
C33   C34   S    
C31   H15   S    
C26   N1    A    
C36   H31   S    
C23   N2    A    
C38   H39   S    
C39   H38   S    
C13   C17   A    
C35   H33   S    
S4    O18   D    
C3    C27   S    
C35   C36   S    
C31   H13   S    
C37   H29   S    
C36   C37   S    
C39   C40   S    
C29   C30   S    
C17   C21   A    
C1    O1    A    
C32   C33   S    
C2    O2    A    
C1    O4    A    
C9    O8    A    
C20   C21   A    
S1    O9    D    
C31   H14   S    
C30   H16   S    
C13   C27   A    
C16   S4    S    
C14   C28   A    
O14   H10   S    
O5    Zn1   S    
O6    Zn2   S    
S2    O14   S    
