data_mof_unit_37577.cif
_audit_creation_date              2012-12-10T18:01:19-0500
_audit_creation_method            fapswitch 2.2
_symmetry_space_group_name_H-M    P1
_symmetry_Int_Tables_number       1
_space_group_crystal_system       triclinic
_cell_length_a                    9.513711
_cell_length_b                    10.794862
_cell_length_c                    17.368126
_cell_angle_alpha                 90.313799
_cell_angle_beta                  85.953798
_cell_angle_gamma                 90.379475
_cell_volume                      1779.18524225

loop_
_atom_site_label
_atom_site_type_symbol
_atom_type_description
_atom_site_fract_x
_atom_site_fract_y
_atom_site_fract_z
_atom_type_partial_charge
C1    C     C_R   0.500908 0.737694 0.498111 0.790875
C2    C     C_R   0.499092 0.262306 0.501889 0.790875
C3    C     C_R   0.600512 0.938681 0.448453 0.142613
C4    C     C_R   0.399488 0.061319 0.551547 0.142613
C5    C     C_R   0.597003 0.067752 0.452953 -0.189716
C6    C     C_R   0.402997 0.932248 0.547047 -0.189716
C7    C     C_R   0.497641 0.128253 0.502784 -0.125597
C8    C     C_R   0.502359 0.871747 0.497216 -0.125597
C9    C     C_R   0.919694 0.573680 0.550138 -0.030293
C10   C     C_R   0.080306 0.426320 0.449862 -0.030293
C11   C     C_R   0.068566 0.573618 0.550137 -0.021434
C12   C     C_R   0.931434 0.426382 0.449862 -0.021434
C13   C     C_R   0.481647 0.501604 0.649897 0.783775
C14   C     C_R   0.518353 0.498396 0.350103 0.783776
C15   C     C_R   0.472100 0.507755 0.734106 -0.028555
C16   C     C_R   0.527900 0.492245 0.265894 -0.028555
C17   C     C_R   0.594349 0.529329 0.772890 -0.203366
C18   C     C_R   0.405651 0.470671 0.227110 -0.203366
C19   C     C_R   0.586891 0.535661 0.852797 -0.149540
C20   C     C_R   0.413109 0.464339 0.147203 -0.149541
C21   C     C_R   0.457159 0.518705 0.895191 0.193884
C22   C     C_R   0.542841 0.481295 0.104809 0.193884
C23   C     C_R   0.334300 0.500701 0.856578 -0.170397
C24   C     C_R   0.665700 0.499299 0.143422 -0.170397
C25   C     C_R   0.341613 0.494771 0.776329 -0.202886
C26   C     C_R   0.658387 0.505229 0.223671 -0.202886
C27   C     C_2   0.447138 0.519726 0.979721 -0.230245
C28   C     C_2   0.552862 0.480274 0.020279 -0.230245
Cu1   Cu    Cu3+1 0.359340 0.499980 0.500000 0.935322
Cu2   Cu    Cu3+1 0.640660 0.500020 0.500000 0.935322
H1    H     H_    0.695878 0.542310 0.741563 0.148216
H2    H     H_    0.304121 0.457690 0.258437 0.148216
H3    H     H_    0.754296 0.520923 0.252488 0.149368
H4    H     H_    0.245704 0.479077 0.747512 0.149368
H5    H     H_    0.651131 0.449073 0.991183 0.143724
H6    H     H_    0.348869 0.550927 0.008817 0.143724
H7    H     H_    0.233219 0.488930 0.888610 0.120593
H8    H     H_    0.766781 0.511070 0.111390 0.120593
H9    H     H_    0.317451 0.444870 0.119044 0.121540
H10   H     H_    0.682549 0.555130 0.880956 0.121540
H11   H     H_    0.669942 0.123313 0.416948 0.158229
H12   H     H_    0.330058 0.876687 0.583052 0.158229
H13   H     H_    0.858861 0.632825 0.590211 0.117931
H14   H     H_    0.141139 0.367175 0.409789 0.117931
H15   H     H_    0.120026 0.632711 0.590220 0.115942
H16   H     H_    0.879974 0.367289 0.409780 0.115942
N1    N     N_R   0.147930 0.499970 0.499980 -0.158002
N2    N     N_R   0.852070 0.500030 0.500020 -0.158002
O1    O     O_R   0.381260 0.680340 0.500000 -0.577214
O2    O     O_R   0.618740 0.319660 0.500000 -0.577215
O3    O     O_R   0.618830 0.680370 0.500010 -0.592182
O4    O     O_R   0.381170 0.319630 0.499990 -0.592182
O5    O     O_R   0.367440 0.500000 0.613600 -0.594110
O6    O     O_R   0.632560 0.500000 0.386400 -0.594111
O7    O     O_R   0.605010 0.500030 0.613600 -0.584484
O8    O     O_R   0.394990 0.499970 0.386400 -0.584484
C29   C     C_3   0.704275 0.871309 0.391827 -0.357444
C30   C     C_3   0.781762 0.951684 0.329924 -0.881211
H17   H     H_    0.705380 0.003734 0.297191 0.256458
H18   H     H_    0.855505 0.016824 0.356402 0.247379
H19   H     H_    0.844707 0.891376 0.288748 0.248860
H20   H     H_    0.784680 0.824732 0.424706 0.223016
H21   H     H_    0.645914 0.798923 0.361017 0.198954
C31   C     C_3   0.295724 0.128691 0.608173 -0.357444
C32   C     C_3   0.218238 0.048316 0.670076 -0.881212
H22   H     H_    0.144495 0.983176 0.643598 0.247379
H23   H     H_    0.294620 0.996266 0.702808 0.256458
H24   H     H_    0.155294 0.108624 0.711252 0.248860
H25   H     H_    0.354085 0.201077 0.638983 0.198954
H26   H     H_    0.215320 0.175268 0.575293 0.223016

loop_
_geom_bond_atom_site_label_1
_geom_bond_atom_site_label_2
_ccdc_geom_bond_type
C22   C28   S    
C24   H8    S    
Cu2   O3    S    
C5    C7    A    
C13   O5    A    
C29   H21   S    
Cu1   Cu2   S    
Cu1   O8    S    
C31   H26   S    
C27   H6    S    
C1    C8    S    
C9    C11   A    
Cu2   O7    S    
C4    C31   S    
C26   H3    S    
C14   O8    A    
C2    C7    S    
C25   H4    S    
C12   N2    A    
C32   H24   S    
C31   C32   S    
Cu2   O6    S    
C30   H19   S    
C13   C15   S    
C11   N1    A    
Cu2   O2    S    
C3    C5    A    
C29   H20   S    
C16   C18   A    
Cu1   O1    S    
C31   H25   S    
C16   C26   A    
C1    O3    A    
C29   C30   S    
C2    O4    A    
Cu1   N1    S    
C4    C7    A    
C10   C12   A    
C22   C24   A    
C4    C6    A    
C14   O6    A    
C23   H7    S    
C24   C26   A    
Cu1   O5    S    
C18   C20   A    
C21   C23   A    
C3    C8    A    
C21   C27   S    
C17   H1    S    
C14   C16   S    
C11   H15   S    
C9    H13   S    
C19   H10   S    
C30   H18   S    
C3    C29   S    
C10   N1    A    
C23   C25   A    
C18   H2    S    
C9    N2    A    
C12   H16   S    
C32   H22   S    
C6    H12   S    
Cu2   N2    S    
C27   C28   D    
C15   C17   A    
C20   H9    S    
C5    H11   S    
C6    C8    A    
C15   C25   A    
C2    O2    A    
C17   C19   A    
C30   H17   S    
C19   C21   A    
C10   H14   S    
C32   H23   S    
C28   H5    S    
C20   C22   A    
C13   O7    A    
Cu1   O4    S    
C1    O1    A    
