data_mof_unit_11515.cif
_audit_creation_date              2012-12-10T18:21:21-0500
_audit_creation_method            fapswitch 2.2
_symmetry_space_group_name_H-M    P1
_symmetry_Int_Tables_number       1
_space_group_crystal_system       triclinic
_cell_length_a                    14.936045
_cell_length_b                    14.005237
_cell_length_c                    10.731003
_cell_angle_alpha                 90.275603
_cell_angle_beta                  92.682925
_cell_angle_gamma                 90.23314
_cell_volume                      2242.23460011

loop_
_atom_site_label
_atom_site_type_symbol
_atom_type_description
_atom_site_fract_x
_atom_site_fract_y
_atom_site_fract_z
_atom_type_partial_charge
C1    C     C_R   0.326980 0.500062 0.498888 0.867309
C2    C     C_3   0.584145 0.451505 0.934117 -0.407513
C3    C     C_R   0.809934 0.500047 0.390137 -0.238438
C4    C     C_R   0.768769 0.500269 0.503379 -0.103260
C5    C     C_R   0.817812 0.498087 0.618473 0.102871
C6    C     C_R   0.911784 0.503390 0.617455 0.103509
C7    C     C_R   0.953760 0.501260 0.501478 -0.030095
C8    C     C_R   0.902687 0.496633 0.386824 -0.026491
C9    C     C_R   0.965086 0.509981 0.729147 -0.189441
C10   C     C_R   0.057603 0.509878 0.727470 -0.211210
C11   C     C_R   0.098928 0.505171 0.614196 0.137906
C12   C     C_R   0.498801 0.499661 0.257030 0.823873
C13   C     C_R   0.047269 0.502277 0.500482 0.071693
C14   C     C_R   0.089629 0.500276 0.385936 0.055067
C15   C     C_R   0.039241 0.493807 0.273442 -0.299634
C16   C     C_R   0.945918 0.489123 0.272499 0.429622
C17   C     C_R   0.191518 0.503139 0.612645 -0.264589
C18   C     C_R   0.232029 0.500834 0.498993 -0.033760
C19   C     C_R   0.182424 0.502484 0.386049 -0.237951
C20   C     C_R   0.563636 0.798207 0.437551 -0.066602
C21   C     C_R   0.562712 0.201923 0.435726 -0.065277
C22   C     C_R   0.437087 0.798095 0.563743 -0.059675
C23   C     C_R   0.437381 0.201856 0.564288 -0.059553
C24   C     C_R   0.435687 0.898771 0.565523 0.013466
C25   C     C_R   0.435773 0.101190 0.565681 0.013029
C26   C     C_R   0.673063 0.500109 0.498058 0.879223
C27   C     C_R   0.500202 0.949407 0.500323 0.086635
C28   C     C_R   0.500120 0.050637 0.500160 0.086303
C29   C     C_R   0.564953 0.898864 0.435584 0.012577
C30   C     C_R   0.564445 0.101265 0.434587 0.012200
C31   C     C_R   0.371667 0.949774 0.630634 -0.202941
C32   C     C_R   0.371765 0.050114 0.630814 -0.203935
C33   C     C_R   0.628747 0.050267 0.370016 -0.200012
C34   C     C_R   0.629158 0.949946 0.370818 -0.201814
C35   C     C_R   0.500398 0.500472 0.742411 0.847384
C36   C     C_3   0.506672 0.605330 0.070926 -0.020041
C37   C     C_3   0.409796 0.450988 0.061462 -0.014412
C38   C     C_3   0.494817 0.605207 0.928183 -0.421002
C39   C     C_3   0.414692 0.448419 0.917687 -0.435139
C40   C     C_3   0.580464 0.442411 0.076030 -0.372139
C41   C     C_3   0.498879 0.498998 0.120074 0.037274
C42   C     C_3   0.498896 0.501552 0.878177 0.105839
H1    H     H_    0.096850 0.513502 0.814983 0.162884
H2    H     H_    0.232215 0.504006 0.699139 0.118247
H3    H     H_    0.215920 0.505247 0.298842 0.123390
H4    H     H_    0.073124 0.489901 0.186449 0.191215
H5    H     H_    0.613159 0.758047 0.389069 0.148281
H6    H     H_    0.611308 0.242194 0.385450 0.143034
H7    H     H_    0.388143 0.757836 0.613387 0.137355
H8    H     H_    0.388737 0.242084 0.614458 0.137017
H9    H     H_    0.321566 0.912092 0.681452 0.143635
H10   H     H_    0.321756 0.087740 0.681801 0.143623
H11   H     H_    0.678853 0.087942 0.319197 0.147122
H12   H     H_    0.679682 0.912373 0.320804 0.146877
H13   H     H_    0.450124 0.647029 0.107737 0.163801
H14   H     H_    0.353497 0.499572 0.082697 0.139876
H15   H     H_    0.429139 0.637858 0.899696 0.157086
H16   H     H_    0.353270 0.481584 0.874208 0.135108
H17   H     H_    0.547053 0.649787 0.885594 0.200429
H18   H     H_    0.417324 0.374307 0.880269 0.182631
H19   H     H_    0.643829 0.469759 0.121942 0.208962
H20   H     H_    0.576663 0.365864 0.101366 0.184366
H21   H     H_    0.643575 0.495399 0.914641 0.188980
H22   H     H_    0.592182 0.379413 0.892137 0.190853
H23   H     H_    0.768060 0.502193 0.305149 0.202199
H24   H     H_    0.936565 0.515220 0.819150 0.229362
N1    N     N_R   0.500070 0.750030 0.500050 -0.103457
N2    N     N_R   0.500070 0.249970 0.500050 -0.103587
O1    O     O_R   0.367860 0.580280 0.500020 -0.617089
O2    O     O_R   0.367860 0.419720 0.500020 -0.626186
O3    O     O_R   0.500000 0.580270 0.314790 -0.632654
O4    O     O_R   0.500000 0.419730 0.314790 -0.614976
O5    O     O_R   0.632160 0.580270 0.499960 -0.626066
O6    O     O_R   0.632160 0.419730 0.499960 -0.611118
O7    O     O_R   0.500030 0.580270 0.685200 -0.630597
O8    O     O_R   0.500030 0.419730 0.685200 -0.625152
Zn1   Zn    Zn3+2 0.500020 0.607200 0.499990 0.936992
Zn2   Zn    Zn3+2 0.500020 0.392800 0.499990 0.939132
C43   C     C_3   0.596692 0.657280 0.111143 -0.339371
C44   C     C_3   0.587624 0.765900 0.104700 -0.896347
H25   H     H_    0.569708 0.789195 0.008066 0.262292
H26   H     H_    0.535201 0.790723 0.167160 0.263701
H27   H     H_    0.652388 0.799828 0.134945 0.252417
H28   H     H_    0.621106 0.638740 0.206914 0.220932
H29   H     H_    0.651264 0.635266 0.050334 0.234653
C45   C     C_3   0.386162 0.348352 0.108886 -0.372312
C46   C     C_3   0.311631 0.349021 0.200729 -0.862642
H30   H     H_    0.329676 0.397693 0.278533 0.276610
H31   H     H_    0.247864 0.372933 0.153602 0.246255
H32   H     H_    0.301836 0.276142 0.238229 0.259811
H33   H     H_    0.361042 0.300867 0.031618 0.205508
H34   H     H_    0.445139 0.311081 0.151221 0.229090
S1    S     S_3+6 0.886748 0.467134 0.127865 -0.045544
O9    O     O_2   0.839292 0.556625 0.086027 -0.330011
O10   O     O_2   0.950283 0.437337 0.030548 -0.346760
O11   O     O_3   0.810553 0.379789 0.143678 -0.594444
H35   H     H_    0.845301 0.324806 0.177301 0.353955
C47   C     C_3   0.770279 0.484922 0.739631 -0.439610
C48   C     C_3   0.783215 0.383260 0.788915 -0.736835
H36   H     H_    0.855028 0.363190 0.795537 0.276634
H37   H     H_    0.757042 0.377333 0.883506 0.285180
H38   H     H_    0.746548 0.331807 0.725893 0.242026
H39   H     H_    0.793399 0.538549 0.810534 0.232944
H40   H     H_    0.697533 0.497688 0.726472 0.189439

loop_
_geom_bond_atom_site_label_1
_geom_bond_atom_site_label_2
_ccdc_geom_bond_type
C46   H30   S    
S1    O9    D    
O2    Zn2   S    
C20   N1    A    
O1    Zn1   S    
N1    Zn1   S    
C24   C27   A    
C43   H29   S    
C6    C9    A    
C7    C8    A    
C25   C28   A    
C35   O7    A    
C16   S1    S    
O8    Zn2   S    
C38   C42   S    
C45   H33   S    
C43   H28   S    
C27   C29   A    
C47   H39   S    
C26   O5    A    
C40   H20   S    
C18   C19   A    
C35   C42   S    
C9    H24   S    
C32   H10   S    
O4    Zn2   S    
C37   H14   S    
C31   C32   A    
C9    C10   A    
C21   H6    S    
C25   C32   A    
C12   O4    A    
C8    C16   A    
C13   C14   A    
N2    Zn2   S    
C36   C41   S    
C3    H23   S    
C44   H27   S    
C2    H22   S    
C17   C18   A    
C39   C42   S    
C20   C29   A    
C33   H11   S    
C35   O8    A    
C37   C45   S    
C44   H26   S    
C3    C8    A    
C45   C46   S    
C4    C5    A    
C23   H8    S    
C39   H16   S    
C29   C34   A    
C1    O1    A    
C40   H19   S    
C38   H17   S    
C23   N2    A    
C12   C41   S    
C38   H15   S    
C48   H36   S    
O11   H35   S    
C33   C34   A    
C1    C18   S    
O7    Zn1   S    
C22   H7    S    
C40   C41   S    
C48   H37   S    
C12   O3    A    
C34   H12   S    
S1    O11   S    
C46   H31   S    
C21   N2    A    
C22   C24   A    
C3    C4    A    
O3    Zn1   S    
C2    H21   S    
C11   C17   A    
C30   C33   A    
C10   H1    S    
C14   C19   A    
C31   H9    S    
C44   H25   S    
C36   C43   S    
C4    C26   S    
C19   H3    S    
C6    C7    A    
C21   C30   A    
C1    O2    A    
C36   C38   S    
C24   C31   A    
C37   C39   S    
C36   H13   S    
C45   H34   S    
C11   C13   A    
C5    C6    A    
C2    C42   S    
C47   H40   S    
C39   H18   S    
C28   C30   A    
C26   O6    A    
C23   C25   A    
C37   C41   S    
C22   N1    A    
C17   H2    S    
C20   H5    S    
C10   C11   A    
C43   C44   S    
C2    C40   S    
C7    C13   A    
C48   H38   S    
C5    C47   S    
S1    O10   D    
C47   C48   S    
O6    Zn2   S    
C46   H32   S    
C27   C28   A    
O5    Zn1   S    
C14   C15   A    
C15   H4    S    
C15   C16   A    
