data_mof_unit_51523.cif
_audit_creation_date              2013-03-05T15:50:44-0500
_audit_creation_method            fapswitch 2.2
_symmetry_space_group_name_H-M    P1
_symmetry_Int_Tables_number       1
_space_group_crystal_system       triclinic
_cell_length_a                    10.72205
_cell_length_b                    12.101344
_cell_length_c                    12.793054
_cell_angle_alpha                 94.231973
_cell_angle_beta                  90.230725
_cell_angle_gamma                 85.947875
_cell_volume                      1651.24911418

loop_
_atom_site_label
_atom_site_type_symbol
_atom_site_description
_atom_site_fract_x
_atom_site_fract_y
_atom_site_fract_z
_atom_type_partial_charge
O1    O     O_R   0.506240 0.421700 0.658830 -0.553871
O2    O     O_R   0.491240 0.609310 0.646410 -0.581518
C1    C     C_R   0.497258 0.522897 0.699978 0.974710
O3    O     O_R   0.692710 0.406190 0.506230 -0.562826
O4    O     O_R   0.677700 0.593810 0.493810 -0.581536
C2    C     C_R   0.742425 0.500014 0.501823 1.002743
Zn1   Zn    Zn3+2 0.510020 0.374730 0.508290 1.163023
Zn2   Zn    Zn3+2 0.489980 0.625270 0.491710 1.128799
O5    O     O_R   0.508760 0.390690 0.353590 -0.573241
O6    O     O_R   0.493760 0.578300 0.341170 -0.594914
O7    O     O_R   0.322300 0.406190 0.506190 -0.549292
O8    O     O_R   0.307290 0.593810 0.493770 -0.539543
C3    C     C_R   0.505277 0.476242 0.299487 1.006186
C4    C     C_R   0.258393 0.500408 0.505643 0.966619
C5    C     C_3   0.938285 0.385067 0.542941 -0.044175
H1    H     H_    0.898661 0.377296 0.622266 0.186261
C6    C     C_3   0.082140 0.387668 0.552501 0.661163
H2    H     H_    0.103706 0.428406 0.346724 0.286673
C7    C     C_3   0.930671 0.523487 0.395777 0.511356
C8    C     C_3   0.921319 0.593484 0.584844 0.330259
C9    C     C_3   0.879723 0.498943 0.504795 -0.433558
H3    H     H_    0.894253 0.576509 0.665661 0.141971
C10   C     C_3   0.122410 0.498662 0.509190 -0.438893
C11   C     C_3   0.073474 0.505694 0.395228 -0.347029
C12   C     C_3   0.064258 0.600446 0.578565 0.414249
H4    H     H_    0.105185 0.603443 0.658455 0.165052
H5    H     H_    0.904273 0.611656 0.381179 0.192702
H6    H     H_    0.112550 0.575257 0.357171 0.255684
C13   C     C_R   0.514921 0.456930 0.187131 -0.323578
C14   C     C_R   0.490820 0.538102 0.811336 -0.306348
C15   C     C_R   0.370344 0.594507 0.965803 -0.071939
C16   C     C_R   0.389326 0.599912 0.859573 0.591570
C17   C     C_R   0.576334 0.474658 0.867847 0.644749
C18   C     C_R   0.553914 0.462228 0.973301 -0.217895
C19   C     C_R   0.450855 0.525007 0.022638 -0.183244
C20   C     C_R   0.430649 0.519119 0.128481 0.677945
C21   C     C_R   0.607491 0.381584 0.137384 0.139442
C22   C     C_R   0.628860 0.386822 0.029898 0.266160
H7    H     H_    0.291203 0.642567 0.002722 0.255814
N1    N     N_R   0.523380 0.207800 0.519350 -0.243658
N2    N     N_R   0.476620 0.792180 0.480650 -0.217939
C23   C     C_R   0.424490 0.949830 0.380028 -0.117827
C24   C     C_R   0.425159 0.836260 0.393104 0.368674
C25   C     C_R   0.522848 0.862191 0.559098 0.449676
C26   C     C_R   0.527141 0.978409 0.546629 -0.288515
C27   C     C_R   0.476835 0.021989 0.455262 -0.186550
C28   C     C_R   0.475595 0.137750 0.442797 0.355982
C29   C     C_R   0.577795 0.166195 0.606083 0.675332
C30   C     C_R   0.580094 0.052607 0.621814 0.588662
H8    H     H_    0.379448 0.980849 0.311134 0.236744
N3    N     N_R   0.904451 0.286455 0.476761 0.334003
O9    O     O_R   0.944030 0.267952 0.380606 -0.158545
O10   O     O_R   0.849041 0.208572 0.519195 -0.277538
F1    F     F_    0.090473 0.698854 0.536407 -0.510014
F2    F     F_    0.326649 0.571535 0.174823 -0.599479
N4    N     N_R   0.674468 0.295626 0.191893 0.282649
O11   O     O_R   0.692180 0.195498 0.147426 -0.219366
O12   O     O_R   0.721311 0.316242 0.284254 -0.251475
N5    N     N_R   0.726571 0.315293 0.979342 0.299105
O13   O     O_R   0.841909 0.321951 0.009826 -0.220582
O14   O     O_R   0.698379 0.234163 0.912934 -0.161333
F3    F     F_    0.305444 0.660199 0.803020 -0.589134
F4    F     F_    0.679588 0.424973 0.817848 -0.569145
N6    N     N_R   0.425675 0.181614 0.349319 0.231734
O15   O     O_R   0.478124 0.150743 0.259449 -0.314958
O16   O     O_R   0.316449 0.235389 0.351026 -0.263504
F5    F     F_    0.632492 0.234647 0.678137 -0.517319
F6    F     F_    0.636198 0.016805 0.709638 -0.501514
N7    N     N_R   0.364463 0.769383 0.315002 0.252240
O17   O     O_R   0.388664 0.780153 0.216791 -0.319325
O18   O     O_R   0.260521 0.728327 0.338913 -0.265449
N8    N     N_R   0.556079 0.819636 0.657276 0.260449
O19   O     O_R   0.668860 0.777633 0.672757 -0.234989
O20   O     O_R   0.479670 0.838919 0.736294 -0.253418
N9    N     N_R   0.123646 0.376715 0.661794 0.176648
O21   O     O_R   0.212028 0.301970 0.682028 -0.253640
O22   O     O_R   0.067469 0.434334 0.740097 -0.404101
F7    F     F_    0.137121 0.297110 0.492042 -0.535420
F8    F     F_    0.881059 0.460475 0.313774 -0.579372
F9    F     F_    0.864045 0.695878 0.564206 -0.517517

loop_
_geom_bond_atom_site_label_1
_geom_bond_atom_site_label_2
_geom_bond_distance
_ccdc_geom_bond_type
N1    C28   1.369322 A    
C30   F6    1.357015 S    
C19   C20   1.379950 A    
C26   C27   1.407485 A    
Zn1   O7    2.022270 S    
C13   C20   1.388361 A    
C6    C10   1.578372 S    
H2    C11   1.112654 S    
C3    C13   1.442071 S    
C7    C9    1.556263 S    
O4    C2    1.298370 A    
O7    C4    1.288519 A    
C8    C12   1.543576 S    
C5    H1    1.114625 S    
N4    O11   1.301720 A    
N1    C29   1.364113 A    
C18   C19   1.418725 A    
C23   C27   1.394532 A    
N7    O18   1.298422 A    
O5    C3    1.285446 A    
C21   N4    1.442741 S    
N4    O12   1.296159 A    
Zn1   N1    2.030364 S    
C25   N8    1.426747 S    
C5    N3    1.477172 S    
C7    H5    1.113418 S    
C17   F4    1.360583 S    
N5    O13   1.301333 A    
C24   N7    1.423609 S    
O1    Zn1   1.967102 S    
N2    C24   1.372937 A    
O3    Zn1   2.022341 S    
N5    O14   1.301467 A    
C8    F9    1.386219 S    
N3    O9    1.301352 A    
C12   F1    1.389727 S    
N8    O20   1.300909 A    
C28   N6    1.430636 S    
C12   H4    1.109771 S    
C2    C9    1.471613 S    
N3    O10   1.301229 A    
N6    O16   1.298412 A    
C4    C10   1.460602 S    
C1    C14   1.424239 S    
N9    O21   1.301773 A    
C21   C22   1.401707 A    
C15   C16   1.381967 A    
C26   C30   1.412051 A    
Zn2   O8    2.022342 S    
C17   C18   1.392162 A    
Zn2   N2    2.030123 S    
C7    F8    1.378297 S    
N9    O22   1.301873 A    
C23   H8    1.081998 S    
O3    C2    1.292930 A    
C29   C30   1.402330 A    
C8    H3    1.112453 S    
N2    C25   1.378587 A    
C15   C19   1.401353 A    
C23   C24   1.396215 A    
C25   C26   1.431032 A    
C5    C6    1.549130 S    
C27   C28   1.420685 A    
C14   C17   1.389195 A    
C18   C22   1.411333 A    
O2    Zn2   2.002523 S    
C11   H6    1.110488 S    
O8    C4    1.298155 A    
N8    O19   1.298421 A    
O6    C3    1.306406 A    
O4    Zn2   2.022269 S    
N6    O15   1.299923 A    
C7    C11   1.531036 S    
C16   F3    1.358115 S    
C20   F2    1.359089 S    
C14   C16   1.395267 A    
C6    F7    1.390667 S    
C15   H7    1.083650 S    
O2    C1    1.289645 A    
C10   C12   1.558268 S    
C29   F5    1.353303 S    
N7    O17   1.301722 A    
C10   C11   1.553679 S    
C22   N5    1.435207 S    
Zn1   O5    2.002522 S    
C5    C9    1.583018 S    
C8    C9    1.565904 S    
Zn2   O6    1.967102 S    
C13   C21   1.418822 A    
C6    N9    1.478032 S    
O1    C1    1.294088 A    
