data_mof_unit_24749.cif
_audit_creation_date              2012-12-11T14:13:19-0500
_audit_creation_method            fapswitch 2.2
_symmetry_space_group_name_H-M    P1
_symmetry_Int_Tables_number       1
_space_group_crystal_system       triclinic
_cell_length_a                    11.592136
_cell_length_b                    18.687525
_cell_length_c                    10.027847
_cell_angle_alpha                 90.658899
_cell_angle_beta                  109.938957
_cell_angle_gamma                 90.023741
_cell_volume                      2041.94274491

loop_
_atom_site_label
_atom_site_type_symbol
_atom_type_description
_atom_site_fract_x
_atom_site_fract_y
_atom_site_fract_z
_atom_type_partial_charge
C1    C     C_R   0.073626 0.646294 0.140335 0.533911
C2    C     C_2   0.592533 0.077057 0.078736 -0.118909
C3    C     C_2   0.610028 0.430255 0.061793 -0.094571
C4    C     C_2   0.389963 0.569741 0.938225 -0.094719
C5    C     C_2   0.485291 0.966072 0.026048 -0.162116
C6    C     C_2   0.495383 0.041044 0.997541 -0.165182
C7    C     C_2   0.502215 0.461458 0.010106 -0.174256
C8    C     C_2   0.497775 0.538535 0.989906 -0.174257
C9    C     C_2   0.016287 0.924224 0.117421 -0.111082
C10   C     C_2   0.984044 0.075874 0.882709 -0.111568
C11   C     C_2   0.988397 0.422424 0.886557 -0.122015
C12   C     C_R   0.926376 0.353704 0.859665 0.533720
C13   C     C_2   0.011611 0.577573 0.113446 -0.121940
C14   C     C_2   0.023206 0.963696 0.009756 -0.149367
C15   C     C_2   0.977519 0.036472 0.990646 -0.149482
C16   C     C_2   0.978004 0.463496 0.991508 -0.163279
C17   C     C_2   0.022014 0.536500 0.008502 -0.163295
C18   C     C_R   0.437345 0.637525 0.375336 0.531492
C19   C     C_R   0.562655 0.362475 0.624666 0.531468
C20   C     C_R   0.529322 0.147140 0.556023 0.542675
C21   C     C_R   0.470645 0.852886 0.443894 0.541198
C22   C     C_R   0.374660 0.644457 0.964962 0.547146
C23   C     C_R   0.923527 0.145122 0.857885 0.553605
C24   C     C_R   0.625337 0.355541 0.035042 0.546692
C25   C     C_R   0.623165 0.145706 0.035759 0.559841
C26   C     C_R   0.376111 0.854989 0.965733 0.558209
C27   C     C_R   0.540869 0.438397 0.581764 -0.021565
C28   C     C_R   0.459133 0.561603 0.418243 -0.021654
C29   C     C_R   0.499005 0.924868 0.510400 -0.024883
C30   C     C_R   0.500861 0.075211 0.489229 -0.023882
C31   C     C_R   0.361846 0.450320 0.666251 -0.119626
C32   C     C_R   0.638159 0.549680 0.333760 -0.119600
C33   C     C_R   0.711975 0.922710 0.510603 -0.117319
C34   C     C_R   0.076555 0.854907 0.142144 0.553619
C35   C     C_R   0.287990 0.077392 0.489331 -0.116313
C36   C     C_R   0.247427 0.479579 0.650061 -0.071896
C37   C     C_R   0.752580 0.520420 0.349956 -0.071845
C38   C     C_R   0.801885 0.954068 0.467478 -0.059605
C39   C     C_R   0.198404 0.046110 0.533111 -0.059390
C40   C     C_R   0.199450 0.530932 0.548114 0.291551
C41   C     C_R   0.800556 0.469069 0.451906 0.291526
C42   C     C_R   0.791433 0.025244 0.427109 0.228040
C43   C     C_R   0.208855 0.974925 0.573418 0.228553
C44   C     C_R   0.264694 0.549720 0.461094 -0.051976
C45   C     C_R   0.430951 0.472180 0.580564 0.020241
C46   C     C_R   0.735310 0.450282 0.538924 -0.051963
C47   C     C_R   0.692039 0.065463 0.432750 -0.063384
C48   C     C_R   0.307965 0.934628 0.567134 -0.063318
C49   C     C_R   0.385338 0.528389 0.486732 -0.040458
C50   C     C_R   0.614664 0.471612 0.513279 -0.040459
C51   C     C_R   0.598916 0.034420 0.474920 -0.031638
C52   C     C_R   0.400936 0.965653 0.524660 -0.030645
C53   C     C_R   0.569052 0.527820 0.419445 0.020191
C54   C     C_R   0.604021 0.960459 0.501877 -0.000390
C55   C     C_R   0.395832 0.039616 0.497717 0.001894
C56   C     C_2   0.403535 0.925913 0.930010 -0.112404
Cl1   Cl    Cl    0.064844 0.577204 0.536705 -0.579643
Cl2   Cl    Cl    0.935162 0.422796 0.463320 -0.579760
Cl3   Cl    Cl    0.896860 0.063085 0.357891 -0.677989
Cl4   Cl    Cl    0.104047 0.937237 0.643743 -0.677776
Cr1   Cr    Cr6+3 0.187610 0.750000 0.979860 1.085441
Cr2   Cr    Cr6+3 0.812390 0.250000 0.020140 1.085282
Cr3   Cr    Cr6+3 0.245810 0.750000 0.341640 1.076767
Cr4   Cr    Cr6+3 0.754190 0.250000 0.658360 1.076977
Cr5   Cr    Cr6+3 0.485760 0.750000 0.219910 1.016487
Cr6   Cr    Cr6+3 0.514240 0.250000 0.780090 1.016152
H1    H     H_    0.197148 0.462617 0.717439 0.135313
H2    H     H_    0.778681 0.421647 0.630975 0.167267
H3    H     H_    0.683887 0.119471 0.393028 0.164977
H4    H     H_    0.316222 0.880639 0.606981 0.164150
H5    H     H_    0.429224 0.064869 0.904018 0.169355
H6    H     H_    0.543232 0.944212 0.126828 0.170276
H7    H     H_    0.581573 0.570361 0.024091 0.133873
H8    H     H_    0.418418 0.429632 0.975912 0.133766
H9    H     H_    0.660926 0.049970 0.163472 0.151165
H10   H     H_    0.343221 0.950212 0.835347 0.146681
H11   H     H_    0.307017 0.537543 0.902516 0.104064
H12   H     H_    0.802861 0.537382 0.282579 0.135366
H13   H     H_    0.692973 0.462453 0.097514 0.104122
H14   H     H_    0.933901 0.057128 0.063463 0.208044
H15   H     H_    0.066998 0.943064 0.937094 0.208569
H16   H     H_    0.068165 0.555779 0.937676 0.180521
H17   H     H_    0.931856 0.444216 0.062337 0.180547
H18   H     H_    0.022289 0.054112 0.805904 0.164796
H19   H     H_    0.977871 0.945960 0.194100 0.164530
H20   H     H_    0.971507 0.556895 0.188707 0.144327
H21   H     H_    0.028497 0.443103 0.811292 0.144332
H22   H     H_    0.876273 0.921756 0.459109 0.205452
H23   H     H_    0.124365 0.078510 0.542163 0.204994
H24   H     H_    0.395848 0.411917 0.748872 0.160105
H25   H     H_    0.604158 0.588081 0.251136 0.160101
H26   H     H_    0.724672 0.867592 0.544571 0.154285
H27   H     H_    0.275281 0.132520 0.455418 0.153517
H28   H     H_    0.221321 0.578358 0.369047 0.167231
O1    O     O_R   0.267710 0.668200 0.902110 -0.483280
O2    O     O_R   0.883280 0.330790 0.732340 -0.502788
O3    O     O_R   0.883280 0.169210 0.732340 -0.484793
O4    O     O_R   0.116720 0.830790 0.267660 -0.485029
O5    O     O_R   0.366710 0.675440 0.427590 -0.491591
O6    O     O_R   0.633290 0.324560 0.572410 -0.491804
O7    O     O_R   0.633290 0.175440 0.572410 -0.498956
O8    O     O_R   0.366710 0.824560 0.427590 -0.498803
O9    O     O_R   0.534870 0.669390 0.371760 -0.509386
O10   O     O_R   0.465130 0.330610 0.628240 -0.509775
O11   O     O_R   0.465130 0.169390 0.628240 -0.513235
O12   O     O_R   0.732290 0.331800 0.097890 -0.483463
O13   O     O_R   0.534870 0.830610 0.371760 -0.515104
O14   O     O_R   0.453080 0.674480 0.075160 -0.535702
O15   O     O_R   0.546920 0.325520 0.924840 -0.536318
O16   O     O_R   0.546920 0.174480 0.924840 -0.504794
O17   O     O_R   0.453080 0.825520 0.075160 -0.505303
O18   O     O_3   0.306390 0.750000 0.180470 -0.291294
O19   O     O_3   0.693610 0.250000 0.819530 -0.290723
O20   O     O_R   0.732290 0.168200 0.097890 -0.467507
O21   O     O_R   0.267710 0.831800 0.902110 -0.466434
O22   O     O_R   0.099480 0.674460 0.038850 -0.498667
O23   O     O_R   0.900520 0.325540 0.961150 -0.498720
O24   O     O_R   0.900520 0.174460 0.961150 -0.491364
O25   O     O_R   0.099480 0.825540 0.038850 -0.491446
O26   O     O_R   0.116720 0.669210 0.267660 -0.502704

loop_
_geom_bond_atom_site_label_1
_geom_bond_atom_site_label_2
_ccdc_geom_bond_type
C44   C49   A    
C30   C51   A    
C56   H10   S    
Cr6   O19   S    
Cr1   O25   S    
C22   O1    A    
C5    C56   D    
C4    C8    D    
C3    H13   S    
C23   O24   A    
C36   H1    S    
C7    C8    S    
C20   C30   S    
C41   Cl2   S    
Cr2   O20   S    
Cr3   O4    S    
C3    C7    D    
C10   C15   D    
C5    C6    S    
C32   H25   S    
C29   C54   A    
C33   C54   A    
C17   H16   S    
C11   C16   D    
Cr3   O18   S    
C26   O21   A    
C47   H3    S    
Cr2   O23   S    
Cr3   O5    S    
C9    H19   S    
Cr5   O17   S    
C11   H21   S    
C16   C17   S    
C13   H20   S    
Cr1   O21   S    
C41   C46   A    
Cr4   O19   S    
C1    O22   A    
C19   C27   S    
C43   C48   A    
Cr5   O14   S    
C27   C50   A    
C18   O9    A    
C27   C45   A    
C3    C24   S    
C2    C6    D    
Cr3   O8    S    
C7    H8    S    
C40   C44   A    
C35   H27   S    
Cr4   O7    S    
C50   C53   A    
C35   C55   A    
Cr6   O10   S    
C36   C40   A    
C18   C28   S    
Cr4   O2    S    
Cr2   O19   S    
C33   H26   S    
C39   C43   A    
C20   O7    A    
C21   C29   S    
C16   H17   S    
C38   H22   S    
C1    O26   A    
C35   C39   A    
C9    C14   D    
Cr5   O18   S    
C46   H2    S    
C4    C22   S    
C28   C49   A    
C15   H14   S    
C45   C49   A    
C11   C12   S    
C31   H24   S    
Cr1   O22   S    
Cr1   O1    S    
C32   C37   A    
Cr6   O16   S    
C21   O13   A    
C43   Cl4   S    
C21   O8    A    
C25   O16   A    
Cr4   O3    S    
C23   O3    A    
C9    C34   S    
C24   O12   A    
C18   O5    A    
Cr5   O9    S    
Cr6   O11   S    
C32   C53   A    
C20   O11   A    
C37   H12   S    
C34   O25   A    
C40   Cl1   S    
C14   C15   S    
C24   O15   A    
C48   H4    S    
C6    H5    S    
C19   O10   A    
C26   C56   S    
C42   Cl3   S    
C47   C51   A    
C28   C53   A    
C52   C55   A    
C38   C42   A    
Cr2   O12   S    
C10   C23   S    
C5    H6    S    
C30   C55   A    
C46   C50   A    
C33   C38   A    
C13   C17   D    
C51   C54   A    
C4    H11   S    
C25   O20   A    
C19   O6    A    
Cr3   O26   S    
C22   O14   A    
C10   H18   S    
C8    H7    S    
C34   O4    A    
Cr5   O13   S    
C2    C25   S    
C42   C47   A    
Cr6   O15   S    
C37   C41   A    
Cr2   O24   S    
C44   H28   S    
C12   O23   A    
Cr4   O6    S    
C1    C13   S    
C31   C45   A    
C31   C36   A    
C12   O2    A    
C14   H15   S    
C48   C52   A    
Cr1   O18   S    
C26   O17   A    
C39   H23   S    
C2    H9    S    
C29   C52   A    
