data_mof_unit_27792.cif
_audit_creation_date              2012-12-10T17:31:10-0500
_audit_creation_method            fapswitch 2.2
_symmetry_space_group_name_H-M    P1
_symmetry_Int_Tables_number       1
_space_group_crystal_system       triclinic
_cell_length_a                    12.018073
_cell_length_b                    12.896073
_cell_length_c                    15.512532
_cell_angle_alpha                 86.97142
_cell_angle_beta                  116.488924
_cell_angle_gamma                 93.64052
_cell_volume                      2146.67932922

loop_
_atom_site_label
_atom_site_type_symbol
_atom_type_description
_atom_site_fract_x
_atom_site_fract_y
_atom_site_fract_z
_atom_type_partial_charge
C1    C     C_R   0.476863 0.299561 0.498105 0.901359
C2    C     C_R   0.523138 0.700440 0.501898 0.894866
C3    C     C_R   0.643017 0.471173 0.114444 0.464175
C4    C     C_R   0.354832 0.520438 0.885149 0.443450
C5    C     C_R   0.722651 0.439408 0.078071 -0.329456
C6    C     C_R   0.275080 0.552819 0.921113 -0.283105
C7    C     C_R   0.536793 0.811727 0.501838 -0.087740
C8    C     C_R   0.463212 0.188274 0.498171 -0.086650
C9    C     C_R   0.373669 0.029915 0.534670 -0.020172
C10   C     C_R   0.626343 0.970087 0.465345 -0.020000
C11   C     C_R   0.375651 0.137322 0.523115 -0.217889
C12   C     C_R   0.624360 0.862680 0.476900 -0.222908
C13   C     C_R   0.545693 0.133539 0.479484 -0.200244
C14   C     C_R   0.454313 0.866463 0.520525 -0.201912
C15   C     C_R   0.542919 0.026253 0.485273 0.082951
C16   C     C_R   0.457090 0.973749 0.514740 0.082680
C17   C     C_R   0.999188 0.595443 0.406822 -0.400819
C18   C     C_R   0.000672 0.404330 0.592970 -0.397541
C19   C     C_R   0.121296 0.587091 0.415973 0.616373
C20   C     C_R   0.878639 0.412799 0.583927 0.617359
C21   C     C_R   0.162755 0.459252 0.541047 -0.070567
C22   C     C_R   0.837177 0.540640 0.458851 -0.071057
C23   C     C_R   0.577473 0.495080 0.680564 0.885133
C24   C     C_R   0.422524 0.504849 0.319471 0.890646
C25   C     C_R   0.041290 0.465387 0.533889 0.034210
C26   C     C_R   0.958606 0.534445 0.465954 0.037215
C27   C     C_R   0.626386 0.486703 0.784823 -0.126629
C28   C     C_R   0.373312 0.512019 0.215206 -0.122245
C29   C     C_R   0.773255 0.423486 0.942140 -0.103223
C30   C     C_R   0.226338 0.574400 0.057457 0.031593
C31   C     C_R   0.736581 0.437581 0.843104 -0.194127
C32   C     C_R   0.263960 0.562074 0.156812 -0.176926
C33   C     C_R   0.553015 0.520621 0.824575 -0.136784
C34   C     C_R   0.445280 0.475392 0.175472 -0.127933
C35   C     C_R   0.573256 0.489470 0.917408 0.118905
C36   C     C_R   0.424884 0.504771 0.082268 0.088596
C37   C     C_R   0.690370 0.449157 0.979896 0.015137
C38   C     C_R   0.307971 0.545560 0.019497 0.016024
C39   C     C_R   0.481322 0.501210 0.949770 -0.042597
C40   C     C_R   0.516595 0.491381 0.049938 -0.037349
H1    H     H_    0.812962 0.413087 0.128462 0.170930
H2    H     H_    0.184801 0.578316 0.870220 0.193848
H3    H     H_    0.936431 0.648892 0.353717 0.168264
H4    H     H_    0.063372 0.350783 0.645991 0.171596
H5    H     H_    0.517916 0.423724 0.219254 0.214657
H6    H     H_    0.479304 0.571557 0.781126 0.210697
H7    H     H_    0.206930 0.589300 0.188161 0.203296
H8    H     H_    0.794858 0.412309 0.812047 0.212922
H9    H     H_    0.385782 0.824028 0.537375 0.201034
H10   H     H_    0.614221 0.175974 0.462631 0.201068
H11   H     H_    0.686075 0.818250 0.460715 0.187282
H12   H     H_    0.313939 0.181753 0.539303 0.187607
H13   H     H_    0.773030 0.594013 0.406896 0.172661
H14   H     H_    0.226884 0.405846 0.592972 0.174858
N1    N     N_R   0.799120 0.480200 0.517090 -0.114285
N2    N     N_R   0.200880 0.519800 0.482910 -0.113183
O1    O     O_R   0.580150 0.341050 0.504560 -0.577330
O2    O     O_R   0.419850 0.658950 0.495440 -0.577576
O3    O     O_R   0.388090 0.353760 0.493600 -0.629871
O4    O     O_R   0.611910 0.646240 0.506400 -0.633247
O5    O     O_R   0.650890 0.490020 0.640860 -0.573062
O6    O     O_R   0.349110 0.509980 0.359140 -0.566177
O7    O     O_R   0.458830 0.502730 0.629890 -0.612909
O8    O     O_R   0.541170 0.497270 0.370110 -0.614979
Zn1   Zn    Zn3+2 0.628240 0.491510 0.507320 1.015008
Zn2   Zn    Zn3+2 0.371760 0.508490 0.492680 1.020333
O9    O     O_3   0.837711 0.354261 0.642007 -0.738962
H15   H     H_    0.905485 0.309945 0.686593 0.327224
O10   O     O_3   0.162216 0.645610 0.357878 -0.742219
H16   H     H_    0.094370 0.689794 0.313178 0.323111
C41   C     C_2   0.896395 0.379262 0.002437 0.986677
O11   O     O_2   0.921285 0.297599 0.980074 -0.543278
O12   O     O_R   0.986714 0.430976 0.082338 -0.776979
H17   H     H_    0.961630 0.502374 0.089494 0.303611
C42   C     C_2   0.103673 0.619425 0.997558 0.901518
O13   O     O_2   0.074790 0.696185 0.024706 -0.612075
O14   O     O_R   0.018428 0.571346 0.913235 -0.817631
H18   H     H_    0.937688 0.608823 0.879994 0.345863
O15   O     O_3   0.690672 0.490108 0.211711 -0.793282
H19   H     H_    0.780003 0.474195 0.245076 0.340759
O16   O     O_3   0.307538 0.500329 0.788134 -0.790071
H20   H     H_    0.218257 0.516307 0.754441 0.340369
C43   C     C_2   0.286785 0.981556 0.571198 0.898879
O17   O     O_2   0.322023 0.915218 0.635938 -0.620338
O18   O     O_R   0.166040 0.016631 0.534918 -0.792874
H21   H     H_    0.116219 0.979543 0.566507 0.367756
C44   C     C_2   0.713229 0.018449 0.428819 0.898513
O19   O     O_2   0.677992 0.084785 0.364078 -0.616557
O20   O     O_R   0.833977 0.983377 0.465105 -0.794798
H22   H     H_    0.883799 0.020466 0.433518 0.368546

loop_
_geom_bond_atom_site_label_1
_geom_bond_atom_site_label_2
_ccdc_geom_bond_type
C19   N2    A    
C44   O19   D    
C8    C13   A    
C5    C37   A    
C1    C8    S    
O12   H17   S    
C20   O9    S    
C2    C7    S    
C3    O15   S    
O16   H20   S    
O14   H18   S    
C27   C33   A    
C17   C26   A    
C35   C37   A    
C9    C16   A    
C18   H4    S    
C10   C15   A    
C1    O3    A    
O3    Zn2   S    
C21   H14   S    
C2    O4    A    
C14   H9    S    
C15   C16   A    
C30   C38   A    
C5    H1    S    
C11   H12   S    
C17   C19   A    
O2    Zn2   S    
C7    C14   A    
C4    O16   S    
C6    C38   A    
C23   C27   S    
C34   C36   A    
C23   O7    A    
O7    Zn2   S    
C28   C34   A    
C24   O8    A    
C33   H6    S    
C18   C25   A    
C20   N1    A    
N1    Zn1   S    
C22   H13   S    
C7    C12   A    
C10   C44   S    
O6    Zn2   S    
C27   C31   A    
O9    H15   S    
C28   C32   A    
C4    C6    A    
C39   C40   A    
C41   O12   S    
C25   C26   A    
O18   H21   S    
O15   H19   S    
C35   C39   A    
C42   O13   D    
C17   H3    S    
C1    O1    A    
C42   O14   S    
C43   O17   D    
C4    C39   A    
C36   C40   A    
C34   H5    S    
C9    C11   A    
C10   C12   A    
C9    C43   S    
C43   O18   S    
C3    C40   A    
C31   H8    S    
C13   C15   A    
C6    H2    S    
C32   H7    S    
C14   C16   A    
C19   O10   S    
C12   H11   S    
C21   C25   A    
C24   O6    A    
C24   C28   S    
O1    Zn1   S    
C3    C5    A    
O4    Zn1   S    
C21   N2    A    
C2    O2    A    
C22   N1    A    
O8    Zn1   S    
C36   C38   A    
C41   O11   D    
C29   C31   A    
C30   C32   A    
C30   C42   S    
C8    C11   A    
N2    Zn2   S    
C33   C35   A    
C18   C20   A    
O10   H16   S    
C13   H10   S    
O5    Zn1   S    
C23   O5    A    
C22   C26   A    
C29   C37   A    
C44   O20   S    
O20   H22   S    
C29   C41   S    
