data_mof_unit_38940.cif
_audit_creation_date              2012-12-10T17:28:39-0500
_audit_creation_method            fapswitch 2.2
_symmetry_space_group_name_H-M    P1
_symmetry_Int_Tables_number       1
_space_group_crystal_system       triclinic
_cell_length_a                    10.609331
_cell_length_b                    12.041981
_cell_length_c                    12.803741
_cell_angle_alpha                 92.394553
_cell_angle_beta                  91.107558
_cell_angle_gamma                 82.579887
_cell_volume                      1620.49737822

loop_
_atom_site_label
_atom_site_type_symbol
_atom_type_description
_atom_site_fract_x
_atom_site_fract_y
_atom_site_fract_z
_atom_type_partial_charge
C1    C     C_R   0.500385 0.521156 0.699728 0.983252
C2    C     C_R   0.588719 0.468611 0.125421 0.038691
C3    C     C_R   0.435462 0.507134 0.980478 -0.188019
C4    C     C_R   0.564537 0.492863 0.019521 -0.188004
C5    C     C_R   0.399115 0.962132 0.390184 -0.305803
C6    C     C_R   0.600885 0.037868 0.609815 -0.305804
C7    C     C_R   0.406763 0.845143 0.400341 0.348294
C8    C     C_R   0.593237 0.154857 0.599659 0.348310
C9    C     C_R   0.540834 0.855178 0.549843 -0.040838
C10   C     C_R   0.459166 0.144822 0.450157 -0.040842
C11   C     C_R   0.535955 0.972965 0.540277 0.040079
C12   C     C_R   0.499614 0.478844 0.300271 0.983259
C13   C     C_R   0.464045 0.027035 0.459723 0.040083
C14   C     C_R   0.740905 0.494455 0.488643 0.919597
C15   C     C_R   0.259095 0.505545 0.511358 0.919603
C16   C     C_R   0.928184 0.285182 0.530365 0.630222
C17   C     C_R   0.071817 0.714820 0.469638 0.630227
C18   C     C_R   0.999385 0.211409 0.598331 0.119760
C19   C     C_R   0.000617 0.788593 0.401673 0.119759
C20   C     C_R   0.103352 0.246185 0.652720 -0.195434
C21   C     C_R   0.896649 0.753818 0.347285 -0.195418
C22   C     C_R   0.142041 0.349142 0.633400 -0.165823
C23   C     C_R   0.484414 0.467819 0.190255 -0.282116
C24   C     C_R   0.857959 0.650861 0.366604 -0.165809
C25   C     C_R   0.073723 0.422028 0.562546 0.015685
C26   C     C_R   0.926278 0.577974 0.437457 0.015684
C27   C     C_R   0.957482 0.396454 0.521508 -0.045218
C28   C     C_R   0.042518 0.603548 0.478495 -0.045211
C29   C     C_R   0.122559 0.517323 0.528339 -0.132583
C30   C     C_R   0.877441 0.482678 0.471663 -0.132580
C31   C     C_3   0.967923 0.095072 0.613230 -0.845131
C32   C     C_3   0.032078 0.904930 0.386775 -0.845130
C33   C     C_3   0.722863 0.443716 0.170143 -0.650685
C34   C     C_R   0.515582 0.532182 0.809745 -0.282110
C35   C     C_3   0.277133 0.556280 0.829854 -0.650623
C36   C     C_3   0.658127 0.218631 0.683531 -0.757592
C37   C     C_3   0.341872 0.781369 0.316469 -0.757562
C38   C     C_R   0.664806 0.505046 0.951613 0.604446
C39   C     C_R   0.335189 0.494969 0.048391 0.604423
C40   C     C_R   0.639738 0.522693 0.847642 0.487403
C41   C     C_R   0.360257 0.477321 0.152361 0.487397
C42   C     C_R   0.411280 0.531382 0.874577 0.038681
F1    F     F_    0.842644 0.243515 0.464167 -0.670753
F2    F     F_    0.157358 0.756485 0.535836 -0.670752
F3    F     F_    0.261662 0.474637 0.218232 -0.632359
F4    F     F_    0.738329 0.525394 0.781776 -0.632362
F5    F     F_    0.788433 0.497946 0.982721 -0.613901
F6    F     F_    0.211550 0.502113 0.017292 -0.613888
H1    H     H_    0.841552 0.808887 0.293733 0.178737
H2    H     H_    0.950438 0.084348 0.697178 0.237227
H3    H     H_    0.882109 0.077545 0.567848 0.276816
H4    H     H_    0.950548 0.967014 0.411336 0.260578
H5    H     H_    0.117893 0.922456 0.432157 0.276816
H6    H     H_    0.049564 0.915654 0.302827 0.237229
H7    H     H_    0.726173 0.417430 0.252178 0.189492
H8    H     H_    0.776139 0.372953 0.124596 0.279205
H9    H     H_    0.772286 0.519302 0.168252 0.264928
H10   H     H_    0.273828 0.582543 0.747813 0.189467
H11   H     H_    0.227689 0.480702 0.831766 0.264927
H12   H     H_    0.158449 0.191116 0.706272 0.178735
H13   H     H_    0.223869 0.627067 0.875386 0.279202
H14   H     H_    0.732042 0.162959 0.725447 0.198202
H15   H     H_    0.706482 0.284800 0.651003 0.286400
H16   H     H_    0.587999 0.253606 0.743201 0.229825
H17   H     H_    0.267958 0.837041 0.274554 0.198202
H18   H     H_    0.412000 0.746394 0.256799 0.229826
H19   H     H_    0.293517 0.715200 0.348997 0.286404
H20   H     H_    0.344331 0.002186 0.326563 0.158511
H21   H     H_    0.655669 0.997814 0.673437 0.158514
H22   H     H_    0.227044 0.370947 0.672913 0.157789
H23   H     H_    0.772956 0.629056 0.327091 0.157789
H24   H     H_    0.403191 0.186299 0.388075 0.152949
H25   H     H_    0.596809 0.813701 0.611924 0.152955
H26   H     H_    0.049454 0.032988 0.588669 0.260579
N1    N     N_R   0.523130 0.207800 0.519340 -0.091193
N2    N     N_R   0.476870 0.792200 0.480660 -0.091194
O1    O     O_R   0.506170 0.421700 0.658830 -0.649909
O2    O     O_R   0.493830 0.578300 0.341170 -0.649903
O3    O     O_R   0.491330 0.609310 0.646410 -0.595857
O4    O     O_R   0.508670 0.390690 0.353590 -0.595866
O5    O     O_R   0.690650 0.406190 0.506220 -0.571079
O6    O     O_R   0.309350 0.593810 0.493780 -0.571078
O7    O     O_R   0.675800 0.593810 0.493800 -0.620173
O8    O     O_R   0.324200 0.406190 0.506200 -0.620173
Zn1   Zn    Zn3+2 0.509910 0.374730 0.508290 0.996305
Zn2   Zn    Zn3+2 0.490090 0.625270 0.491710 0.996311

loop_
_geom_bond_atom_site_label_1
_geom_bond_atom_site_label_2
_ccdc_geom_bond_type
C33   H7    S    
C6    H21   S    
C3    C42   A    
C1    O1    A    
C34   C42   A    
C21   H1    S    
C39   C41   A    
C40   F4    S    
C12   C23   S    
C35   H10   S    
C34   C40   A    
C28   C29   A    
C19   C21   A    
C24   C26   A    
C37   H19   S    
C35   H11   S    
C8    C36   S    
C35   C42   S    
C32   H4    S    
N1    Zn1   S    
C22   C25   A    
C37   H17   S    
C9    N2    A    
C20   H12   S    
C36   H15   S    
C5    C13   A    
O2    Zn2   S    
C16   C27   A    
C3    C39   A    
C27   C30   A    
C9    H25   S    
C14   O7    A    
C14   C30   S    
C5    H20   S    
C36   H14   S    
C19   C32   S    
C32   H6    S    
C1    C34   S    
C15   C29   S    
C15   O6    A    
C25   C29   A    
O8    Zn1   S    
C31   H3    S    
C6    C11   A    
C5    C7    A    
C31   H26   S    
C6    C8    A    
O6    Zn2   S    
C8    N1    A    
C12   O2    A    
C2    C4    A    
O4    Zn1   S    
C10   N1    A    
C37   H18   S    
C7    C37   S    
C35   H13   S    
C9    C11   A    
C16   F1    S    
C38   F5    S    
C15   O8    A    
C2    C33   S    
C4    C38   A    
C26   C30   A    
C1    O3    A    
C31   H2    S    
C3    C4    A    
N2    Zn2   S    
C32   H5    S    
C33   H9    S    
C17   C28   A    
C20   C22   A    
C10   C13   A    
C7    N2    A    
C25   C27   A    
C26   C28   A    
C23   C41   A    
C17   F2    S    
C38   C40   A    
C11   C13   A    
C33   H8    S    
C12   O4    A    
C17   C19   A    
C18   C20   A    
O1    Zn1   S    
O7    Zn2   S    
C16   C18   A    
C21   C24   A    
C2    C23   A    
C41   F3    S    
C18   C31   S    
C14   O5    A    
C36   H16   S    
C22   H22   S    
O3    Zn2   S    
O5    Zn1   S    
C24   H23   S    
C39   F6    S    
C10   H24   S    
