data_mof_unit_50055.cif
_audit_creation_date              2012-12-10T19:48:01-0500
_audit_creation_method            fapswitch 2.2
_symmetry_space_group_name_H-M    P1
_symmetry_Int_Tables_number       1
_space_group_crystal_system       triclinic
_cell_length_a                    15.000929
_cell_length_b                    14.232418
_cell_length_c                    10.879947
_cell_angle_alpha                 90.14124
_cell_angle_beta                  90.00712
_cell_angle_gamma                 89.977658
_cell_volume                      2322.85590461

loop_
_atom_site_label
_atom_site_type_symbol
_atom_type_description
_atom_site_fract_x
_atom_site_fract_y
_atom_site_fract_z
_atom_type_partial_charge
C1    C     C_R   0.327898 0.500011 0.500084 0.859770
C2    C     C_R   0.574112 0.795776 0.463940 0.094827
C3    C     C_R   0.574930 0.204397 0.533693 0.109174
C4    C     C_R   0.426247 0.795830 0.537810 0.089837
C5    C     C_R   0.500148 0.053195 0.501570 0.188219
C6    C     C_R   0.500331 0.946675 0.502054 0.139083
C7    C     C_R   0.488668 0.499489 0.260464 0.873329
C8    C     C_R   0.508895 0.499445 0.740518 0.871360
C9    C     C_R   0.449826 0.667930 0.110908 -0.280283
C10   C     C_R   0.524451 0.321572 0.884135 -0.296887
C11   C     C_R   0.545528 0.667581 0.893621 -0.284507
C12   C     C_R   0.672110 0.499985 0.500053 0.865255
C13   C     C_R   0.452968 0.324619 0.117446 -0.298903
C14   C     C_R   0.472593 0.753481 0.057579 0.349443
C15   C     C_R   0.495580 0.238893 0.937747 0.316585
C16   C     C_R   0.525501 0.753348 0.949858 0.349549
C17   C     C_R   0.469156 0.239475 0.059430 0.312551
C18   C     C_R   0.514413 0.582022 0.942080 0.009333
C19   C     C_R   0.477182 0.410952 0.062001 0.031562
C20   C     C_R   0.479019 0.582292 0.060654 0.010255
C21   C     C_R   0.507623 0.409999 0.939533 0.030500
C22   C     C_R   0.517836 0.496736 0.875834 -0.147720
C23   C     C_R   0.048143 0.500043 0.500947 0.109558
C24   C     C_R   0.474171 0.497461 0.126338 -0.149654
C25   C     C_R   0.094052 0.578771 0.457377 -0.164313
C26   C     C_R   0.905973 0.420848 0.458190 -0.168968
C27   C     C_R   0.905794 0.579035 0.543728 -0.164740
C28   C     C_R   0.094259 0.421309 0.544193 -0.168748
C29   C     C_R   0.186070 0.578990 0.457704 -0.188016
C30   C     C_R   0.813962 0.420610 0.458603 -0.187516
C31   C     C_R   0.813778 0.579259 0.542797 -0.187510
C32   C     C_R   0.186266 0.421055 0.543175 -0.186091
C33   C     C_R   0.232119 0.500016 0.500280 -0.028358
C34   C     C_R   0.951896 0.499963 0.501026 0.109996
C35   C     C_R   0.767908 0.499954 0.500479 -0.029318
C36   C     C_R   0.423397 0.104723 0.469078 -0.069055
C37   C     C_R   0.575877 0.894864 0.465159 -0.186212
C38   C     C_R   0.576877 0.105255 0.532806 -0.120963
C39   C     C_R   0.424841 0.894929 0.538775 -0.191350
C40   C     C_R   0.425266 0.203936 0.466135 0.178172
H1    H     H_    0.058754 0.639422 0.422120 0.141955
H2    H     H_    0.635557 0.930542 0.434595 0.143116
H3    H     H_    0.637536 0.069739 0.559988 0.117456
H4    H     H_    0.365285 0.930667 0.570008 0.147891
H5    H     H_    0.366175 0.241889 0.438466 0.094244
H6    H     H_    0.632481 0.757582 0.433775 0.125539
H7    H     H_    0.633962 0.242716 0.560833 0.102082
H8    H     H_    0.367874 0.757655 0.567651 0.126880
H9    H     H_    0.607607 0.195523 0.229256 0.347397
H10   H     H_    0.650479 0.890857 0.724720 0.379434
H11   H     H_    0.360627 0.223289 0.755371 0.344682
H12   H     H_    0.941254 0.359902 0.423398 0.138538
H13   H     H_    0.347338 0.891752 0.282409 0.383332
H14   H     H_    0.407987 0.668138 0.191761 0.226168
H15   H     H_    0.560932 0.313299 0.799518 0.209782
H16   H     H_    0.587796 0.667691 0.813285 0.227807
H17   H     H_    0.419909 0.320781 0.205330 0.204240
H18   H     H_    0.940941 0.640000 0.578646 0.141766
H19   H     H_    0.059130 0.360648 0.579638 0.138580
H20   H     H_    0.221076 0.640096 0.423276 0.165851
H21   H     H_    0.778971 0.359192 0.424719 0.154412
H22   H     H_    0.778635 0.640666 0.576504 0.165290
H23   H     H_    0.221421 0.359928 0.577346 0.154917
H24   H     H_    0.362745 0.068744 0.442837 0.116944
N1    N     N_R   0.500000 0.252470 0.500000 -0.092667
N2    N     N_R   0.500000 0.747530 0.500000 -0.101967
O1    O     O_R   0.369060 0.579480 0.500010 -0.632552
O2    O     O_2   0.534100 0.065038 0.079137 -0.121401
O3    O     O_3   0.552539 0.171089 0.267909 -0.596604
O4    O     O_2   0.486085 0.908327 0.825358 -0.205407
O5    O     O_2   0.612690 0.916892 0.968710 -0.188855
O6    O     O_3   0.634778 0.829639 0.762012 -0.608356
O7    O     O_2   0.550172 0.095741 0.799258 -0.247173
O8    O     O_2   0.405339 0.077192 0.902558 -0.164571
O9    O     O_3   0.412875 0.190325 0.720019 -0.600936
O10   O     O_2   0.518343 0.900433 0.194328 -0.233180
O11   O     O_2   0.396036 0.922954 0.046551 -0.152337
O12   O     O_R   0.630940 0.420520 0.499990 -0.638645
O13   O     O_3   0.363581 0.830368 0.245727 -0.608536
O14   O     O_R   0.630940 0.579480 0.499990 -0.631568
O15   O     O_R   0.369060 0.420520 0.500010 -0.638897
O16   O     O_R   0.499990 0.579480 0.316780 -0.612318
O17   O     O_R   0.500010 0.420520 0.683220 -0.616379
O18   O     O_R   0.500010 0.579480 0.683220 -0.612734
O19   O     O_R   0.499990 0.420520 0.316780 -0.617001
O20   O     O_2   0.399016 0.103371 0.196912 -0.274768
S1    S     S_3+6 0.486618 0.139922 0.150526 0.080974
S2    S     S_3+6 0.564442 0.856311 0.877367 0.093914
S3    S     S_3+6 0.466989 0.145186 0.840567 0.077717
S4    S     S_3+6 0.438230 0.856081 0.135458 0.099448
Zn1   Zn    Zn3+2 0.500000 0.606140 0.500000 0.979213
Zn2   Zn    Zn3+2 0.500000 0.393860 0.500000 0.968037

loop_
_geom_bond_atom_site_label_1
_geom_bond_atom_site_label_2
_ccdc_geom_bond_type
N1    Zn2   S    
C11   C18   A    
C8    O17   A    
O4    S2    D    
C1    C33   S    
C2    H6    S    
O17   Zn2   S    
C30   C35   A    
O8    S3    D    
H13   O13   S    
H11   O9    S    
C10   C15   A    
C5    C6    S    
C13   H17   S    
C1    O15   A    
C7    C24   S    
C5    C36   A    
C29   C33   A    
C37   H2    S    
H10   O6    S    
C14   S4    S    
O13   S4    S    
O15   Zn2   S    
C26   C34   A    
C20   C24   A    
C3    C38   A    
C12   O12   A    
C8    C22   S    
C4    C39   A    
O18   Zn1   S    
C18   C20   A    
O3    S1    S    
C27   C34   A    
C18   C22   A    
C21   C22   A    
C31   H22   S    
C3    N1    A    
O6    S2    S    
O19   Zn2   S    
C10   C21   A    
C25   C29   A    
C40   H5    S    
O11   S4    D    
C13   C19   A    
C27   C31   A    
C36   C40   A    
C25   H1    S    
O20   S1    D    
O12   Zn2   S    
O16   Zn1   S    
C9    C14   A    
C26   H12   S    
C15   S3    S    
C11   C16   A    
C9    C20   A    
C29   H20   S    
C28   C32   A    
C23   C34   S    
O1    Zn1   S    
C6    C37   A    
C23   C28   A    
C12   C35   S    
C10   H15   S    
C39   H4    S    
C26   C30   A    
C40   N1    A    
C14   C16   A    
C4    H8    S    
C28   H19   S    
C15   C17   A    
C19   C21   A    
C8    O18   A    
C32   H23   S    
C2    N2    A    
C27   H18   S    
N2    Zn1   S    
C13   C17   A    
C32   C33   A    
O14   Zn1   S    
C19   C24   A    
O7    S3    D    
C38   H3    S    
C36   H24   S    
C4    N2    A    
C2    C37   A    
C7    O19   A    
C12   O14   A    
C3    H7    S    
C1    O1    A    
C31   C35   A    
C23   C25   A    
C17   S1    S    
O9    S3    S    
O5    S2    D    
C7    O16   A    
C30   H21   S    
C16   S2    S    
O2    S1    D    
C6    C39   A    
H9    O3    S    
C9    H14   S    
C5    C38   A    
C11   H16   S    
O10   S4    D    
