data_mof_unit_46586.cif
_audit_creation_date              2012-12-10T16:49:26-0500
_audit_creation_method            fapswitch 2.2
_symmetry_space_group_name_H-M    P1
_symmetry_Int_Tables_number       1
_space_group_crystal_system       triclinic
_cell_length_a                    19.339468
_cell_length_b                    8.700987
_cell_length_c                    7.572188
_cell_angle_alpha                 103.382725
_cell_angle_beta                  95.265375
_cell_angle_gamma                 94.687186
_cell_volume                      1227.36942736

loop_
_atom_site_label
_atom_site_type_symbol
_atom_type_description
_atom_site_fract_x
_atom_site_fract_y
_atom_site_fract_z
_atom_type_partial_charge
C1    C     C_R   0.497065 0.199817 0.453069 0.854955
C2    C     C_R   0.502137 0.800139 0.547116 0.875172
C3    C     C_2   0.494013 0.031045 0.428201 -0.364420
C4    C     C_2   0.503624 0.968893 0.572886 -0.365727
C5    C     C_R   0.367729 0.500475 0.500643 0.754636
C6    C     C_R   0.632309 0.500297 0.499681 0.773457
C7    C     C_R   0.260983 0.498980 0.662203 -0.191568
C8    C     C_R   0.738358 0.472619 0.334918 -0.190654
C9    C     C_R   0.189001 0.499928 0.663192 -0.159197
C10   C     C_R   0.810441 0.473504 0.335792 -0.156867
C11   C     C_R   0.146571 0.504920 0.504195 0.060595
C12   C     C_R   0.853842 0.500526 0.501569 0.059477
C13   C     C_R   0.177572 0.510486 0.344917 -0.155308
C14   C     C_R   0.823766 0.526512 0.666409 -0.155141
C15   C     C_R   0.249497 0.510095 0.344245 -0.190715
C16   C     C_R   0.751732 0.526456 0.665557 -0.189052
C17   C     C_R   0.291827 0.502951 0.502329 -0.014431
C18   C     C_R   0.708360 0.499872 0.499794 -0.024981
C19   C     C_R   0.930052 0.501662 0.502497 0.410090
C20   C     C_R   0.070397 0.504125 0.503943 0.410345
Cu1   Cu    Cu3+1 0.507710 0.517380 0.684380 0.952249
Cu2   Cu    Cu3+1 0.492290 0.482620 0.315620 0.983805
H1    H     H_    0.292344 0.494555 0.786487 0.146912
H2    H     H_    0.706293 0.449696 0.204938 0.138078
H3    H     H_    0.166682 0.495837 0.788277 0.148968
H4    H     H_    0.832015 0.452207 0.206347 0.150729
H5    H     H_    0.146397 0.515846 0.220583 0.155232
H6    H     H_    0.855812 0.547782 0.796442 0.155753
H7    H     H_    0.271788 0.516760 0.220077 0.141114
H8    H     H_    0.730155 0.547693 0.795042 0.145601
H9    H     H_    0.483340 0.957555 0.289963 0.175770
H10   H     H_    0.513281 0.042303 0.711770 0.189554
N1    N     N_R   0.028755 0.493665 0.346390 -0.232167
N2    N     N_R   0.971687 0.512262 0.660144 -0.231946
N3    N     N_R   0.959947 0.492353 0.345645 -0.235943
N4    N     N_R   0.040511 0.513302 0.660834 -0.235802
N5    N     N_2   0.480680 0.456420 0.038530 0.048100
N6    N     N_2   0.519320 0.543580 0.961470 0.009125
O1    O     O_R   0.505010 0.286130 0.619770 -0.596136
O2    O     O_R   0.494990 0.713870 0.380230 -0.547613
O3    O     O_R   0.491990 0.256780 0.308370 -0.582493
O4    O     O_R   0.508010 0.743220 0.691630 -0.594812
O5    O     O_R   0.406650 0.514660 0.655750 -0.613875
O6    O     O_R   0.593350 0.485340 0.344250 -0.577077
O7    O     O_R   0.393640 0.485310 0.344340 -0.590974
O8    O     O_R   0.606360 0.514690 0.655660 -0.593251
N7    N     N_2   0.438675 0.326249 0.928050 -0.314571
H11   H     H_    0.424580 0.331815 0.798873 0.296366
C21   C     C_3   0.376341 0.273644 0.998270 -0.598792
H12   H     H_    0.346813 0.172448 0.894243 0.175453
H13   H     H_    0.341964 0.370306 0.023878 0.204263
H14   H     H_    0.388128 0.228585 0.120678 0.258716
N8    N     N_2   0.574981 0.634440 0.073925 -0.270578
H15   H     H_    0.619553 0.577150 0.065926 0.234985
C22   C     C_3   0.587866 0.793048 0.048566 -0.561240
H16   H     H_    0.622661 0.867018 0.167924 0.185115
H17   H     H_    0.538305 0.847880 0.038612 0.226477
H18   H     H_    0.614370 0.790960 0.924152 0.214243

loop_
_geom_bond_atom_site_label_1
_geom_bond_atom_site_label_2
_ccdc_geom_bond_type
C2    C4    S    
C22   H16   S    
C15   C17   A    
N5    N6    D    
C8    H2    S    
N5    N7    S    
C9    C11   A    
N8    C22   S    
N7    H11   S    
Cu1   O1    S    
C21   H14   S    
Cu2   O2    S    
C10   H4    S    
Cu1   O5    S    
C22   H17   S    
C5    O5    A    
C9    H3    S    
N7    C21   S    
Cu1   O8    S    
C19   N3    A    
Cu1   Cu2   S    
C3    H9    S    
C11   C13   A    
C4    H10   S    
N6    N8    S    
C10   C12   A    
C2    O4    A    
C7    H1    S    
C20   N1    A    
C12   C19   S    
C8    C10   A    
N1    N3    A    
C12   C14   A    
C15   H7    S    
C8    C18   A    
N2    N4    A    
C13   C15   A    
C6    C18   S    
C14   C16   A    
C11   C20   S    
Cu2   O3    S    
C5    C17   S    
C1    O1    A    
C16   H8    S    
C3    C4    D    
C20   N4    A    
C2    O2    A    
Cu2   O7    S    
C16   C18   A    
C21   H12   S    
C22   H18   S    
C1    O3    A    
C7    C9    A    
C21   H13   S    
C13   H5    S    
C6    O6    A    
C6    O8    A    
C14   H6    S    
N8    H15   S    
Cu2   N5    S    
C5    O7    A    
Cu2   O6    S    
Cu1   N6    S    
Cu1   O4    S    
C1    C3    S    
C19   N2    A    
C7    C17   A    
