data_mof_unit_11343.cif
_audit_creation_date              2012-12-11T15:47:12-0500
_audit_creation_method            fapswitch 2.2
_symmetry_space_group_name_H-M    P1
_symmetry_Int_Tables_number       1
_space_group_crystal_system       triclinic
_cell_length_a                    20.339027
_cell_length_b                    7.29228
_cell_length_c                    13.372727
_cell_angle_alpha                 90.038558
_cell_angle_beta                  102.988397
_cell_angle_gamma                 89.858832
_cell_volume                      1932.6641645

loop_
_atom_site_label
_atom_site_type_symbol
_atom_type_description
_atom_site_fract_x
_atom_site_fract_y
_atom_site_fract_z
_atom_type_partial_charge
O1    O     O_R   0.449560 0.506810 0.599700 -0.514570
O2    O     O_R   0.550440 0.006810 0.400300 -0.513823
O3    O     O_R   0.587960 0.180060 0.595760 -0.507994
O4    O     O_R   0.412040 0.680060 0.404240 -0.523975
C1    C     C_R   0.616123 0.345960 0.614671 0.822766
C2    C     C_R   0.383899 0.846259 0.385289 0.810693
O5    O     O_R   0.452380 0.177430 0.611700 -0.539850
O6    O     O_R   0.547620 0.677430 0.388300 -0.546744
O7    O     O_R   0.413900 0.001890 0.416350 -0.510100
O8    O     O_R   0.586100 0.501890 0.583650 -0.510027
C3    C     C_R   0.435017 0.346105 0.637415 0.835240
C4    C     C_R   0.565075 0.845785 0.362849 0.829745
O9    O     O_3   0.487530 0.337490 0.435890 -0.368451
O10   O     O_3   0.512470 0.837490 0.564110 -0.348094
V1    V     V_3+5 0.502310 0.064660 0.511890 1.846498
V2    V     V_3+5 0.497690 0.564660 0.488110 1.807662
C5    C     C_R   0.622144 0.970229 0.116938 0.279064
C6    C     C_R   0.377822 0.473020 0.883580 0.279323
H1    H     H_    0.698338 0.872615 0.983546 0.193553
H2    H     H_    0.301110 0.380466 0.017521 0.207220
C7    C     C_R   0.604973 0.858402 0.282324 -0.257588
C8    C     C_R   0.395134 0.359431 0.718251 -0.256439
C9    C     C_R   0.932279 0.850245 0.322350 0.473379
C10   C     C_R   0.067918 0.347795 0.677853 0.474802
C11   C     C_R   0.896710 0.836799 0.400446 0.326887
C12   C     C_R   0.103670 0.334870 0.599954 0.326116
C13   C     C_R   0.825840 0.830043 0.375678 0.469305
C14   C     C_R   0.174561 0.329855 0.624984 0.467897
C15   C     C_R   0.789193 0.829436 0.271763 -0.085106
C16   C     C_R   0.211073 0.330419 0.729001 -0.085292
C17   C     C_R   0.826690 0.839623 0.193420 -0.097824
C18   C     C_R   0.173433 0.340999 0.807129 -0.099464
C19   C     C_R   0.716782 0.837840 0.242047 0.111899
C20   C     C_R   0.283419 0.339629 0.758869 0.112434
C21   C     C_R   0.686574 0.888138 0.139960 -0.091645
C22   C     C_R   0.313413 0.391662 0.860818 -0.095512
C23   C     C_R   0.723055 0.865198 0.063908 -0.091718
C24   C     C_R   0.276783 0.370742 0.936916 -0.087489
C25   C     C_R   0.792112 0.840743 0.089951 -0.103304
C26   C     C_R   0.207848 0.344753 0.910672 -0.102029
C27   C     C_R   0.673241 0.806372 0.309080 -0.161003
C28   C     C_R   0.327007 0.307174 0.691892 -0.160136
C29   C     C_R   0.579871 0.950859 0.187742 0.389813
C30   C     C_R   0.420111 0.452044 0.812847 0.384415
C31   C     C_R   0.897816 0.854021 0.219349 -0.300803
C32   C     C_R   0.102252 0.353324 0.780879 -0.300801
H3    H     H_    0.691017 0.741824 0.382739 0.230144
H4    H     H_    0.309345 0.241535 0.618538 0.230153
H5    H     H_    0.818376 0.835218 0.028017 0.112644
H6    H     H_    0.181466 0.340124 0.972481 0.113365
C33   C     C_R   0.226536 0.001511 0.184624 -0.188522
C34   C     C_R   0.774130 0.504978 0.812576 -0.195434
H7    H     H_    0.210452 0.112410 0.130841 0.168594
H8    H     H_    0.790347 0.617476 0.865016 0.175001
C35   C     C_R   0.288136 0.014556 0.256626 0.449267
C36   C     C_R   0.711734 0.515031 0.742446 0.439460
C37   C     C_R   0.312751 0.861155 0.320967 -0.320358
C38   C     C_R   0.687353 0.360797 0.678744 -0.321391
C39   C     C_R   0.265823 0.721759 0.326781 0.692281
C40   C     C_R   0.734662 0.221799 0.672733 0.657149
C41   C     C_R   0.201460 0.719399 0.260239 -0.068438
C42   C     C_R   0.798949 0.219436 0.739429 -0.095396
H9    H     H_    0.166269 0.611944 0.268014 0.210854
H10   H     H_    0.834028 0.110659 0.732550 0.216077
C43   C     C_R   0.182200 0.857089 0.186358 -0.218609
C44   C     C_R   0.818242 0.358665 0.812342 -0.213119
O11   O     O_R   0.913920 0.203370 0.916260 -0.543379
O12   O     O_R   0.086080 0.703370 0.083740 -0.542533
O13   O     O_R   0.047620 0.535540 0.888290 -0.537405
O14   O     O_R   0.952380 0.035540 0.111710 -0.537672
C45   C     C_R   0.062878 0.367316 0.860784 0.822408
C46   C     C_R   0.937049 0.867559 0.139184 0.821593
O15   O     O_R   0.912040 0.532780 0.904220 -0.536756
O16   O     O_R   0.087960 0.032780 0.095780 -0.535625
O17   O     O_R   0.949550 0.708160 0.099720 -0.544678
O18   O     O_R   0.050450 0.208160 0.900280 -0.545012
C47   C     C_R   0.886253 0.364473 0.882042 0.768024
C48   C     C_R   0.113887 0.864109 0.117546 0.767536
O19   O     O_3   0.012480 0.375300 0.064060 -0.382428
O20   O     O_3   0.987520 0.875300 0.935940 -0.382899
V3    V     V_3+5 0.997690 0.648180 0.988110 1.540117
V4    V     V_3+5 0.002310 0.148180 0.011890 1.539690
S1    S     S_3+6 0.499964 0.061098 0.167796 0.161083
O21   O     O_2   0.451548 0.943342 0.208894 -0.333392
O22   O     O_2   0.512215 0.237499 0.227082 -0.298163
O23   O     O_3   0.464169 0.110618 0.045023 -0.379474
H11   H     H_    0.420448 0.168976 0.046944 0.384116
S2    S     S_3+6 0.500381 0.558639 0.833414 0.175345
O24   O     O_2   0.548281 0.436444 0.793456 -0.331023
O25   O     O_2   0.489250 0.734494 0.773433 -0.277753
O26   O     O_3   0.536020 0.609271 0.956043 -0.379892
H12   H     H_    0.579996 0.665475 0.954069 0.383412
S3    S     S_3+6 0.318638 0.240847 0.279795 0.063734
O27   O     O_2   0.265589 0.372335 0.225624 -0.366412
O28   O     O_2   0.333626 0.279825 0.392935 -0.285342
O29   O     O_3   0.387591 0.274506 0.234626 -0.449172
H13   H     H_    0.393815 0.409311 0.235892 0.391075
S4    S     S_3+6 0.677095 0.737663 0.723019 0.075915
O30   O     O_2   0.666984 0.786561 0.611575 -0.276836
O31   O     O_2   0.611029 0.746150 0.753417 -0.281352
O32   O     O_3   0.729311 0.890096 0.794431 -0.531760
H14   H     H_    0.699462 0.984170 0.814378 0.364540
F1    F     F_    0.279862 0.597060 0.403615 -0.574052
F2    F     F_    0.720819 0.096334 0.596372 -0.573560
S5    S     S_3+6 0.604543 0.136524 0.015990 0.114095
O33   O     O_2   0.555011 0.058969 0.925335 -0.220717
O34   O     O_2   0.575235 0.304769 0.053816 -0.241964
O35   O     O_3   0.674007 0.202983 0.977097 -0.517193
H15   H     H_    0.700706 0.274532 0.035175 0.329729
S6    S     S_3+6 0.395637 0.640110 0.984132 0.108009
O36   O     O_2   0.445499 0.562881 0.074640 -0.240914
O37   O     O_2   0.424768 0.807433 0.945520 -0.241860
O38   O     O_3   0.326439 0.708019 0.023657 -0.503256
H16   H     H_    0.299636 0.779999 0.965755 0.330337
F3    F     F_    0.000634 0.861186 0.345746 -0.564142
F4    F     F_    0.999514 0.357144 0.654219 -0.563084
F5    F     F_    0.794192 0.839718 0.454604 -0.582668
F6    F     F_    0.206288 0.340646 0.546199 -0.581914
S7    S     S_3+6 0.939720 0.836566 0.531242 0.204572
O39   O     O_2   0.923489 0.011554 0.580089 -0.254270
O40   O     O_2   0.915197 0.677444 0.584171 -0.248149
O41   O     O_3   0.023788 0.819635 0.545221 -0.412226
H17   H     H_    0.042233 0.814504 0.620319 0.350043
S8    S     S_3+6 0.060808 0.333948 0.469090 0.205098
O42   O     O_2   0.075060 0.511209 0.420865 -0.255444
O43   O     O_2   0.087169 0.177955 0.415698 -0.247448
O44   O     O_3   0.976960 0.310739 0.454919 -0.411903
H18   H     H_    0.958650 0.304777 0.379808 0.350605

loop_
_geom_bond_atom_site_label_1
_geom_bond_atom_site_label_2
_ccdc_geom_bond_type
C16   C18   A    
O32   H14   S    
C9    C31   A    
C13   C15   A    
C29   S1    S    
O11   C47   A    
C36   S4    S    
C35   S3    S    
O2    C4    A    
C2    O7    A    
O3    V1    S    
C9    C11   A    
O5    C3    A    
S5    O34   D    
S3    O27   D    
C1    C38   S    
O12   V3    S    
C21   C23   A    
C10   C12   A    
C6    C30   A    
C45   O18   A    
C37   C39   A    
C38   C40   A    
C15   C19   A    
O35   H15   S    
C40   C42   A    
C33   C43   A    
O13   C45   A    
S6    O36   D    
C42   H10   S    
H1    C23   S    
C7    C29   A    
C8    C30   A    
C17   C25   A    
C20   C28   A    
O1    C3    A    
C33   C35   A    
O5    V1    S    
O6    V2    S    
C31   C46   S    
C2    C37   S    
C12   S8    S    
O16   V4    S    
C46   O17   A    
C11   S7    S    
O15   V3    S    
C34   H8    S    
S7    O40   D    
O12   C48   A    
S3    O28   D    
S5    O35   S    
C39   C41   A    
C16   C20   A    
O4    C2    A    
O18   V4    S    
O26   H12   S    
C42   C44   A    
O23   H11   S    
O17   V3    S    
C30   S2    S    
C4    C7    S    
C33   H7    S    
O4    V2    S    
C5    C29   A    
C5    S5    S    
H2    C24   S    
S1    O21   D    
S2    O26   S    
O6    C4    A    
O29   H13   S    
C41   H9    S    
C27   H3    S    
O1    V2    S    
C28   H4    S    
O2    V1    S    
S6    O38   S    
C32   C45   S    
S8    O44   S    
C7    C27   A    
S1    O22   D    
S2    O25   D    
C10   F4    S    
S3    O29   S    
S4    O31   D    
C35   C37   A    
C17   C31   A    
O44   H18   S    
C34   C44   A    
S8    O43   D    
O38   H16   S    
S7    O41   S    
C44   C47   S    
C43   C48   S    
C25   H5    S    
C18   C32   A    
C6    S6    S    
O20   V3    S    
O3    C1    A    
O19   V4    S    
S7    O39   D    
C39   F1    S    
C11   C13   A    
S4    O32   S    
C5    C21   A    
S5    O33   D    
C3    C8    S    
C12   C14   A    
C10   C32   A    
C14   C16   A    
O7    V1    S    
C19   C27   A    
C1    O8    A    
C15   C17   A    
O8    V2    S    
C24   C26   A    
C8    C28   A    
C26   H6    S    
C22   C24   A    
C19   C21   A    
C36   C38   A    
C20   C22   A    
C18   C26   A    
O14   V4    S    
S6    O37   D    
O13   V3    S    
C9    F3    S    
C41   C43   A    
S1    O23   S    
S2    O24   D    
O11   V4    S    
C23   C25   A    
S4    O30   D    
O16   C48   A    
O9    V2    S    
C14   F6    S    
O15   C47   A    
O10   V1    S    
O14   C46   A    
C13   F5    S    
O41   H17   S    
C40   F2    S    
C6    C22   A    
C34   C36   A    
S8    O42   D    
