data_mof_unit_15928.cif
_audit_creation_date              2012-12-10T18:20:00-0500
_audit_creation_method            fapswitch 2.2
_symmetry_space_group_name_H-M    P1
_symmetry_Int_Tables_number       1
_space_group_crystal_system       triclinic
_cell_length_a                    10.67556
_cell_length_b                    10.606059
_cell_length_c                    9.445668
_cell_angle_alpha                 90.203824
_cell_angle_beta                  89.573161
_cell_angle_gamma                 89.601136
_cell_volume                      1069.42905009

loop_
_atom_site_label
_atom_site_type_symbol
_atom_type_description
_atom_site_fract_x
_atom_site_fract_y
_atom_site_fract_z
_atom_type_partial_charge
C1    C     C_R   0.499965 0.259517 0.499644 0.839912
C2    C     C_R   0.500035 0.740483 0.500355 0.839909
C3    C     C_3   0.503606 0.959951 0.634730 -0.139006
C4    C     C_3   0.496394 0.040049 0.365269 -0.139005
C5    C     C_3   0.503193 0.614190 0.051212 -0.113696
C6    C     C_3   0.496807 0.385810 0.948788 -0.113698
C7    C     C_3   0.404708 0.559727 0.951967 0.089672
C8    C     C_3   0.595292 0.440273 0.048033 0.089673
C9    C     C_3   0.599706 0.553816 0.948535 -0.059786
C10   C     C_3   0.400294 0.446184 0.051465 -0.059786
C11   C     C_R   0.260036 0.494614 0.500651 0.924449
C12   C     C_R   0.739964 0.505386 0.499349 0.924451
C13   C     C_3   0.035645 0.434111 0.614802 -0.195024
C14   C     C_3   0.964355 0.565888 0.385198 -0.195026
C15   C     C_3   0.952670 0.384755 0.494082 0.565064
C16   C     C_3   0.047330 0.615244 0.505918 0.565068
C17   C     C_3   0.876299 0.508234 0.497617 -0.291994
C18   C     C_3   0.123701 0.491766 0.502382 -0.291992
C19   C     C_3   0.959009 0.558182 0.618088 -0.180398
C20   C     C_3   0.040991 0.441817 0.381911 -0.180401
C21   C     C_3   0.604638 0.041723 0.562362 -0.134786
C22   C     C_3   0.395362 0.958277 0.437638 -0.134786
C23   C     C_3   0.601175 0.956956 0.428912 -0.134773
C24   C     C_3   0.398824 0.043044 0.571087 -0.134774
C25   C     C_3   0.500122 0.877480 0.501136 -0.003733
C26   C     C_3   0.499878 0.122520 0.498864 -0.003733
Cu1   Cu    Cu3+1 0.500030 0.499990 0.643150 1.013510
Cu2   Cu    Cu3+1 0.499970 0.500010 0.356850 1.013510
H1    H     H_    0.683908 0.918491 0.370908 0.179359
H2    H     H_    0.316091 0.081509 0.629092 0.179360
H3    H     H_    0.690203 0.079143 0.613213 0.196125
H4    H     H_    0.309797 0.920857 0.386787 0.196125
H5    H     H_    0.506825 0.924613 0.745154 0.178507
H6    H     H_    0.493175 0.075386 0.254846 0.178503
H7    H     H_    0.505230 0.710372 0.097820 0.150395
H8    H     H_    0.494770 0.289628 0.902180 0.150392
H9    H     H_    0.682681 0.599733 0.901073 0.165495
H10   H     H_    0.317319 0.400267 0.098927 0.165495
N1    N     N_3   0.500090 0.499970 0.858290 -0.198010
N2    N     N_3   0.499910 0.500030 0.141710 -0.198009
O1    O     O_R   0.500060 0.316850 0.620870 -0.588540
O2    O     O_R   0.499940 0.683150 0.379130 -0.588539
O3    O     O_R   0.500000 0.316860 0.379090 -0.558236
O4    O     O_R   0.500000 0.683140 0.620910 -0.558241
O5    O     O_R   0.316880 0.499960 0.620870 -0.544506
O6    O     O_R   0.683120 0.500040 0.379130 -0.544504
O7    O     O_R   0.316830 0.499970 0.379090 -0.589576
O8    O     O_R   0.683170 0.500030 0.620910 -0.589575
F1    F     F_    0.901213 0.265525 0.487032 -0.649523
F2    F     F_    0.098787 0.734474 0.512967 -0.649522
C27   C     C_2   0.067662 0.353626 0.740142 1.037192
O9    O     O_2   0.983723 0.316385 0.817735 -0.508094
O10   O     O_R   0.191854 0.319468 0.766505 -0.765420
H11   H     H_    0.200792 0.265619 0.854369 0.318823
C28   C     C_2   0.932338 0.646373 0.259857 1.037185
O11   O     O_2   0.016277 0.683613 0.182264 -0.508097
O12   O     O_R   0.808146 0.680531 0.233494 -0.765422
H12   H     H_    0.799208 0.734379 0.145629 0.318824
C29   C     C_2   0.912298 0.631714 0.743774 0.942832
O13   O     O_2   0.929344 0.592092 0.863359 -0.497275
O14   O     O_R   0.848611 0.745552 0.722694 -0.751424
H13   H     H_    0.821278 0.786914 0.814901 0.318156
C30   C     C_2   0.087701 0.368285 0.256225 0.942828
O15   O     O_2   0.070656 0.407908 0.136640 -0.497277
O16   O     O_R   0.151388 0.254447 0.277304 -0.751424
H14   H     H_    0.178721 0.213085 0.185097 0.318156
C31   C     C_2   0.294453 0.631197 0.896409 0.900323
O17   O     O_2   0.188808 0.592792 0.919621 -0.509500
O18   O     O_R   0.312648 0.742491 0.820740 -0.764577
H15   H     H_    0.230994 0.781763 0.788162 0.358072
C32   C     C_2   0.705549 0.368803 0.103590 0.900320
O19   O     O_2   0.811192 0.407201 0.080365 -0.509499
O20   O     O_R   0.687355 0.257520 0.179273 -0.764570
H16   H     H_    0.769010 0.218247 0.211849 0.358074

loop_
_geom_bond_atom_site_label_1
_geom_bond_atom_site_label_2
_ccdc_geom_bond_type
Cu1   O8    S    
C7    C10   S    
C21   C26   S    
C30   O16   S    
C11   C18   S    
O20   H16   S    
C11   O7    A    
C12   O8    A    
Cu2   O7    S    
O10   H11   S    
C21   H3    S    
Cu2   O6    S    
C22   H4    S    
C13   C18   S    
C23   H1    S    
C24   C26   S    
Cu2   N2    S    
C9    N1    S    
C10   N2    S    
C13   C27   S    
Cu1   O4    S    
C1    O3    A    
C2    O4    A    
C8    C9    S    
C22   C25   S    
C12   C17   S    
C18   C20   S    
Cu1   O5    S    
C23   C25   S    
C14   C28   S    
C29   O13   D    
C14   C17   S    
C3    C24   S    
O18   H15   S    
C15   C20   S    
C4    H6    S    
C29   O14   S    
C13   C19   S    
C31   O17   D    
C14   C20   S    
C3    C25   S    
C12   O6    A    
Cu1   N1    S    
C5    C7    S    
C4    C23   S    
C6    C8    S    
C19   C29   S    
C27   O9    D    
C27   O10   S    
C5    C9    S    
C4    C22   S    
Cu1   O1    S    
C28   O11   D    
C9    H9    S    
C28   O12   S    
C1    O1    A    
C13   C15   S    
C1    C26   S    
C14   C16   S    
C3    C21   S    
C32   O20   S    
C15   C17   S    
C8    C32   S    
C7    N1    S    
C16   F2    S    
C6    C10   S    
C4    C26   S    
Cu2   O3    S    
C10   H10   S    
C20   C30   S    
C21   C23   S    
C32   O19   D    
O12   H12   S    
C2    O2    A    
C16   C19   S    
C5    H7    S    
Cu2   O2    S    
C17   C19   S    
C6    H8    S    
C2    C25   S    
C22   C24   S    
C15   F1    S    
O14   H13   S    
C24   H2    S    
C11   O5    A    
C7    C31   S    
C30   O15   D    
C16   C18   S    
O16   H14   S    
C5    N2    S    
Cu1   Cu2   S    
C3    H5    S    
C6    N1    S    
C8    N2    S    
C31   O18   S    
