data_mof_unit_8006.cif
_audit_creation_date              2012-12-11T16:45:49-0500
_audit_creation_method            fapswitch 2.2
_symmetry_space_group_name_H-M    P1
_symmetry_Int_Tables_number       1
_space_group_crystal_system       triclinic
_cell_length_a                    19.840361
_cell_length_b                    17.099356
_cell_length_c                    15.454804
_cell_angle_alpha                 90.044908
_cell_angle_beta                  52.82845
_cell_angle_gamma                 89.970696
_cell_volume                      4177.9001292

loop_
_atom_site_label
_atom_site_type_symbol
_atom_type_description
_atom_site_fract_x
_atom_site_fract_y
_atom_site_fract_z
_atom_type_partial_charge
Br1   Br    Br    0.875866 0.115977 0.929162 -0.451481
Br2   Br    Br    0.143087 0.159673 0.043649 -0.438582
Br3   Br    Br    0.171946 0.730331 0.232595 -0.573758
Br4   Br    Br    0.623952 0.615578 0.071075 -0.464483
Br5   Br    Br    0.951711 0.565377 0.375893 -0.588961
Br6   Br    Br    0.135978 0.551284 0.564562 -0.554679
Br7   Br    Br    0.421679 0.068441 0.402153 -0.603440
Br8   Br    Br    0.544200 0.065622 0.628447 -0.602834
C1    C     C_R   0.838735 0.670871 0.051367 -0.144137
C2    C     C_R   0.204237 0.341839 0.988805 0.123100
C3    C     C_R   0.291934 0.845460 0.016474 0.145234
C4    C     C_R   0.650068 0.811170 0.071645 0.134313
C5    C     C_R   0.896817 0.689127 0.296772 0.017321
C6    C     C_R   0.179205 0.651437 0.679465 -0.027282
C7    C     C_R   0.366083 0.179734 0.311180 -0.003943
C8    C     C_R   0.602760 0.188895 0.703392 0.011933
C9    C     C_R   0.870876 0.732437 0.467720 0.194555
C10   C     C_R   0.207440 0.722705 0.528991 0.248303
C11   C     C_R   0.305746 0.219247 0.494002 0.231963
C12   C     C_R   0.124489 0.694049 0.007708 -0.167090
C13   C     C_R   0.630424 0.231114 0.531120 0.225087
C14   C     C_R   0.878153 0.751079 0.374131 0.035064
C15   C     C_R   0.236659 0.694761 0.584870 0.028278
C16   C     C_R   0.301721 0.219464 0.407793 0.014428
C17   C     C_R   0.622160 0.250397 0.625284 0.016317
C18   C     C_R   0.225270 0.237343 0.424590 -0.177025
C19   C     C_R   0.662316 0.318110 0.625106 -0.185696
C20   C     C_R   0.837646 0.818637 0.374597 -0.176273
C21   C     C_R   0.322706 0.697636 0.539477 -0.183536
C22   C     C_R   0.155996 0.262345 0.526019 -0.150017
C23   C     C_R   0.351252 0.182957 0.027363 -0.144108
C24   C     C_R   0.722452 0.355556 0.528351 -0.169996
C25   C     C_R   0.777562 0.856097 0.471509 -0.172966
C26   C     C_R   0.377890 0.736133 0.440974 -0.121828
C27   C     C_R   0.163519 0.267602 0.609872 0.075946
C28   C     C_R   0.740806 0.328272 0.430521 0.041428
C29   C     C_R   0.759673 0.828955 0.569098 0.043822
C30   C     C_R   0.345166 0.768814 0.390480 0.059525
C31   C     C_R   0.811190 0.771277 0.565172 0.261340
C32   C     C_R   0.261226 0.758881 0.432205 0.223601
C33   C     C_R   0.237460 0.242947 0.594020 0.220208
C34   C     C_R   0.661136 0.170813 0.948831 -0.141990
C35   C     C_R   0.689959 0.270123 0.433971 0.262719
C36   C     C_3   0.872027 0.785310 0.589781 -0.546228
C37   C     C_3   0.196691 0.818981 0.457506 -0.501836
C38   C     C_3   0.291535 0.286469 0.615551 -0.559659
C39   C     C_3   0.629466 0.283174 0.408549 -0.523033
C40   C     C_R   0.856468 0.322446 0.224313 0.454588
C41   C     C_R   0.096179 0.300656 0.797193 0.405177
C42   C     C_R   0.401594 0.801618 0.206013 0.457869
C43   C     C_R   0.644082 0.822823 0.775390 0.444259
C44   C     C_3   0.937749 0.746413 0.483297 -0.385358
C45   C     C_R   0.814679 0.357207 0.326645 -0.074997
C46   C     C_3   0.136667 0.778120 0.565624 -0.482200
C47   C     C_3   0.366953 0.261044 0.503915 -0.438628
C48   C     C_3   0.563946 0.243681 0.514452 -0.458442
C49   C     C_2   0.792123 0.180048 0.937806 0.322851
C50   C     C_2   0.247586 0.210900 0.994341 0.327414
C51   C     C_2   0.186009 0.741026 0.098292 0.316042
C52   C     C_2   0.707253 0.679756 0.063160 0.321990
C53   C     C_2   0.224921 0.801415 0.029084 -0.273901
C54   C     C_2   0.697247 0.756741 0.088529 -0.290124
C55   C     C_2   0.801481 0.257129 0.913293 -0.285228
C56   C     C_R   0.105829 0.313051 0.703732 -0.047528
C57   C     C_2   0.262748 0.288623 0.982137 -0.338855
C58   C     C_R   0.865750 0.388769 0.896814 -0.150734
C59   C     C_R   0.165233 0.405758 0.058038 -0.096458
C60   C     C_R   0.332645 0.908257 0.946313 -0.111400
C61   C     C_R   0.633809 0.888688 0.103722 -0.142184
C62   C     C_R   0.913509 0.610555 0.298759 0.289486
C63   C     C_R   0.132609 0.589581 0.683877 0.325849
C64   C     C_R   0.396294 0.106122 0.308120 0.321241
C65   C     C_R   0.585766 0.110402 0.701771 0.289313
C66   C     C_R   0.876265 0.299255 0.991274 -0.016653
C67   C     C_R   0.393749 0.816198 0.298246 -0.062720
C68   C     C_R   0.159975 0.322152 0.950684 -0.026399
C69   C     C_R   0.342621 0.818526 0.042982 -0.052518
C70   C     C_R   0.622953 0.799002 0.009709 -0.016071
C71   C     C_R   0.901991 0.699432 0.204383 -0.192348
C72   C     C_R   0.143263 0.677953 0.782351 -0.182690
C73   C     C_R   0.384676 0.194753 0.212172 -0.182883
C74   C     C_R   0.597835 0.199363 0.795656 -0.189426
C75   C     C_R   0.861165 0.421629 0.315196 -0.147001
C76   C     C_R   0.089703 0.390587 0.700186 -0.156844
C77   C     C_R   0.407525 0.893652 0.302291 -0.192721
C78   C     C_R   0.685642 0.857609 0.673158 -0.066256
C79   C     C_R   0.638758 0.921776 0.684828 -0.152253
C80   C     C_R   0.827929 0.579501 0.955883 -0.060045
C81   C     C_R   0.134657 0.603200 0.102813 -0.050702
C82   C     C_R   0.342792 0.092827 0.928211 -0.049551
C83   C     C_R   0.671927 0.079597 0.044431 -0.044443
C84   C     C_R   0.786216 0.642212 0.028360 0.033394
C85   C     C_R   0.152268 0.680498 0.068763 0.050943
C86   C     C_R   0.308813 0.161765 0.986959 0.041623
C87   C     C_R   0.713507 0.142279 0.972126 0.026205
C88   C     C_R   0.849048 0.311438 0.929502 0.138127
Cl1   Cl    Cl    0.847663 0.223226 0.203127 -0.618309
Cl2   Cl    Cl    0.074045 0.208664 0.859800 -0.570208
Cl3   Cl    Cl    0.421113 0.708129 0.148005 -0.586084
Cl4   Cl    Cl    0.654767 0.724062 0.796254 -0.655040
H1    H     H_    0.827105 0.717959 0.105242 0.109634
H2    H     H_    0.214092 0.879015 0.465243 0.210398
H3    H     H_    0.280719 0.350756 0.622696 0.208442
H4    H     H_    0.615863 0.346102 0.407211 0.202106
H5    H     H_    0.855630 0.751160 0.661325 0.240103
H6    H     H_    0.177445 0.813940 0.403554 0.250498
H7    H     H_    0.289932 0.259535 0.682229 0.220984
H8    H     H_    0.646871 0.249018 0.336443 0.241061
H9    H     H_    0.987893 0.787278 0.422075 0.225538
H10   H     H_    0.119144 0.814140 0.636447 0.204818
H11   H     H_    0.399448 0.310254 0.445492 0.203809
H12   H     H_    0.114402 0.750169 0.985055 0.111098
H13   H     H_    0.512548 0.283747 0.575827 0.198624
H14   H     H_    0.962089 0.691497 0.493617 0.257395
H15   H     H_    0.082930 0.749006 0.573931 0.233202
H16   H     H_    0.409448 0.220456 0.506440 0.237813
H17   H     H_    0.541216 0.188219 0.502844 0.255875
H18   H     H_    0.221917 0.809271 0.961851 0.123540
H19   H     H_    0.739741 0.786764 0.099239 0.126504
H20   H     H_    0.758514 0.287204 0.903445 0.125776
H21   H     H_    0.320136 0.313353 0.964943 0.139181
H22   H     H_    0.859626 0.416023 0.838739 0.125678
H23   H     H_    0.345116 0.236492 0.068571 0.107066
H24   H     H_    0.181677 0.433940 0.105639 0.127307
H25   H     H_    0.314228 0.937697 0.901820 0.124443
H26   H     H_    0.639828 0.916085 0.161856 0.131281
H27   H     H_    0.882730 0.244287 0.017961 0.233917
H28   H     H_    0.174107 0.275508 0.895315 0.167422
H29   H     H_    0.336098 0.765533 0.084246 0.203350
H30   H     H_    0.615555 0.743939 0.984042 0.232756
H31   H     H_    0.906303 0.754623 0.167395 0.120954
H32   H     H_    0.159970 0.729438 0.806146 0.133319
H33   H     H_    0.375505 0.249206 0.185197 0.130803
H34   H     H_    0.672757 0.217818 0.894964 0.110307
H35   H     H_    0.593878 0.254605 0.832426 0.117914
H36   H     H_    0.846859 0.462211 0.377244 0.167437
H37   H     H_    0.075675 0.413069 0.647773 0.189854
H38   H     H_    0.412042 0.920257 0.361494 0.200491
H39   H     H_    0.652568 0.962351 0.623046 0.169462
H40   H     H_    0.805239 0.544650 0.919976 0.140472
H41   H     H_    0.138811 0.576455 0.162821 0.174836
H42   H     H_    0.329709 0.066428 0.876303 0.140335
H43   H     H_    0.694558 0.044871 0.080495 0.140934
H44   H     H_    0.219267 0.232153 0.359645 0.152984
H45   H     H_    0.098867 0.281079 0.537596 0.152336
H46   H     H_    0.656178 0.337011 0.696279 0.145208
H47   H     H_    0.843224 0.837200 0.303725 0.146452
H48   H     H_    0.346093 0.671827 0.580703 0.148540
H49   H     H_    0.758042 0.402104 0.530773 0.157952
H50   H     H_    0.741531 0.902386 0.469424 0.159319
H51   H     H_    0.444083 0.742438 0.406317 0.152179
H52   H     H_    0.884677 0.848435 0.591610 0.209652
N1    N     N_R   0.908660 0.628630 0.995840 -0.041087
N2    N     N_R   0.096530 0.421430 0.063580 -0.051778
N3    N     N_R   0.403470 0.921430 0.936420 -0.048329
N4    N     N_R   0.596530 0.921430 0.063580 -0.056046
N5    N     N_R   0.927500 0.575670 0.211370 -0.072173
N6    N     N_R   0.072500 0.575670 0.788630 -0.073056
N7    N     N_R   0.427500 0.075670 0.211370 -0.067963
N8    N     N_R   0.572500 0.075670 0.788630 -0.070097
N9    N     N_R   0.908660 0.365680 0.995820 -0.071039
N10   N     N_R   0.091340 0.365680 0.004180 -0.042803
N11   N     N_R   0.408660 0.865680 0.995820 -0.057096
N12   N     N_R   0.091340 0.628630 0.004160 -0.041261
N13   N     N_R   0.591340 0.865680 0.004180 -0.072200
N14   N     N_R   0.922310 0.631420 0.151980 -0.056245
N15   N     N_R   0.077690 0.631420 0.848020 -0.057216
N16   N     N_R   0.422310 0.131420 0.151980 -0.057110
N17   N     N_R   0.577690 0.131420 0.848020 -0.057316
N18   N     N_R   0.927500 0.426330 0.211360 -0.056794
N19   N     N_R   0.072500 0.426330 0.788640 -0.070561
N20   N     N_R   0.427500 0.926330 0.211360 -0.061506
N21   N     N_R   0.572500 0.926330 0.788640 -0.057691
N22   N     N_R   0.903470 0.570760 0.936440 -0.051031
N23   N     N_R   0.408660 0.128630 0.995840 -0.043415
N24   N     N_R   0.096530 0.570760 0.063560 -0.055915
N25   N     N_R   0.403470 0.070760 0.936440 -0.045864
N26   N     N_R   0.596530 0.070760 0.063560 -0.048319
N27   N     N_R   0.591340 0.128630 0.004160 -0.042174
N28   N     N_R   0.922310 0.368460 0.151950 -0.078523
N29   N     N_R   0.077690 0.368460 0.848050 -0.103391
N30   N     N_R   0.422310 0.868460 0.151950 -0.098291
N31   N     N_R   0.577690 0.868460 0.848050 -0.083972
N32   N     N_R   0.903470 0.421430 0.936420 -0.057459
Ni1   Ni    Ni4+2 0.000000 0.630300 0.000000 0.210153
Ni2   Ni    Ni4+2 0.500000 0.130300 0.000000 0.213780
Ni3   Ni    Ni4+2 0.000000 0.369700 0.000000 0.313587
Ni4   Ni    Ni4+2 0.500000 0.869700 0.000000 0.296222
Ni5   Ni    Ni4+2 0.988090 0.497570 0.863760 0.233295
Ni6   Ni    Ni4+2 0.011910 0.497570 0.136240 0.264772
Ni7   Ni    Ni4+2 0.488090 0.997570 0.863760 0.267169
Ni8   Ni    Ni4+2 0.511910 0.997570 0.136240 0.248589

loop_
_geom_bond_atom_site_label_1
_geom_bond_atom_site_label_2
_ccdc_geom_bond_type
C69   N11   A    
C12   C85   A    
C5    C71   A    
C27   C33   A    
N25   Ni7   S    
N14   Ni1   S    
C48   H17   S    
C68   N10   A    
C8    C65   A    
C4    C61   A    
C76   N19   A    
C59   H24   S    
C21   H48   S    
N26   N27   A    
N29   Ni3   S    
N23   N25   A    
N27   Ni2   S    
C23   N23   A    
C36   H5    S    
N20   Ni8   S    
C7    C64   A    
C65   N8    A    
C46   H10   S    
C42   Cl3   S    
C36   H52   S    
C64   N7    A    
C22   C27   A    
C59   N2    A    
C72   H32   S    
C15   C21   A    
C16   C18   A    
N17   Ni2   S    
C43   N31   A    
C25   H50   S    
C20   C25   A    
N10   Ni3   S    
C81   H41   S    
C47   H16   S    
C12   N12   A    
C83   N26   A    
C43   Cl4   S    
C80   N22   A    
N7    N16   A    
C1    C84   A    
C52   C54   D    
C9    C31   A    
C48   H13   S    
C74   H35   S    
C10   C32   A    
N5    Ni6   S    
C80   H40   S    
C13   C17   A    
C28   C45   S    
C3    C69   A    
C41   Cl2   S    
C12   H12   S    
C2    C68   A    
C67   C77   A    
C56   C76   A    
C24   H49   S    
C80   C84   A    
C70   N13   A    
C4    C70   A    
C38   C47   S    
C33   C38   S    
C58   H22   S    
C82   C86   A    
C27   C56   S    
C6    C72   A    
C37   C46   S    
C72   N15   A    
C36   C44   S    
N2    Ni6   S    
C82   N25   A    
C1    N1    A    
C41   C56   A    
C13   C35   A    
C46   H15   S    
C81   C85   A    
C40   C45   A    
C18   H44   S    
C9    C44   S    
C60   H25   S    
N2    N10   A    
N6    N15   A    
C49   C55   D    
C83   H43   S    
C30   C67   S    
C52   C84   S    
Br6   C63   S    
C79   N21   A    
C51   C53   D    
C77   N20   A    
N16   Ni2   S    
C34   C87   A    
C61   N4    A    
C66   C88   A    
C29   C78   S    
N19   Ni5   S    
C7    C73   A    
N12   Ni1   S    
N6    Ni5   S    
Br7   C64   S    
C78   C79   A    
N30   Ni4   S    
N3    N11   A    
C2    C59   A    
N1    N22   A    
N21   Ni7   S    
C25   C29   A    
C10   C15   A    
N18   N28   A    
N11   Ni4   S    
C6    C15   S    
Br5   C62   S    
C40   Cl1   S    
N28   Ni3   S    
Br1   C49   S    
C13   C48   S    
C4    C54   S    
N13   Ni4   S    
C50   C57   D    
N24   Ni6   S    
C66   H27   S    
C34   N27   A    
N8    N17   A    
C71   H31   S    
C38   H7    S    
Br4   C52   S    
C8    C74   A    
C54   H19   S    
C75   H36   S    
C69   H29   S    
C44   H9    S    
C42   N30   A    
C82   H42   S    
C60   N3    A    
N3    Ni7   S    
C41   N29   A    
N4    Ni8   S    
C1    H1    S    
C7    C16   S    
C61   H26   S    
C18   C22   A    
C57   H21   S    
C49   C87   S    
C37   H6    S    
C68   H28   S    
C24   C28   A    
C40   N28   A    
C3    C60   A    
C22   H45   S    
C58   C88   A    
C2    C57   S    
C11   C47   S    
C8    C17   S    
C55   C88   S    
C63   N6    A    
C58   N32   A    
C20   H47   S    
C39   H4    S    
C53   H18   S    
C47   H11   S    
C19   C24   A    
C26   C30   A    
N7    Ni8   S    
N19   N29   A    
N8    Ni7   S    
C79   H39   S    
C3    C53   S    
N5    N14   A    
C76   H37   S    
C66   N9    A    
C26   H51   S    
Br2   C50   S    
C73   H33   S    
C31   C36   S    
C44   H14   S    
C75   N18   A    
C17   C19   A    
C23   C86   A    
C38   H3    S    
N18   Ni6   S    
C9    C14   A    
C34   H34   S    
C45   C75   A    
C62   N5    A    
N9    N32   A    
C11   C16   A    
C70   H30   S    
C23   H23   S    
N9    Ni3   S    
N31   Ni4   S    
N23   Ni2   S    
C30   C32   A    
C55   H20   S    
N1    Ni1   S    
N4    N13   A    
C19   H46   S    
C6    C63   A    
C21   C26   A    
Br8   C65   S    
C73   N16   A    
C5    C14   S    
N12   N24   A    
N26   Ni8   S    
C71   N14   A    
C50   C86   S    
C43   C78   A    
C74   N17   A    
C37   H2    S    
C10   C46   S    
N22   Ni5   S    
C83   C87   A    
N20   N30   A    
C32   C37   S    
N21   N31   A    
C29   C31   A    
C39   H8    S    
C5    C62   A    
N32   Ni5   S    
C28   C35   A    
C14   C20   A    
C51   C85   S    
C81   N24   A    
C42   C67   A    
C35   C39   S    
C77   H38   S    
C11   C33   A    
Br3   C51   S    
C39   C48   S    
N15   Ni1   S    
