data_mof_unit_13084.cif
_audit_creation_date              2012-12-10T16:58:29-0500
_audit_creation_method            fapswitch 2.2
_symmetry_space_group_name_H-M    P1
_symmetry_Int_Tables_number       1
_space_group_crystal_system       triclinic
_cell_length_a                    7.963901
_cell_length_b                    8.637406
_cell_length_c                    23.213786
_cell_angle_alpha                 94.214488
_cell_angle_beta                  83.344348
_cell_angle_gamma                 92.747859
_cell_volume                      1580.51357276

loop_
_atom_site_label
_atom_site_type_symbol
_atom_type_description
_atom_site_fract_x
_atom_site_fract_y
_atom_site_fract_z
_atom_type_partial_charge
C1    C     C_R   0.543561 0.793417 0.499374 0.910976
C2    C     C_R   0.399505 0.418143 0.292995 0.185706
C3    C     C_R   0.403228 0.518615 0.774184 -0.126066
C4    C     C_R   0.422366 0.420059 0.232449 -0.184203
C5    C     C_R   0.517208 0.411206 0.787174 0.277549
C6    C     C_R   0.573381 0.481272 0.203904 0.279748
C7    C     C_2   0.562376 0.952702 0.489299 -0.017946
C8    C     C_2   0.438039 0.047614 0.512077 -0.014818
C9    C     C_R   0.498130 0.496829 0.610489 0.830826
C10   C     C_R   0.503302 0.499743 0.389242 0.865704
C11   C     C_R   0.578810 0.316435 0.115153 0.492717
C12   C     C_R   0.456384 0.206619 0.501288 0.904922
C13   C     C_R   0.638389 0.537181 0.868789 0.494211
C14   C     C_R   0.656012 0.585279 0.110050 0.509015
C15   C     C_R   0.510712 0.282564 0.876101 0.516183
C16   C     C_R   0.673369 0.568328 0.049384 -0.054926
C17   C     C_R   0.536742 0.285037 0.934655 -0.053969
C18   C     C_R   0.617378 0.428235 0.021710 -0.031225
C19   C     C_R   0.607674 0.420465 0.961424 -0.034817
C20   C     C_R   0.566812 0.298228 0.054699 -0.076258
C21   C     C_R   0.663742 0.549364 0.928278 -0.080323
C22   C     C_R   0.738556 0.691569 0.016660 -0.159574
C23   C     C_R   0.612294 0.325972 0.742893 -0.108836
C24   C     C_R   0.486857 0.156583 0.966858 -0.155703
C25   C     C_R   0.737715 0.685201 0.956092 0.123647
C26   C     C_R   0.501496 0.158920 0.026651 0.109296
C27   C     C_3   0.806463 0.824905 0.922234 -0.319312
C28   C     C_3   0.890261 0.959909 0.956112 -0.923004
C29   C     C_3   0.442100 0.016937 0.060554 -0.301391
C30   C     C_3   0.357518 0.880791 0.027517 -0.924991
C31   C     C_3   0.177724 0.750704 0.747230 -0.754852
C32   C     C_3   0.346169 0.169575 0.332011 -0.784913
C33   C     C_3   0.680608 0.935196 0.388531 -0.818699
C34   C     C_R   0.696911 0.550585 0.236524 -0.089918
C35   C     C_3   0.338230 0.043944 0.614054 -0.819616
C36   C     C_3   0.935837 0.292212 0.399675 -0.671045
C37   C     C_3   0.052696 0.702492 0.602393 -0.676022
C38   C     C_R   0.600521 0.353698 0.685590 -0.263468
C39   C     C_R   0.668354 0.561576 0.296685 -0.293824
C40   C     C_R   0.494872 0.468249 0.671861 -0.102761
C41   C     C_R   0.518495 0.498316 0.325661 -0.050400
C42   C     C_R   0.392387 0.551229 0.716328 0.197216
H1    H     H_    0.787204 0.794429 0.039416 0.203655
H2    H     H_    0.997339 0.918204 0.976128 0.260079
H3    H     H_    0.939670 0.049782 0.925971 0.274113
H4    H     H_    0.904341 0.784199 0.887032 0.247720
H5    H     H_    0.700845 0.873764 0.902963 0.252180
H6    H     H_    0.241768 0.919044 0.011731 0.259105
H7    H     H_    0.444100 0.833046 0.990414 0.268313
H8    H     H_    0.321325 0.786480 0.057151 0.272375
H9    H     H_    0.552701 0.971008 0.077793 0.268921
H10   H     H_    0.347571 0.054092 0.097408 0.244312
H11   H     H_    0.354694 0.746828 0.673136 0.221451
H12   H     H_    0.434587 0.054586 0.944602 0.203424
H13   H     H_    0.250146 0.820077 0.778949 0.261484
H14   H     H_    0.090418 0.664211 0.769592 0.259445
H15   H     H_    0.100014 0.830838 0.727275 0.240161
H16   H     H_    0.173156 0.292449 0.295889 0.224950
H17   H     H_    0.408448 0.109953 0.291602 0.270776
H18   H     H_    0.245388 0.089843 0.351235 0.228897
H19   H     H_    0.439650 0.192922 0.363794 0.233805
H20   H     H_    0.814479 0.985939 0.459291 0.257893
H21   H     H_    0.772837 0.994567 0.357138 0.246235
H22   H     H_    0.551253 0.948978 0.376813 0.247872
H23   H     H_    0.701422 0.243885 0.753007 0.153688
H24   H     H_    0.707271 0.810332 0.385352 0.250004
H25   H     H_    0.187468 0.034203 0.546968 0.256781
H26   H     H_    0.233562 0.998282 0.644729 0.243507
H27   H     H_    0.346295 0.172275 0.621852 0.253947
H28   H     H_    0.458241 0.994423 0.622826 0.235468
H29   H     H_    0.145731 0.336414 0.441502 0.294713
H30   H     H_    0.990775 0.186993 0.376490 0.199340
H31   H     H_    0.950764 0.389581 0.370543 0.230343
H32   H     H_    0.801403 0.262301 0.410688 0.297442
H33   H     H_    0.851984 0.662655 0.557052 0.281996
H34   H     H_    0.817103 0.592682 0.215433 0.166816
H35   H     H_    0.986613 0.800842 0.627348 0.193544
H36   H     H_    0.186724 0.738793 0.593194 0.294788
H37   H     H_    0.038654 0.600255 0.629212 0.255564
H38   H     H_    0.677482 0.287635 0.651731 0.176925
H39   H     H_    0.768462 0.612749 0.320469 0.166468
H40   H     H_    0.333944 0.583669 0.810097 0.144492
H41   H     H_    0.329257 0.361011 0.207201 0.147839
H42   H     H_    0.798453 0.014691 0.990106 0.271881
N1    N     N_R   0.605471 0.460846 0.141682 -0.335423
N2    N     N_2   0.979572 0.666263 0.549031 -0.237092
N3    N     N_R   0.556814 0.409005 0.845468 -0.338725
N4    N     N_2   0.950330 0.457950 0.484560 0.020170
N5    N     N_2   0.049670 0.542050 0.515440 0.022235
N6    N     N_2   0.292334 0.673552 0.702340 -0.312281
N7    N     N_2   0.275749 0.313250 0.319117 -0.312448
N8    N     N_2   0.696040 0.000083 0.447014 -0.307214
N9    N     N_2   0.305065 0.001264 0.554839 -0.303453
N10   N     N_2   0.018208 0.332740 0.451093 -0.231903
O1    O     O_R   0.389250 0.738570 0.503790 -0.593180
O2    O     O_2   0.691944 0.651684 0.833812 -0.597175
O3    O     O_2   0.684782 0.726084 0.137194 -0.573643
O4    O     O_2   0.436713 0.156415 0.850090 -0.579262
O5    O     O_R   0.610750 0.261430 0.496210 -0.601952
O6    O     O_R   0.678390 0.711620 0.493890 -0.654170
O7    O     O_R   0.321610 0.288380 0.506110 -0.650672
O8    O     O_R   0.355400 0.513520 0.588790 -0.613568
O9    O     O_R   0.644600 0.486480 0.411210 -0.639175
O10   O     O_R   0.644550 0.486570 0.578900 -0.639528
O11   O     O_R   0.355450 0.513430 0.421100 -0.617647
O12   O     O_2   0.565176 0.192685 0.147771 -0.580906
Zn1   Zn    Zn3+2 0.306930 0.518000 0.506610 0.964166
Zn2   Zn    Zn3+2 0.693070 0.482000 0.493390 0.945299

loop_
_geom_bond_atom_site_label_1
_geom_bond_atom_site_label_2
_ccdc_geom_bond_type
O7    Zn1   S    
C3    C42   A    
C28   H42   S    
C7    C8    D    
C39   C41   A    
H29   N10   S    
O5    Zn2   S    
O11   Zn1   S    
C6    N1    S    
C20   C26   A    
C30   H6    S    
C10   O9    A    
C19   C21   A    
C24   C26   A    
C32   H19   S    
C33   H22   S    
N4    Zn2   S    
C32   N7    S    
C2    C41   A    
C24   H12   S    
C18   C19   A    
C12   O5    A    
C35   H28   S    
C9    O8    A    
C22   C25   A    
H20   N8    S    
O9    Zn2   S    
C31   H14   S    
H16   N7    S    
C1    O1    A    
C40   C42   A    
C30   H8    S    
C10   C41   S    
C13   N3    A    
C11   O12   S    
C1    O6    A    
C33   H24   S    
C35   N9    S    
C11   C20   A    
N4    N10   S    
C28   H3    S    
O6    Zn2   S    
C17   C24   A    
C13   O2    S    
C34   C39   A    
C37   N2    S    
C39   H39   S    
C4    C6    A    
C33   N8    S    
C37   H35   S    
C28   H2    S    
C9    C40   S    
C6    C34   A    
C42   N6    S    
C2    C4    A    
C29   C30   S    
C37   H37   S    
H33   N2    S    
C22   H1    S    
C5    C23   A    
C8    C12   S    
C31   N6    S    
N5    Zn1   S    
C3    H40   S    
C13   C21   A    
O8    Zn1   S    
O1    Zn1   S    
C27   H4    S    
C30   H7    S    
C14   C16   A    
C32   H18   S    
C15   O4    S    
O10   Zn2   S    
C14   O3    S    
C15   N3    A    
C29   H9    S    
C27   H5    S    
C15   C17   A    
C21   C25   A    
C36   H32   S    
C16   C22   A    
C1    C7    S    
C8    N9    S    
C14   N1    A    
C3    C5    A    
N2    N5    S    
C25   C27   S    
C23   C38   A    
C37   H36   S    
C23   H23   S    
C12   O7    A    
C38   C40   A    
C31   H15   S    
C4    H41   S    
C38   H38   S    
C35   H26   S    
C11   N1    A    
C9    O10   A    
C7    N8    S    
C17   C19   A    
C18   C20   A    
C2    N7    S    
C33   H21   S    
C36   H31   S    
C5    N3    S    
C36   N10   S    
N4    N5    D    
C35   H27   S    
C26   C29   S    
C16   C18   A    
H11   N6    S    
H25   N9    S    
C10   O11   A    
C32   H17   S    
C31   H13   S    
C36   H30   S    
C34   H34   S    
C27   C28   S    
C29   H10   S    
