data_mof_unit_27971.cif
_audit_creation_date              2012-12-11T17:11:31-0500
_audit_creation_method            fapswitch 2.2
_symmetry_space_group_name_H-M    P1
_symmetry_Int_Tables_number       1
_space_group_crystal_system       triclinic
_cell_length_a                    14.977309
_cell_length_b                    6.939318
_cell_length_c                    13.607727
_cell_angle_alpha                 90.014286
_cell_angle_beta                  100.705272
_cell_angle_gamma                 90.08225
_cell_volume                      1389.66629169

loop_
_atom_site_label
_atom_site_type_symbol
_atom_type_description
_atom_site_fract_x
_atom_site_fract_y
_atom_site_fract_z
_atom_type_partial_charge
O1    O     O_R   0.398250 0.605080 0.401520 -0.538501
O2    O     O_R   0.898250 0.394920 0.901520 -0.537308
O3    O     O_R   0.584130 0.932110 0.405450 -0.508029
O4    O     O_R   0.084130 0.067890 0.905450 -0.506246
O5    O     O_R   0.601750 0.105090 0.598480 -0.542548
O6    O     O_R   0.101750 0.894910 0.098480 -0.535600
C1    C     C_R   0.613240 0.764070 0.384366 0.773343
C2    C     C_R   0.113508 0.235944 0.884644 0.776077
O7    O     O_R   0.397870 0.934620 0.389680 -0.539176
O8    O     O_R   0.897870 0.065380 0.889680 -0.542878
O9    O     O_R   0.414160 0.107620 0.582600 -0.541960
O10   O     O_R   0.914160 0.892380 0.082600 -0.542072
C3    C     C_R   0.363948 0.765657 0.362715 0.728814
C4    C     C_R   0.864062 0.234210 0.862543 0.720609
O11   O     O_R   0.585840 0.602550 0.417400 -0.542254
O12   O     O_R   0.085840 0.397450 0.917400 -0.543290
O13   O     O_3   0.505560 0.772440 0.563310 -0.378649
O14   O     O_3   0.005560 0.227560 0.063310 -0.378128
V1    V     V_3+5 0.498970 0.046250 0.488250 1.460647
V2    V     V_3+5 0.998970 0.953750 0.988250 1.459965
O15   O     O_R   0.415870 0.437500 0.594550 -0.547530
O16   O     O_R   0.915870 0.562500 0.094550 -0.547566
C5    C     C_R   0.386632 0.269223 0.614974 0.766580
C6    C     C_R   0.887748 0.730781 0.116331 0.766573
O17   O     O_R   0.602130 0.434980 0.610320 -0.538644
O18   O     O_R   0.102130 0.565020 0.110320 -0.540632
C7    C     C_R   0.635726 0.265993 0.637662 0.723256
C8    C     C_R   0.135962 0.734162 0.137343 0.741616
V3    V     V_3+5 0.501030 0.546580 0.511750 1.425318
V4    V     V_3+5 0.001030 0.453420 0.011750 1.425665
O19   O     O_3   0.494440 0.270520 0.436690 -0.360631
O20   O     O_3   0.994440 0.729480 0.936690 -0.364399
C9    C     C_1   0.716219 0.255360 0.717060 -0.182260
C10   C     C_1   0.216276 0.744898 0.216964 -0.186960
C11   C     C_1   0.783638 0.244907 0.783066 -0.183010
C12   C     C_1   0.283575 0.754924 0.283170 -0.183842
C13   C     C_2   0.291969 0.104564 0.720513 -0.231982
C14   C     C_2   0.782197 0.895589 0.208849 -0.231357
C15   C     C_2   0.314952 0.266033 0.676512 -0.366350
C16   C     C_2   0.825052 0.734412 0.188467 -0.369448
H1    H     H_    0.330306 0.974153 0.713629 0.149498
H2    H     H_    0.793690 0.028017 0.170443 0.153122
H3    H     H_    0.278655 0.399505 0.682074 0.124632
H4    H     H_    0.816354 0.600900 0.227028 0.129064
C17   C     C_2   0.214232 0.089122 0.775778 0.459369
C18   C     C_2   0.722654 0.909981 0.285755 0.458227
C19   C     C_2   0.184169 0.244974 0.820903 -0.389708
C20   C     C_2   0.678439 0.754257 0.314314 -0.389948
H5    H     H_    0.214339 0.385239 0.814449 0.101553
H6    H     H_    0.688977 0.612889 0.284759 0.105569
O21   O     O_3   0.179703 0.907805 0.792439 -0.558718
C21   C     C_3   0.154388 0.801100 0.702714 0.091455
H7    H     H_    0.137555 0.653010 0.724146 0.138107
H8    H     H_    0.210795 0.784555 0.660728 0.095721
C22   C     C_3   0.069562 0.884611 0.635575 -0.318160
H9    H     H_    0.013610 0.895124 0.678732 0.201259
H10   H     H_    0.084483 0.031318 0.610140 0.182913
C23   C     C_3   0.039044 0.757503 0.543848 -0.848009
H11   H     H_    0.094467 0.743685 0.500207 0.229268
H12   H     H_    0.979298 0.822998 0.495019 0.236085
H13   H     H_    0.019830 0.611951 0.566894 0.230662
O22   O     O_3   0.703279 0.092223 0.318705 -0.557682
C24   C     C_3   0.783149 0.183808 0.369854 0.077031
H14   H     H_    0.768354 0.340198 0.372467 0.135544
H15   H     H_    0.841885 0.170647 0.330785 0.101071
C25   C     C_3   0.808684 0.109864 0.477523 -0.301911
H16   H     H_    0.748615 0.119076 0.513998 0.204165
H17   H     H_    0.829410 0.956378 0.477191 0.171509
C26   C     C_3   0.885994 0.227836 0.537898 -0.860838
H18   H     H_    0.947321 0.219778 0.503040 0.233116
H19   H     H_    0.903085 0.170170 0.615190 0.229039
H20   H     H_    0.865296 0.380909 0.541863 0.229780

loop_
_geom_bond_atom_site_label_1
_geom_bond_atom_site_label_2
_ccdc_geom_bond_type
C3    C12   S    
C26   H20   S    
C25   H17   S    
C22   H9    S    
C24   H15   S    
O3    V1    S    
O22   C24   S    
O5    V1    S    
V4    O20   S    
O13   V3    S    
O10   C6    A    
O3    C1    A    
C21   C22   S    
O2    V4    S    
O4    C2    A    
V1    O19   S    
C1    C20   S    
O10   V2    S    
C23   H13   S    
C1    O11   A    
C25   H16   S    
C2    C19   S    
C8    C10   S    
C19   H5    S    
C22   H10   S    
O5    C7    A    
C7    C9    S    
C14   C16   D    
O9    V1    S    
O1    V3    S    
O6    V2    S    
C18   O22   S    
V2    O20   S    
O14   V4    S    
O14   V2    S    
O17   C7    A    
C20   H6    S    
O18   C8    A    
C9    C11   T    
C21   H8    S    
O11   V3    S    
C23   H12   S    
C10   C12   T    
C17   C19   D    
O15   C5    A    
C13   H1    S    
C26   H18   S    
O2    C4    A    
O16   C6    A    
C24   C25   S    
C25   C26   S    
C14   C18   S    
C14   H2    S    
C17   O21   S    
O12   V4    S    
C13   C17   S    
O21   C21   S    
O4    V2    S    
C18   C20   D    
C16   H4    S    
O1    C3    A    
C21   H7    S    
O17   V3    S    
C13   C15   D    
O8    C4    A    
C22   C23   S    
O9    C5    A    
C4    C11   S    
C26   H19   S    
O7    C3    A    
C6    C16   S    
C15   H3    S    
C2    O12   A    
O16   V4    S    
O13   V1    S    
C23   H11   S    
V3    O19   S    
O15   V3    S    
C5    C15   S    
O7    V1    S    
O6    C8    A    
C24   H14   S    
O8    V2    S    
O18   V4    S    
