data_mof_unit_62634.cif
_audit_creation_date              2012-12-10T18:43:04-0500
_audit_creation_method            fapswitch 2.2
_symmetry_space_group_name_H-M    P1
_symmetry_Int_Tables_number       1
_space_group_crystal_system       triclinic
_cell_length_a                    18.099176
_cell_length_b                    18.148568
_cell_length_c                    18.072885
_cell_angle_alpha                 120.045195
_cell_angle_beta                  90.066461
_cell_angle_gamma                 59.811585
_cell_volume                      4185.30346028

loop_
_atom_site_label
_atom_site_type_symbol
_atom_type_description
_atom_site_fract_x
_atom_site_fract_y
_atom_site_fract_z
_atom_type_partial_charge
C1    C     C_R   0.891441 0.216807 0.608099 0.541392
C2    C     C_3   0.550604 0.897748 0.948963 0.038039
C3    C     C_3   0.446741 0.035785 0.078411 -0.127288
C4    C     C_3   0.553259 0.964215 0.921589 -0.127288
C5    C     C_3   0.983156 0.430465 0.445545 0.102647
C6    C     C_3   0.016844 0.569535 0.554455 0.102647
C7    C     C_3   0.078576 0.404342 0.446309 -0.140690
C8    C     C_3   0.921424 0.595658 0.553691 -0.140690
C9    C     C_3   0.050990 0.501648 0.450160 0.015322
C10   C     C_3   0.949010 0.498352 0.549840 0.015322
C11   C     C_3   0.956576 0.527394 0.448716 0.077044
C12   C     C_R   0.108559 0.783193 0.391901 0.541393
C13   C     C_3   0.043423 0.472606 0.551284 0.077044
C14   C     C_3   0.982062 0.032237 0.445645 0.103965
C15   C     C_3   0.017938 0.967763 0.554355 0.103965
C16   C     C_R   0.608217 0.783215 0.891572 0.531920
C17   C     C_R   0.391783 0.216785 0.108428 0.531920
C18   C     C_3   0.956538 0.964096 0.448758 -0.140165
C19   C     C_3   0.043462 0.035904 0.551242 -0.140165
C20   C     C_3   0.051704 0.897521 0.450060 0.012002
C21   C     C_3   0.948296 0.102478 0.549940 0.012002
C22   C     C_3   0.077542 0.964349 0.446288 0.079181
C23   C     C_3   0.553438 0.429835 0.412354 -0.108789
C24   C     C_3   0.922458 0.035651 0.553712 0.079180
C25   C     C_3   0.983104 0.429996 0.983230 -0.098489
C26   C     C_3   0.016896 0.570004 0.016770 -0.098489
C27   C     C_3   0.956633 0.526200 0.078459 -0.112421
C28   C     C_3   0.043367 0.473800 0.921541 -0.112421
C29   C     C_3   0.051038 0.500473 0.051071 0.051975
C30   C     C_3   0.948962 0.499527 0.948929 0.051974
C31   C     C_3   0.078402 0.404332 0.956734 -0.113846
C32   C     C_3   0.921597 0.595668 0.043266 -0.113846
C33   C     C_3   0.553597 0.404007 0.921794 -0.122958
C34   C     C_3   0.446562 0.570165 0.587646 -0.108789
C35   C     C_3   0.446403 0.595993 0.078205 -0.122958
C36   C     C_3   0.448829 0.473278 0.956346 0.088220
C37   C     C_3   0.551171 0.526722 0.043654 0.088220
C38   C     C_3   0.449337 0.499474 0.051044 0.035497
C39   C     C_3   0.550663 0.500526 0.948956 0.035496
C40   C     C_R   0.608207 0.500089 0.891569 0.540716
C41   C     C_R   0.391793 0.499911 0.108431 0.540716
C42   C     C_3   0.553613 0.430314 0.017649 -0.111606
C43   C     C_3   0.446387 0.569686 0.982351 -0.111606
C44   C     C_R   0.891592 0.499621 0.608061 0.533445
C45   C     C_3   0.446331 0.966547 0.982773 -0.109846
C46   C     C_R   0.108408 0.500379 0.391939 0.533445
C47   C     C_R   0.891635 0.499815 0.891588 0.523675
C48   C     C_R   0.108365 0.500185 0.108412 0.523675
C49   C     C_R   0.608283 0.500122 0.608426 0.532343
C50   C     C_R   0.391717 0.499878 0.391573 0.532343
C51   C     C_3   0.552322 0.525894 0.482624 -0.127487
C52   C     C_3   0.447678 0.474106 0.517376 -0.127487
C53   C     C_3   0.447554 0.595154 0.517774 0.090612
C54   C     C_3   0.552446 0.404846 0.482226 0.090612
C55   C     C_3   0.449157 0.499771 0.448577 0.034573
C56   C     C_3   0.553669 0.033453 0.017227 -0.109846
C57   C     C_3   0.550843 0.500229 0.551423 0.034573
C58   C     C_3   0.448492 0.034545 0.956552 0.091003
C59   C     C_3   0.551508 0.965455 0.043448 0.091003
C60   C     C_3   0.449396 0.102252 0.051037 0.038039
H1    H     H_    0.921613 0.933079 0.406120 0.161743
H2    H     H_    0.031668 0.627451 0.031401 0.163959
H3    H     H_    0.143751 0.325983 0.922415 0.163197
H4    H     H_    0.856249 0.674017 0.077585 0.163197
H5    H     H_    0.598169 0.325527 0.856675 0.168363
H6    H     H_    0.401831 0.674473 0.143325 0.168363
H7    H     H_    0.596878 0.373430 0.033109 0.163537
H8    H     H_    0.403122 0.626570 0.966891 0.163537
H9    H     H_    0.403016 0.937699 0.967665 0.162803
H10   H     H_    0.596984 0.062301 0.032335 0.162803
H11   H     H_    0.402473 0.066941 0.143699 0.149354
H12   H     H_    0.078386 0.066921 0.593879 0.161743
H13   H     H_    0.597527 0.933059 0.856301 0.149354
H14   H     H_    0.143871 0.326009 0.401691 0.156259
H15   H     H_    0.856128 0.673991 0.598309 0.156258
H16   H     H_    0.595895 0.547430 0.469615 0.157115
H17   H     H_    0.404105 0.452570 0.530385 0.157114
H18   H     H_    0.596521 0.372012 0.339721 0.166347
H19   H     H_    0.403479 0.627988 0.660279 0.166347
H20   H     H_    0.922213 0.547666 0.143838 0.163987
H21   H     H_    0.077787 0.452334 0.856162 0.163987
H22   H     H_    0.968332 0.372549 0.968599 0.163959
I1    I     I_    0.363135 0.747079 0.545596 -0.241688
I2    I     I_    0.634050 0.909457 0.112562 -0.293489
I3    I     I_    0.961801 0.315661 0.354113 -0.182786
I4    I     I_    0.038199 0.684339 0.645887 -0.182786
I5    I     I_    0.886854 0.575076 0.368800 -0.271076
I6    I     I_    0.113145 0.424924 0.631200 -0.271077
I7    I     I_    0.636865 0.252921 0.454404 -0.241688
I8    I     I_    0.953376 0.077403 0.354440 -0.163475
I9    I     I_    0.046623 0.922597 0.645560 -0.163475
I10   I     I_    0.203480 0.905901 0.362665 -0.249230
I11   I     I_    0.796520 0.094099 0.637335 -0.249230
I12   I     I_    0.366842 0.430311 0.886918 -0.274923
I13   I     I_    0.633158 0.569689 0.113082 -0.274923
I14   I     I_    0.365950 0.090543 0.887438 -0.293489
O1    O     O_3   0.750010 0.499980 0.749990 -0.472942
O2    O     O_R   0.305750 0.265450 0.132730 -0.521304
O3    O     O_R   0.867280 0.265410 0.571220 -0.503797
O4    O     O_R   0.132720 0.734590 0.428780 -0.503798
O5    O     O_R   0.571230 0.734580 0.867270 -0.541570
O6    O     O_R   0.428770 0.265420 0.132730 -0.541570
O7    O     O_R   0.694200 0.438470 0.867270 -0.512412
O8    O     O_R   0.305800 0.561530 0.132730 -0.512412
O9    O     O_R   0.867340 0.561470 0.694210 -0.525122
O10   O     O_R   0.132660 0.438530 0.305790 -0.525122
O11   O     O_R   0.867310 0.438430 0.867270 -0.535894
O12   O     O_3   0.249990 0.500020 0.250010 -0.472942
O13   O     O_R   0.132690 0.561570 0.132730 -0.535894
O14   O     O_R   0.694200 0.438520 0.571220 -0.511090
O15   O     O_R   0.305800 0.561480 0.428780 -0.511090
O16   O     O_R   0.867340 0.561440 0.867270 -0.521397
O17   O     O_R   0.132660 0.438560 0.132730 -0.521397
O18   O     O_R   0.571190 0.561530 0.694210 -0.543512
O19   O     O_R   0.428810 0.438470 0.305790 -0.543512
O20   O     O_R   0.571190 0.561490 0.867270 -0.539609
O21   O     O_R   0.428810 0.438510 0.132730 -0.539609
O22   O     O_R   0.867310 0.438490 0.571220 -0.514093
O23   O     O_R   0.132690 0.561510 0.428780 -0.514093
O24   O     O_R   0.867280 0.265380 0.694210 -0.525361
O25   O     O_R   0.132720 0.734620 0.305790 -0.525362
O26   O     O_R   0.694250 0.734550 0.867270 -0.521304
Zn1   Zn    Zn3+2 0.618190 0.587870 0.793920 0.967539
Zn2   Zn    Zn3+2 0.381810 0.412130 0.206080 0.967539
Zn3   Zn    Zn3+2 0.793940 0.412090 0.793920 0.992682
Zn4   Zn    Zn3+2 0.206060 0.587910 0.206080 0.992682
Zn5   Zn    Zn3+2 0.793970 0.587840 0.793920 0.985944
Zn6   Zn    Zn3+2 0.206030 0.412160 0.206080 0.985944
Zn7   Zn    Zn3+2 0.793940 0.412130 0.618200 1.011959
Zn8   Zn    Zn3+2 0.206060 0.587870 0.381800 1.011959

loop_
_geom_bond_atom_site_label_1
_geom_bond_atom_site_label_2
_ccdc_geom_bond_type
C25   C31   S    
C7    C13   S    
C1    C21   S    
O20   Zn1   S    
C27   C29   S    
C14   C18   S    
C3    H11   S    
O1    Zn5   S    
C1    O3    A    
C6    C9    S    
C33   H5    S    
O17   Zn6   S    
C44   O9    A    
C26   C32   S    
O5    Zn1   S    
C18   C24   S    
C33   C42   S    
C14   C21   S    
C35   C37   S    
O21   Zn2   S    
C5    C11   S    
O4    Zn8   S    
C58   C60   S    
C47   O16   A    
O10   Zn6   S    
O26   Zn5   S    
O23   Zn8   S    
C49   C57   S    
C37   I13   S    
O14   Zn7   S    
C50   O19   A    
C37   C42   S    
C58   I14   S    
C14   I8    S    
O16   Zn5   S    
C16   O26   A    
C34   C52   S    
C15   C19   S    
C12   O25   A    
C11   I5    S    
C43   H8    S    
C34   C57   S    
C51   C57   S    
C35   C43   S    
C17   O2    A    
O12   Zn8   S    
C52   C55   S    
C5    I3    S    
C3    C60   S    
O2    Zn6   S    
C48   O13   A    
C28   H21   S    
C9    C46   S    
C4    C56   S    
C19   H12   S    
O12   Zn2   S    
O6    Zn2   S    
C52   C54   S    
C7    H14   S    
C53   C55   S    
C2    C45   S    
C15   C20   S    
C37   C39   S    
C45   C58   S    
O3    Zn7   S    
C29   C48   S    
C45   H9    S    
C33   C36   S    
C31   H3    S    
C30   C47   S    
C19   C22   S    
C59   I2    S    
C32   H4    S    
C38   C41   S    
O1    Zn3   S    
C27   H20   S    
C39   C40   S    
C5    C7    S    
O9    Zn5   S    
O24   Zn3   S    
C39   C43   S    
C35   H6    S    
C10   C44   S    
C3    C45   S    
C8    H15   S    
C56   C60   S    
C51   C53   S    
C1    O24   A    
C2    C4    S    
C17   O6    A    
C34   H19   S    
C16   O5    A    
O15   Zn8   S    
C23   C51   S    
C44   O22   A    
C12   C20   S    
C25   H22   S    
C33   C39   S    
O12   Zn6   S    
C9    C11   S    
O11   Zn3   S    
C4    H13   S    
C54   I7    S    
O18   Zn1   S    
C34   C53   S    
C8    C10   S    
C15   C24   S    
C20   C22   S    
C47   O11   A    
C42   H7    S    
C52   H17   S    
C2    C16   S    
C23   C54   S    
C25   C30   S    
C7    C9    S    
O19   Zn2   S    
C19   C21   S    
C27   C32   S    
C2    C59   S    
C26   C28   S    
C28   C31   S    
C10   C13   S    
C6    C8    S    
C41   O8    A    
C18   H1    S    
C23   C55   S    
C25   C27   S    
C56   H10   S    
C50   C55   S    
C6    I4    S    
C56   C59   S    
C53   I1    S    
O12   Zn4   S    
C14   C22   S    
C28   C30   S    
C26   H2    S    
O1    Zn7   S    
O25   Zn4   S    
C29   C31   S    
O22   Zn7   S    
C24   I11   S    
C40   O7    A    
C30   C32   S    
C40   O20   A    
C8    C11   S    
C46   O10   A    
C13   I6    S    
C36   C38   S    
C50   O15   A    
C46   O23   A    
C49   O18   A    
C18   C20   S    
C23   H18   S    
O7    Zn3   S    
C12   O4    A    
C17   C60   S    
C15   I9    S    
C38   C42   S    
C36   I12   S    
O13   Zn4   S    
C5    C10   S    
O8    Zn4   S    
C26   C29   S    
O1    Zn1   S    
C21   C24   S    
C4    C58   S    
C51   H16   S    
C22   I10   S    
C35   C38   S    
C48   O17   A    
C36   C43   S    
C41   O21   A    
C49   O14   A    
C6    C13   S    
C54   C57   S    
C3    C59   S    
