data_mof_unit_37635.cif
_audit_creation_date              2012-10-26T20:08:12-0400
_audit_creation_method            fapswitch 2.2
_symmetry_space_group_name_H-M    P1
_symmetry_Int_Tables_number       1
_space_group_crystal_system       triclinic
_cell_length_a                    10.824087
_cell_length_b                    10.783474
_cell_length_c                    9.500761
_cell_angle_alpha                 90.022066
_cell_angle_beta                  90.38267
_cell_angle_gamma                 90.292096
_cell_volume                      1108.90156094

loop_
_atom_site_label
_atom_site_type_symbol
_atom_type_description
_atom_site_fract_x
_atom_site_fract_y
_atom_site_fract_z
_atom_type_partial_charge
C1    C     C_R   0.495738 0.262311 0.499890 0.522358
C2    C     C_R   0.416968 0.060703 0.591677 -0.001586
C3    C     C_R   0.506649 0.871624 0.500602 -0.045022
C4    C     C_R   0.493353 0.128376 0.499398 -0.045023
C5    C     C_R   0.427393 0.418642 0.073883 0.025209
C6    C     C_R   0.572607 0.581358 0.926117 0.025208
C7    C     C_R   0.427403 0.418701 0.924951 0.016411
C8    C     C_R   0.572596 0.581299 0.075049 0.016410
C9    C     C_R   0.262208 0.502010 0.499304 0.538688
C10   C     C_R   0.737792 0.497990 0.500695 0.538688
C11   C     C_R   0.231232 0.787119 0.153763 -0.060804
C12   C     C_R   0.504262 0.737689 0.500110 0.522358
C13   C     C_R   0.768769 0.212881 0.846238 -0.060805
C14   C     C_R   0.173408 0.735227 0.272224 0.046860
C15   C     C_R   0.826592 0.264774 0.727777 0.046858
C16   C     C_R   0.119860 0.615452 0.261807 0.071380
C17   C     C_R   0.880139 0.384549 0.738193 0.071379
C18   C     C_R   0.121748 0.552385 0.132444 -0.109155
C19   C     C_R   0.878252 0.447616 0.867556 -0.109155
C20   C     C_R   0.178082 0.605951 0.015328 -0.125311
C21   C     C_R   0.821919 0.394050 0.984673 -0.125311
C22   C     C_R   0.233737 0.722548 0.026292 -0.089282
C23   C     C_R   0.871653 0.496235 0.501948 -0.003808
C24   C     C_R   0.766264 0.277453 0.973709 -0.089281
C25   C     C_R   0.932809 0.549114 0.387264 -0.158991
C26   C     C_R   0.067191 0.450886 0.612736 -0.158993
C27   C     C_3   0.166897 0.808896 0.406618 -0.381514
C28   C     C_3   0.833102 0.191104 0.593382 -0.381512
C29   C     C_2   0.677686 0.878542 0.319237 0.214818
C30   C     C_2   0.322318 0.121458 0.680767 0.214820
C31   C     C_R   0.128347 0.503765 0.498052 -0.003809
C32   C     C_R   0.939277 0.445619 0.615778 -0.026383
C33   C     C_R   0.060723 0.554382 0.384222 -0.026383
C34   C     C_R   0.573629 0.067937 0.407563 -0.120173
C35   C     C_R   0.426373 0.932063 0.592438 -0.120174
C36   C     C_R   0.583034 0.939297 0.408324 -0.001585
Cu1   Cu    Cu3+1 0.500000 0.500020 0.640660 0.932212
Cu2   Cu    Cu3+1 0.500000 0.499980 0.359340 0.932210
H1    H     H_    0.278300 0.763309 0.935588 0.137752
H2    H     H_    0.820527 0.443482 0.083815 0.116104
H3    H     H_    0.880755 0.589508 0.300877 0.122428
H4    H     H_    0.119245 0.410492 0.699123 0.122428
H5    H     H_    0.632758 0.122185 0.339118 0.165030
H6    H     H_    0.367244 0.877816 0.660883 0.165028
H7    H     H_    0.368844 0.353893 0.129628 0.121243
H8    H     H_    0.631156 0.646106 0.870371 0.121242
H9    H     H_    0.068868 0.821242 0.437071 0.141765
H10   H     H_    0.216505 0.759757 0.492265 0.135176
H11   H     H_    0.209408 0.902240 0.394703 0.129736
H12   H     H_    0.721701 0.236691 0.064413 0.137752
H13   H     H_    0.931131 0.178759 0.562929 0.141763
H14   H     H_    0.790592 0.097761 0.605298 0.129739
H15   H     H_    0.783494 0.240243 0.507736 0.135177
H16   H     H_    0.703565 0.782855 0.337292 0.116719
H17   H     H_    0.296430 0.217141 0.662701 0.116712
H18   H     H_    0.368804 0.354047 0.868340 0.115694
H19   H     H_    0.631196 0.645953 0.131659 0.115687
H20   H     H_    0.273841 0.878090 0.159596 0.125823
H21   H     H_    0.726160 0.121910 0.840406 0.125822
H22   H     H_    0.080413 0.461056 0.122788 0.109208
H23   H     H_    0.919587 0.538945 0.877212 0.109207
H24   H     H_    0.179474 0.556519 0.916185 0.116104
N1    N     N_R   0.500030 0.500030 0.852070 -0.226862
N2    N     N_R   0.499970 0.499970 0.147930 -0.226861
O1    O     O_R   0.499990 0.319660 0.618740 -0.504273
O2    O     O_2   0.270402 0.064510 0.774641 -0.534926
O3    O     O_R   0.500010 0.680340 0.381260 -0.504277
O4    O     O_R   0.499990 0.319630 0.381170 -0.506647
O5    O     O_R   0.500010 0.680370 0.618830 -0.506646
O6    O     O_R   0.319650 0.500020 0.618780 -0.523680
O7    O     O_R   0.680350 0.499980 0.381220 -0.523681
O8    O     O_R   0.319640 0.500000 0.381210 -0.486183
O9    O     O_R   0.680360 0.500000 0.618790 -0.486184
O10   O     O_2   0.729617 0.935494 0.225379 -0.534929

loop_
_geom_bond_atom_site_label_1
_geom_bond_atom_site_label_2
_ccdc_geom_bond_type
C2    C35   A    
C27   H10   S    
C2    C4    A    
C12   O5    A    
C31   C33   A    
C26   C32   A    
Cu1   Cu2   S    
C13   H21   S    
Cu1   O5    S    
C8    H19   S    
C11   H20   S    
C5    C7    A    
C30   H17   S    
C11   C22   A    
C34   C36   A    
C10   O9    A    
C9    O8    A    
C3    C35   A    
C28   H15   S    
C1    C4    S    
C23   C32   A    
C13   C15   A    
C20   C22   A    
C29   O10   D    
C26   C31   A    
Cu2   O8    S    
Cu1   O6    S    
C10   O7    A    
C24   H12   S    
C35   H6    S    
C28   H14   S    
C29   C36   S    
C7    N1    A    
C15   C28   S    
C30   O2    D    
C21   H2    S    
C3    C36   A    
C19   H23   S    
C22   H1    S    
C7    H18   S    
C13   C24   A    
C18   H22   S    
Cu1   N1    S    
Cu2   O4    S    
Cu2   N2    S    
C23   C25   A    
C4    C34   A    
C20   H24   S    
C16   C33   S    
C28   H13   S    
C14   C16   A    
C12   O3    A    
C29   H16   S    
C9    C31   S    
C27   H9    S    
C9    O6    A    
C8    N2    A    
C1    O4    A    
C2    C30   S    
Cu2   O3    S    
C26   H4    S    
C18   C20   A    
C6    N1    A    
C21   C24   A    
C25   H3    S    
C11   C14   A    
C15   C17   A    
C17   C32   S    
Cu1   O9    S    
Cu2   O7    S    
C10   C23   S    
C6    C8    A    
C3    C12   S    
C6    H8    S    
C17   C19   A    
C5    H7    S    
C1    O1    A    
C14   C27   S    
C16   C18   A    
C34   H5    S    
C27   H11   S    
C5    N2    A    
C25   C33   A    
C19   C21   A    
Cu1   O1    S    
