data_mof_unit_52842.cif
_audit_creation_date              2012-12-10T17:56:16-0500
_audit_creation_method            fapswitch 2.2
_symmetry_space_group_name_H-M    P1
_symmetry_Int_Tables_number       1
_space_group_crystal_system       triclinic
_cell_length_a                    12.981508
_cell_length_b                    10.824617
_cell_length_c                    9.499987
_cell_angle_alpha                 90.032275
_cell_angle_beta                  96.463429
_cell_angle_gamma                 90.374182
_cell_volume                      1326.4223704

loop_
_atom_site_label
_atom_site_type_symbol
_atom_type_description
_atom_site_fract_x
_atom_site_fract_y
_atom_site_fract_z
_atom_type_partial_charge
C1    C     C_R   0.499932 0.262030 0.499931 0.778515
C2    C     C_R   0.500067 0.737970 0.500069 0.778524
C3    C     C_R   0.500071 0.871779 0.500072 -0.013742
C4    C     C_R   0.499927 0.128221 0.499927 -0.013742
C5    C     C_R   0.432819 0.426157 0.064102 -0.007481
C6    C     C_R   0.567181 0.573843 0.935898 -0.007481
C7    C     C_R   0.432892 0.426125 0.915160 -0.026534
C8    C     C_R   0.567108 0.573874 0.084840 -0.026523
C9    C     C_R   0.300416 0.504002 0.472982 0.800695
C10   C     C_R   0.699584 0.495997 0.527018 0.800692
C11   C     C_R   0.812604 0.487738 0.543711 -0.097146
C12   C     C_R   0.187396 0.512256 0.456289 -0.097147
C13   C     C_R   0.022350 0.567018 0.326096 -0.252487
C14   C     C_R   0.977649 0.432972 0.673902 -0.252481
C15   C     C_R   0.130370 0.562888 0.333689 -0.008555
C16   C     C_R   0.869629 0.437104 0.666310 -0.008551
C17   C     C_R   0.135528 0.468529 0.567931 -0.284877
C18   C     C_R   0.864472 0.531463 0.432068 -0.284881
C19   C     C_R   0.028444 0.475383 0.560883 0.160626
C20   C     C_R   0.971556 0.524608 0.439115 0.160622
C21   C     C_R   0.513625 0.063916 0.375464 -0.192710
C22   C     C_R   0.486372 0.936084 0.624535 -0.192709
C23   C     C_R   0.513801 0.936133 0.375592 -0.200495
C24   C     C_R   0.486196 0.063867 0.624407 -0.200496
Cu1   Cu    Cu3+1 0.500000 0.500020 0.640660 0.940023
Cu2   Cu    Cu3+1 0.500000 0.499980 0.359340 0.940028
H1    H     H_    0.821283 0.572006 0.339251 0.143935
H2    H     H_    0.178717 0.427987 0.660748 0.143930
H3    H     H_    0.978044 0.605640 0.232931 0.132068
H4    H     H_    0.021956 0.394350 0.767066 0.132066
H5    H     H_    0.524754 0.112089 0.278335 0.142398
H6    H     H_    0.475243 0.887911 0.721664 0.142398
H7    H     H_    0.525279 0.887989 0.278646 0.140728
H8    H     H_    0.474718 0.112011 0.721353 0.140725
H9    H     H_    0.378957 0.367201 0.112057 0.118396
H10   H     H_    0.621044 0.632798 0.887943 0.118398
H11   H     H_    0.379150 0.366986 0.850616 0.111360
H12   H     H_    0.620850 0.633014 0.149384 0.111361
N1    N     N_R   0.500030 0.500030 0.852080 -0.154730
N2    N     N_R   0.499970 0.499970 0.147920 -0.154730
O1    O     O_R   0.499990 0.319660 0.618740 -0.586620
O2    O     O_R   0.500010 0.680340 0.381260 -0.586616
O3    O     O_R   0.499990 0.319630 0.381170 -0.591698
O4    O     O_R   0.500010 0.680370 0.618830 -0.591698
O5    O     O_R   0.349000 0.499990 0.599490 -0.590123
O6    O     O_R   0.651000 0.500010 0.400510 -0.590121
O7    O     O_R   0.348990 0.499960 0.361920 -0.570426
O8    O     O_R   0.651010 0.500040 0.638080 -0.570430
C25   C     C_R   0.819675 0.384163 0.785723 0.133130
C26   C     C_R   0.753076 0.281257 0.764500 -0.085054
C27   C     C_R   0.704953 0.233008 0.877194 -0.123448
C28   C     C_R   0.723785 0.286088 0.011845 -0.103375
C29   C     C_R   0.791443 0.386900 0.034293 -0.140933
C30   C     C_R   0.839499 0.435781 0.921899 -0.175791
H13   H     H_    0.737819 0.239330 0.660615 0.102131
H14   H     H_    0.653130 0.154416 0.860210 0.118626
H15   H     H_    0.686181 0.248943 0.098858 0.125476
H16   H     H_    0.806309 0.427429 0.138672 0.135165
H17   H     H_    0.891223 0.514483 0.940567 0.122947
C31   C     C_R   0.180325 0.615832 0.214280 0.133145
C32   C     C_R   0.160522 0.564198 0.078109 -0.175783
C33   C     C_R   0.208580 0.613080 0.965719 -0.140928
C34   C     C_R   0.276222 0.713908 0.988167 -0.103362
C35   C     C_R   0.295033 0.767003 0.122812 -0.123457
C36   C     C_R   0.246908 0.718753 0.235502 -0.085083
H18   H     H_    0.108811 0.485483 0.059442 0.122940
H19   H     H_    0.193733 0.572538 0.861345 0.135159
H20   H     H_    0.313828 0.751054 0.901156 0.125473
H21   H     H_    0.346843 0.845607 0.139796 0.118628
H22   H     H_    0.262150 0.760689 0.339384 0.102135

loop_
_geom_bond_atom_site_label_1
_geom_bond_atom_site_label_2
_ccdc_geom_bond_type
C12   C17   A    
C10   O6    A    
C2    O4    A    
C29   H16   S    
C11   C18   A    
C9    O5    A    
C33   C34   A    
C14   C16   A    
C11   C16   A    
C5    H9    S    
C3    C23   A    
C19   C20   A    
C12   C15   A    
C1    C4    S    
C6    N1    A    
C35   C36   A    
C21   C23   A    
C2    C3    S    
C7    H11   S    
C31   C32   A    
Cu1   Cu2   S    
C35   H21   S    
C16   C25   S    
C4    C21   A    
C21   H5    S    
Cu1   O8    S    
Cu2   N2    S    
C22   H6    S    
C8    H12   S    
C14   H4    S    
C26   H13   S    
Cu2   O7    S    
Cu1   O4    S    
C1    O1    A    
Cu2   O3    S    
C17   C19   A    
C2    O2    A    
C31   C36   A    
C9    O7    A    
C18   C20   A    
C30   H17   S    
C13   C15   A    
C10   O8    A    
C32   C33   A    
C4    C24   A    
C9    C12   S    
C22   C24   A    
C33   H19   S    
C28   H15   S    
Cu2   O6    S    
Cu1   O1    S    
C27   C28   A    
Cu1   O5    S    
C28   C29   A    
Cu2   O2    S    
C5    C7    A    
C27   H14   S    
C10   C11   S    
C5    N2    A    
C13   H3    S    
C25   C26   A    
C7    N1    A    
C34   H20   S    
C14   C19   A    
C3    C22   A    
C6    C8    A    
C8    N2    A    
C13   C20   A    
C26   C27   A    
C36   H22   S    
C29   C30   A    
C17   H2    S    
C32   H18   S    
C1    O3    A    
C15   C31   S    
Cu1   N1    S    
C18   H1    S    
C25   C30   A    
C6    H10   S    
C34   C35   A    
C23   H7    S    
C24   H8    S    
