data_mof_unit_63003.cif
_audit_creation_date              2013-03-05T16:28:21-0500
_audit_creation_method            fapswitch 2.2
_symmetry_space_group_name_H-M    P1
_symmetry_Int_Tables_number       1
_space_group_crystal_system       triclinic
_cell_length_a                    38.715396
_cell_length_b                    32.238238
_cell_length_c                    21.410881
_cell_angle_alpha                 90.000379
_cell_angle_beta                  123.600133
_cell_angle_gamma                 89.998621
_cell_volume                      22258.3418476

loop_
_atom_site_label
_atom_site_type_symbol
_atom_site_description
_atom_site_fract_x
_atom_site_fract_y
_atom_site_fract_z
_atom_type_partial_charge
O1    O     O_R   0.940150 0.034650 0.440170 -0.584495
O2    O     O_R   0.059850 0.034650 0.559830 -0.584939
O3    O     O_R   0.440150 0.534650 0.440170 -0.584926
O4    O     O_R   0.559850 0.534650 0.559830 -0.585023
O5    O     O_R   0.940170 0.965370 0.440140 -0.567829
O6    O     O_R   0.059830 0.965370 0.559860 -0.566987
O7    O     O_R   0.440170 0.465370 0.440140 -0.566997
O8    O     O_R   0.559830 0.465370 0.559860 -0.566936
C1    C     C_R   0.920420 0.999993 0.420404 0.820522
C2    C     C_R   0.079580 0.999992 0.579593 0.820331
C3    C     C_R   0.420420 0.499993 0.420407 0.820299
C4    C     C_R   0.579580 0.499992 0.579595 0.820290
O9    O     O_R   0.000010 0.034650 0.591580 -0.590920
O10   O     O_R   0.999990 0.034650 0.408420 -0.590788
O11   O     O_R   0.500010 0.534650 0.591580 -0.590962
O12   O     O_R   0.499990 0.534650 0.408420 -0.590897
O13   O     O_R   0.000020 0.965370 0.591550 -0.582886
O14   O     O_R   0.999980 0.965370 0.408450 -0.582986
O15   O     O_R   0.500020 0.465370 0.591550 -0.582787
O16   O     O_R   0.499980 0.465370 0.408450 -0.582816
C5    C     C_R   0.999947 0.000023 0.620595 0.789914
C6    C     C_R   0.000050 0.000023 0.379402 0.790286
C7    C     C_R   0.499946 0.500023 0.620594 0.789915
C8    C     C_R   0.500056 0.500022 0.379408 0.789948
Cu1   Cu    Cu3+1 0.000000 0.041030 0.500000 0.959684
Cu2   Cu    Cu3+1 0.500000 0.541030 0.500000 0.959227
Cu3   Cu    Cu3+1 0.000000 0.958990 0.500000 0.990856
Cu4   Cu    Cu3+1 0.500000 0.458990 0.500000 0.991735
C9    C     C_3   0.971089 0.973346 0.700404 -0.157463
C10   C     C_3   0.028963 0.973405 0.299650 -0.157376
C11   C     C_3   0.471182 0.473243 0.700498 -0.157286
C12   C     C_3   0.528382 0.472773 0.299068 -0.157559
C13   C     C_3   0.008724 0.961841 0.779455 -0.143064
C14   C     C_3   0.991353 0.961824 0.220621 -0.143452
C15   C     C_3   0.508858 0.461871 0.779589 -0.142941
C16   C     C_3   0.490527 0.462015 0.219798 -0.142843
H1    H     H_    0.015940 0.930459 0.805045 0.133617
H2    H     H_    0.984204 0.930427 0.195095 0.133604
H3    H     H_    0.516186 0.430515 0.805290 0.133840
H4    H     H_    0.482693 0.430781 0.193590 0.134116
H5    H     H_    0.947507 0.951374 0.658577 0.139239
H6    H     H_    0.052590 0.951481 0.341526 0.139363
H7    H     H_    0.447678 0.451188 0.658749 0.139563
H8    H     H_    0.551526 0.450338 0.340457 0.139976
C17   C     C_3   0.999896 0.000200 0.810805 0.014493
C18   C     C_3   0.000105 0.000201 0.189196 0.014325
C19   C     C_3   0.499895 0.500199 0.810803 0.014446
C20   C     C_3   0.500114 0.500191 0.189207 0.014436
C21   C     C_3   0.962272 0.011691 0.732846 -0.163736
C22   C     C_3   0.037702 0.011767 0.267131 -0.163701
C23   C     C_3   0.462230 0.511556 0.732804 -0.163713
C24   C     C_3   0.537957 0.510934 0.267387 -0.163807
C25   C     C_3   0.991069 0.038494 0.720369 -0.165882
C26   C     C_3   0.008849 0.038512 0.279550 -0.165965
C27   C     C_3   0.490931 0.538462 0.720231 -0.165969
C28   C     C_3   0.509695 0.538304 0.280398 -0.165926
C29   C     C_3   0.028660 0.027000 0.799291 -0.152801
C30   C     C_3   0.971283 0.026942 0.200651 -0.152272
C31   C     C_3   0.528563 0.527101 0.799194 -0.152943
C32   C     C_3   0.471885 0.527557 0.201253 -0.152916
C33   C     C_3   0.037485 0.988611 0.766795 -0.130713
C34   C     C_3   0.962535 0.988536 0.233223 -0.130363
C35   C     C_3   0.537524 0.488744 0.766833 -0.130735
C36   C     C_3   0.462301 0.489352 0.232992 -0.130475
C37   C     C_3   0.999879 0.000114 0.688923 0.012305
C38   C     C_3   0.000115 0.000115 0.311071 0.012048
C39   C     C_3   0.499877 0.500113 0.688921 0.012290
C40   C     C_3   0.500125 0.500108 0.311082 0.012262
H9    H     H_    0.931427 0.021199 0.720017 0.146929
H10   H     H_    0.068530 0.021337 0.279951 0.146938
H11   H     H_    0.431350 0.520954 0.719938 0.147033
H12   H     H_    0.568991 0.519826 0.280425 0.147222
H13   H     H_    0.983792 0.069947 0.695047 0.148305
H14   H     H_    0.016059 0.069980 0.304808 0.148383
H15   H     H_    0.483542 0.569888 0.694795 0.148166
H16   H     H_    0.517593 0.569605 0.306352 0.147969
H17   H     H_    0.052234 0.048989 0.841087 0.145726
H18   H     H_    0.947664 0.048883 0.158808 0.146135
H19   H     H_    0.552059 0.549173 0.840913 0.145508
H20   H     H_    0.448752 0.550007 0.159888 0.145091
H21   H     H_    0.068276 0.979173 0.779276 0.158294
H22   H     H_    0.931761 0.979036 0.220750 0.159147
H23   H     H_    0.568349 0.479415 0.779348 0.158237
H24   H     H_    0.431325 0.480528 0.220318 0.158167
C41   C     C_R   0.727437 0.985492 0.172940 -0.228926
C42   C     C_R   0.272557 0.984070 0.826121 -0.228888
C43   C     C_R   0.227443 0.484228 0.173766 -0.228866
C44   C     C_R   0.772559 0.484057 0.826120 -0.228865
H25   H     H_    0.709800 0.974994 0.115214 0.183588
H26   H     H_    0.290187 0.972522 0.883186 0.183534
H27   H     H_    0.209813 0.472793 0.116627 0.183552
H28   H     H_    0.790191 0.472499 0.883179 0.183554
C45   C     C_R   0.706256 0.999403 0.204856 0.086276
C46   C     C_R   0.293744 0.999365 0.795089 0.086334
C47   C     C_R   0.206256 0.499373 0.204897 0.086332
C48   C     C_R   0.793744 0.499366 0.795095 0.086344
C49   C     C_R   0.728634 0.012681 0.279464 -0.159753
C50   C     C_R   0.271372 0.014010 0.721315 -0.159797
C51   C     C_R   0.228627 0.513874 0.278764 -0.159815
C52   C     C_R   0.771371 0.514026 0.721330 -0.159826
H29   H     H_    0.712589 0.023546 0.304755 0.149563
H30   H     H_    0.287423 0.025954 0.696716 0.149516
H31   H     H_    0.212576 0.525699 0.303438 0.149509
H32   H     H_    0.787420 0.525980 0.696736 0.149476
C53   C     C_R   0.771958 0.012128 0.322020 -0.233438
C54   C     C_R   0.228048 0.013442 0.678715 -0.233360
C55   C     C_R   0.271951 0.513310 0.321362 -0.233333
C56   C     C_R   0.728047 0.513458 0.678733 -0.233354
H33   H     H_    0.788749 0.022795 0.379619 0.154665
H34   H     H_    0.211261 0.025176 0.621787 0.154744
H35   H     H_    0.288736 0.524932 0.378366 0.154739
H36   H     H_    0.711259 0.525204 0.621811 0.154730
C57   C     C_R   0.793520 0.998133 0.290731 0.025737
C58   C     C_R   0.206480 0.998069 0.709117 0.025661
C59   C     C_R   0.293520 0.498086 0.290863 0.025675
C60   C     C_R   0.706480 0.498071 0.709127 0.025667
C61   C     C_R   0.771121 0.984361 0.215180 0.346551
C62   C     C_R   0.228873 0.982906 0.783802 0.346371
C63   C     C_R   0.271129 0.483071 0.216079 0.346382
C64   C     C_R   0.728874 0.482894 0.783803 0.346351
C65   C     C_1   0.661489 0.999772 0.160945 -0.028664
C66   C     C_1   0.338511 0.999754 0.839033 -0.028671
C67   C     C_1   0.161488 0.499757 0.160958 -0.028658
C68   C     C_1   0.838512 0.499755 0.839037 -0.028676
C69   C     C_1   0.838362 0.999223 0.336785 0.035674
C70   C     C_1   0.161638 0.999193 0.663127 0.035465
C71   C     C_1   0.338362 0.499205 0.336865 0.035505
C72   C     C_1   0.661638 0.499195 0.663135 0.035475
C73   C     C_1   0.875821 0.999831 0.375163 -0.130246
C74   C     C_1   0.124179 0.999823 0.624796 -0.130251
C75   C     C_1   0.375821 0.499828 0.375202 -0.130238
C76   C     C_1   0.624179 0.499823 0.624802 -0.130232
C77   C     C_1   0.624026 0.999938 0.123886 -0.157986
C78   C     C_1   0.375974 0.999931 0.876109 -0.157988
C79   C     C_1   0.124025 0.499931 0.123887 -0.157982
C80   C     C_1   0.875975 0.499930 0.876111 -0.157995
O17   O     O_R   0.034640 0.940200 0.034570 -0.576580
O18   O     O_R   0.965360 0.940200 0.965430 -0.576584
O19   O     O_R   0.534640 0.440200 0.034570 -0.576664
O20   O     O_R   0.465360 0.440200 0.965430 -0.576706
C81   C     C_R   0.000000 0.920451 0.000000 0.823907
C82   C     C_R   0.500000 0.420451 0.000000 0.824020
O21   O     O_R   0.034640 0.000050 0.943030 -0.583072
O22   O     O_R   0.965360 0.000050 0.056970 -0.582945
O23   O     O_R   0.534640 0.500050 0.943030 -0.583123
O24   O     O_R   0.465360 0.500050 0.056970 -0.583015
O25   O     O_R   0.965370 0.000070 0.873780 -0.590418
O26   O     O_R   0.034630 0.000070 0.126220 -0.590413
O27   O     O_R   0.465370 0.500070 0.873780 -0.590357
O28   O     O_R   0.534630 0.500070 0.126220 -0.590441
C83   C     C_R   0.999981 0.000149 0.879286 0.785817
C84   C     C_R   0.000019 0.000150 0.120714 0.785895
C85   C     C_R   0.499981 0.500148 0.879285 0.785872
C86   C     C_R   0.500020 0.500144 0.120716 0.785881
Cu5   Cu    Cu3+1 0.041030 0.000050 0.040990 0.968236
Cu6   Cu    Cu3+1 0.958970 0.000050 0.959010 0.968503
Cu7   Cu    Cu3+1 0.541030 0.500050 0.040990 0.968131
Cu8   Cu    Cu3+1 0.458970 0.500050 0.959010 0.968264
O29   O     O_R   0.034650 0.059910 0.034650 -0.579283
O30   O     O_R   0.965350 0.059910 0.965350 -0.579161
O31   O     O_R   0.534650 0.559910 0.034650 -0.579185
O32   O     O_R   0.465350 0.559910 0.965350 -0.579157
C87   C     C_R   1.000000 0.079657 1.000000 0.822924
C88   C     C_R   0.500000 0.579656 1.000000 0.822892
O33   O     O_R   0.500030 0.940190 0.053050 -0.577188
O34   O     O_R   0.499970 0.940190 0.946950 -0.577178
O35   O     O_R   0.000030 0.440190 0.053050 -0.577101
O36   O     O_R   0.999970 0.440190 0.946950 -0.577107
C89   C     C_R   0.500000 0.920630 1.000000 0.818713
C90   C     C_R   1.000000 0.420630 1.000000 0.818659
O37   O     O_R   0.559860 0.000050 0.112810 -0.578937
O38   O     O_R   0.440140 0.000050 0.887190 -0.578890
O39   O     O_R   0.059860 0.500050 0.112810 -0.578989
O40   O     O_R   0.940140 0.500050 0.887190 -0.578985
O41   O     O_R   0.559850 0.999980 0.006800 -0.574654
O42   O     O_R   0.440150 0.999980 0.993200 -0.574669
O43   O     O_R   0.059850 0.499980 0.006800 -0.574583
O44   O     O_R   0.940150 0.499980 0.993200 -0.574591
C91   C     C_R   0.579410 0.000023 0.079359 0.816650
C92   C     C_R   0.420590 0.000024 0.920641 0.816622
C93   C     C_R   0.079410 0.500023 0.079358 0.816655
C94   C     C_R   0.920590 0.500023 0.920641 0.816647
Cu9   Cu    Cu3+1 0.500010 0.000050 0.062750 0.978079
Cu10  Cu    Cu3+1 0.499990 0.000050 0.937250 0.978157
Cu11  Cu    Cu3+1 0.000010 0.500050 0.062750 0.978047
Cu12  Cu    Cu3+1 0.999990 0.500050 0.937250 0.978062
O45   O     O_R   0.500000 0.059900 0.052920 -0.577655
O46   O     O_R   0.500000 0.059900 0.947080 -0.577642
O47   O     O_R   0.000000 0.559900 0.052920 -0.577768
O48   O     O_R   0.000000 0.559900 0.947080 -0.577758
C95   C     C_R   0.500000 0.079480 0.000000 0.818275
C96   C     C_R   0.000000 0.579480 0.000000 0.818366
H37   H     H_    0.979218 0.788208 0.074884 0.140704
H38   H     H_    0.020786 0.788205 0.925121 0.140764
H39   H     H_    0.471310 0.288207 0.062214 0.141374
H40   H     H_    0.528694 0.288205 0.937791 0.141408
C97   C     C_R   0.483870 0.228250 0.034979 -0.167623
C98   C     C_R   0.516135 0.228249 0.965029 -0.167561
C99   C     C_R   0.988316 0.728250 0.042102 -0.167577
C100  C     C_R   0.011688 0.728249 0.957904 -0.167538
H41   H     H_    0.471308 0.211738 0.062211 0.143164
H42   H     H_    0.528697 0.211735 0.937797 0.143216
H43   H     H_    0.979216 0.711738 0.074882 0.143049
H44   H     H_    0.020788 0.711736 0.925124 0.143095
C101  C     C_R   0.500003 0.206379 0.000004 0.147537
C102  C     C_R   0.000002 0.706379 0.000003 0.147559
C103  C     C_R   0.011687 0.771692 0.957903 -0.168625
C104  C     C_R   0.988317 0.771693 0.042103 -0.168666
C105  C     C_R   0.516134 0.271691 0.965027 -0.168635
C106  C     C_R   0.483871 0.271693 0.034980 -0.168656
C107  C     C_R   0.000002 0.793562 0.000003 0.150374
C108  C     C_R   0.500002 0.293561 0.000003 0.149827
C109  C     C_1   0.500002 0.161595 0.000003 -0.059398
C110  C     C_1   0.000001 0.661596 0.000002 -0.059497
C111  C     C_1   0.000002 0.838343 0.000002 -0.060054
C112  C     C_1   0.500002 0.338343 0.000002 -0.060080
C113  C     C_1   0.000001 0.875820 0.000001 -0.167248
C114  C     C_1   0.500001 0.375820 0.000001 -0.167206
C115  C     C_1   0.500001 0.124116 0.000002 -0.157509
C116  C     C_1   0.000001 0.624116 0.000001 -0.157617
H45   H     H_    0.971823 0.211903 0.880517 0.138205
H46   H     H_    0.028174 0.211903 0.119479 0.138199
H47   H     H_    0.477434 0.711904 0.882658 0.137996
H48   H     H_    0.522562 0.711904 0.117338 0.137989
C117  C     C_R   0.487312 0.771860 0.934027 -0.167429
C118  C     C_R   0.512684 0.771860 0.065969 -0.167454
C119  C     C_R   0.984157 0.271860 0.932823 -0.167409
C120  C     C_R   0.015840 0.271860 0.067173 -0.167413
H49   H     H_    0.477432 0.788372 0.882657 0.141555
H50   H     H_    0.522564 0.788372 0.117339 0.141534
H51   H     H_    0.971821 0.288373 0.880516 0.141459
H52   H     H_    0.028176 0.288373 0.119480 0.141450
C121  C     C_R   0.499998 0.793730 0.999998 0.149508
C122  C     C_R   0.999999 0.293730 0.999998 0.149628
C123  C     C_R   0.015839 0.228417 0.067173 -0.169974
C124  C     C_R   0.984158 0.228417 0.932823 -0.169984
C125  C     C_R   0.512683 0.728417 0.065968 -0.170086
C126  C     C_R   0.487312 0.728417 0.934027 -0.170077
C127  C     C_R   0.999998 0.206548 0.999998 0.152233
C128  C     C_R   0.499998 0.706547 0.999998 0.152433
C129  C     C_1   0.499999 0.838514 0.999998 -0.058696
C130  C     C_1   0.999999 0.338514 0.999999 -0.058597
C131  C     C_1   0.999998 0.161766 0.999998 -0.062411
C132  C     C_1   0.499998 0.661765 0.999998 -0.062465
C133  C     C_1   0.999999 0.124288 0.999998 -0.168773
C134  C     C_1   0.499999 0.624288 0.999999 -0.168876
C135  C     C_1   0.499999 0.875993 0.999999 -0.156334
C136  C     C_1   1.000000 0.375993 0.999999 -0.156270
N1    N     N_R   0.791732 0.969397 0.180415 0.122663
O49   O     O_R   0.827941 0.951722 0.219924 -0.357488
O50   O     O_R   0.772694 0.970060 0.107768 -0.352067
N2    N     N_R   0.208255 0.966499 0.817617 0.122559
O51   O     O_R   0.172060 0.948898 0.777050 -0.356581
O52   O     O_R   0.227277 0.965777 0.890259 -0.352044
N3    N     N_R   0.291748 0.466822 0.182157 0.122550
O53   O     O_R   0.327952 0.449227 0.222615 -0.356686
O54   O     O_R   0.272723 0.466244 0.109512 -0.352079
N4    N     N_R   0.708259 0.466472 0.817613 0.122550
O55   O     O_R   0.672055 0.448889 0.777035 -0.356570
O56   O     O_R   0.727287 0.465720 0.890255 -0.352074

loop_
_geom_bond_atom_site_label_1
_geom_bond_atom_site_label_2
_geom_bond_distance
_ccdc_geom_bond_type
C30   C34   1.547748 S    
O42   Cu9   1.941325 S    
C119  H51   1.083395 S    
C44   C48   1.400240 A    
Cu12  O48   1.940882 S    
Cu7   Cu8   2.646176 S    
C28   H16   1.110170 S    
O28   Cu7   1.972795 S    
C27   C31   1.545601 S    
C16   H4    1.110157 S    
C13   C17   1.533134 S    
O38   C92   1.298382 A    
C80   C94   1.438723 S    
C15   H3    1.110126 S    
C52   H32   1.083531 S    
C90   C136  1.438996 S    
C61   N1    1.442519 S    
O40   C94   1.298382 A    
O33   C89   1.298586 A    
N3    O54   1.301591 A    
C109  C115  1.208263 T    
C15   C35   1.546694 S    
C110  C116  1.208267 T    
C9    C21   1.545799 S    
O7    C3    1.285080 A    
C119  C124  1.400526 A    
O39   Cu11  1.941413 S    
N1    O49   1.301141 A    
C22   C26   1.546179 S    
C118  C121  1.402017 A    
C11   H7    1.110121 S    
C54   C58   1.402916 A    
O46   C95   1.297025 A    
C24   H12   1.110166 S    
C25   C29   1.545595 S    
C12   C16   1.547831 S    
O37   Cu9   1.941413 S    
C11   C23   1.545794 S    
C71   C75   1.208230 T    
O20   C82   1.285736 A    
O29   C87   1.285974 A    
C43   H27   1.083645 S    
C111  C113  1.208199 T    
C54   H34   1.083702 S    
C58   C70   1.446664 S    
O19   C82   1.285735 A    
C47   C51   1.397841 A    
C57   C69   1.446665 S    
C107  C111  1.443677 S    
C46   C50   1.397818 A    
C47   C67   1.443783 S    
O35   Cu11  1.940966 S    
C9    C13   1.547833 S    
C14   C34   1.546699 S    
C105  C108  1.401984 A    
C59   C71   1.446666 S    
O17   Cu5   1.940436 S    
C18   C84   1.464429 S    
C7    C39   1.464426 S    
C29   C33   1.547748 S    
C81   C113  1.438812 S    
C98   C105  1.400523 A    
O27   C85   1.278514 A    
C36   H24   1.110208 S    
C120  C123  1.400526 A    
O17   C81   1.285735 A    
C97   C106  1.400526 A    
C42   C46   1.400246 A    
O7    Cu4   1.940255 S    
O20   Cu8   1.940425 S    
O5    Cu3   1.940255 S    
O44   Cu11  1.941325 S    
C97   C101  1.402003 A    
C32   H20   1.110147 S    
C41   H25   1.083674 S    
C66   C78   1.208105 T    
C44   H28   1.083664 S    
O19   Cu7   1.940436 S    
C131  C133  1.208212 T    
C43   C47   1.400230 A    
C98   H42   1.083398 S    
C100  C102  1.402008 A    
O28   C86   1.278482 A    
C97   H41   1.083400 S    
C14   C18   1.533140 S    
O26   Cu5   1.972795 S    
C44   C64   1.409510 A    
C88   C134  1.438841 S    
O27   Cu8   1.972793 S    
C120  C122  1.401997 A    
O8    C4    1.285074 A    
C12   C40   1.533276 S    
C27   H15   1.110138 S    
O11   C7    1.278187 A    
C102  C110  1.443754 S    
O36   C90   1.298585 A    
C10   C22   1.545811 S    
C101  C109  1.443748 S    
O12   C8    1.278211 A    
C118  C125  1.400529 A    
C26   H14   1.110154 S    
O39   C93   1.298386 A    
C18   C30   1.533384 S    
C98   C101  1.402004 A    
C103  C107  1.401989 A    
C117  C126  1.400529 A    
O9    Cu1   1.971355 S    
C55   H35   1.083734 S    
C51   C55   1.397279 A    
C99   H43   1.083420 S    
C72   C76   1.208240 T    
C13   C33   1.546693 S    
C5    C37   1.464431 S    
Cu2   Cu4   2.644828 S    
C14   H2    1.110143 S    
C23   H11   1.110142 S    
C64   N4    1.442506 S    
C20   C32   1.533355 S    
O35   C90   1.298588 A    
C35   C39   1.533105 S    
C56   H36   1.083715 S    
O12   Cu2   1.971350 S    
O4    Cu2   1.940897 S    
C126  C128  1.402002 A    
H46   C123  1.083406 S    
C52   C56   1.397278 A    
O36   Cu12  1.940969 S    
C10   C14   1.547834 S    
Cu5   O29   1.940712 S    
O13   Cu3   1.970503 S    
O30   C87   1.285976 A    
C108  C112  1.443677 S    
Cu6   O30   1.940722 S    
C34   C38   1.533084 S    
O34   Cu10  1.940969 S    
Cu10  O46   1.940882 S    
H39   C106  1.083409 S    
C51   H31   1.083466 S    
C42   H26   1.083653 S    
C31   H19   1.110127 S    
C70   C74   1.208237 T    
C30   H18   1.110136 S    
C77   C91   1.438729 S    
C68   C80   1.208105 T    
C19   C23   1.534311 S    
C19   C85   1.464419 S    
C118  H50   1.083415 S    
C8    C40   1.464415 S    
O18   C81   1.285736 A    
C99   C102  1.402007 A    
O13   C5    1.279347 A    
O43   Cu12  1.941328 S    
C60   C64   1.418884 A    
C67   C79   1.208105 T    
C17   C83   1.464415 S    
O33   Cu9   1.940966 S    
O22   Cu6   1.971302 S    
O47   C96   1.297023 A    
O15   C7    1.279342 A    
Cu9   Cu10  2.686637 S    
C2    C74   1.438246 S    
Cu8   O32   1.940722 S    
C43   C63   1.409527 A    
H38   C103  1.083431 S    
C50   H30   1.083538 S    
O23   Cu7   1.971302 S    
O38   Cu10  1.941409 S    
C45   C49   1.397797 A    
O21   Cu5   1.971302 S    
O6    Cu3   1.940265 S    
O24   C86   1.279235 A    
C17   C21   1.534299 S    
C100  H44   1.083418 S    
H48   C125  1.083423 S    
C17   C29   1.533375 S    
C25   C37   1.534505 S    
C12   H8    1.110140 S    
C53   C57   1.402928 A    
O1    C1    1.285734 A    
Cu11  O47   1.940885 S    
C42   C62   1.409503 A    
C10   C38   1.533244 S    
C12   C24   1.545752 S    
C89   C135  1.439002 S    
C41   C61   1.409511 A    
O15   Cu4   1.970503 S    
C55   C59   1.402904 A    
O24   Cu8   1.971302 S    
C58   C62   1.418871 A    
O45   C95   1.297023 A    
C122  C130  1.443757 S    
C9    C37   1.533244 S    
H40   C105  1.083412 S    
C46   C66   1.443773 S    
C48   C68   1.443767 S    
C121  C129  1.443754 S    
N1    O50   1.301616 A    
C106  C108  1.401985 A    
H45   C124  1.083406 S    
O41   C91   1.298032 A    
O8    Cu4   1.940265 S    
C57   C61   1.418877 A    
C31   C35   1.547757 S    
C87   C133  1.438834 S    
O4    C4    1.285744 A    
C96   C116  1.438996 S    
C95   C115  1.438996 S    
N3    O53   1.301119 A    
O2    C2    1.285742 A    
C36   C40   1.533075 S    
Cu7   O31   1.940712 S    
N4    O56   1.301617 A    
C120  H52   1.083400 S    
O31   C88   1.285971 A    
O25   Cu6   1.972793 S    
N2    O52   1.301620 A    
C26   C30   1.545591 S    
O18   Cu6   1.940425 S    
O23   C85   1.279205 A    
C3    C75   1.438252 S    
C119  C122  1.402001 A    
C20   C86   1.464455 S    
C45   C65   1.443767 S    
O48   C96   1.297025 A    
C100  C103  1.400529 A    
C4    C76   1.438249 S    
C9    H5    1.110119 S    
C129  C135  1.208270 T    
C123  C127  1.401986 A    
C49   C53   1.397269 A    
O3    Cu2   1.940907 S    
C25   H13   1.110130 S    
O14   Cu3   1.970503 S    
O26   C84   1.278522 A    
O37   C91   1.298386 A    
C112  C114  1.208199 T    
O11   Cu2   1.971355 S    
H47   C126  1.083424 S    
C63   N3    1.442526 S    
O6    C2    1.285072 A    
C27   C39   1.534500 S    
O1    Cu1   1.940907 S    
C6    C38   1.464424 S    
C26   C38   1.534508 S    
C82   C114  1.438818 S    
C1    C73   1.438252 S    
Cu1   Cu3   2.644828 S    
O16   Cu4   1.970503 S    
C18   C22   1.534277 S    
C59   C63   1.418916 A    
C50   C54   1.397285 A    
C124  C127  1.401983 A    
C32   C36   1.547783 S    
C28   C40   1.534470 S    
C56   C60   1.402917 A    
C29   H17   1.110125 S    
O14   C6    1.279358 A    
N4    O55   1.301139 A    
C22   H10   1.110147 S    
C117  C121  1.402018 A    
O22   C84   1.279196 A    
O32   C88   1.285973 A    
C62   N2    1.442495 S    
O10   Cu1   1.971350 S    
O40   Cu12  1.941409 S    
O10   C6    1.278182 A    
Cu11  Cu12  2.686637 S    
C53   H33   1.083720 S    
C104  C107  1.401993 A    
O43   C93   1.298029 A    
O25   C83   1.278519 A    
C48   C52   1.397812 A    
C11   C15   1.547836 S    
O21   C83   1.279198 A    
C99   C104  1.400529 A    
C78   C92   1.438726 S    
C132  C134  1.208209 T    
C13   H1    1.110123 S    
C16   C20   1.533151 S    
O2    Cu1   1.940897 S    
C23   C27   1.546180 S    
C34   H22   1.110192 S    
C33   C37   1.533103 S    
O9    C5    1.278180 A    
C130  C136  1.208267 T    
C128  C132  1.443690 S    
C21   H9    1.110130 S    
C21   C25   1.546181 S    
O3    C3    1.285743 A    
C11   C39   1.533249 S    
C19   C31   1.533372 S    
C69   C73   1.208242 T    
C20   C24   1.534317 S    
C41   C45   1.400258 A    
C28   C32   1.545622 S    
O42   C92   1.298037 A    
O34   C89   1.298584 A    
C127  C131  1.443696 S    
C60   C72   1.446667 S    
C125  C128  1.402001 A    
C35   H23   1.110186 S    
Cu5   Cu6   2.646176 S    
H37   C104  1.083426 S    
C79   C93   1.438717 S    
C10   H6    1.110131 S    
C33   H21   1.110178 S    
O5    C1    1.285083 A    
C65   C77   1.208109 T    
C15   C19   1.533138 S    
C16   C36   1.546690 S    
C117  H49   1.083413 S    
O44   C94   1.298034 A    
O16   C8    1.279325 A    
C49   H29   1.083550 S    
Cu9   O45   1.940885 S    
C24   C28   1.546196 S    
N2    O51   1.301142 A    
O41   Cu10  1.941328 S    
