data_mof_unit_53257.cif
_audit_creation_date              2012-10-26T17:11:04-0400
_audit_creation_method            fapswitch 2.2
_symmetry_space_group_name_H-M    P1
_symmetry_Int_Tables_number       1
_space_group_crystal_system       triclinic
_cell_length_a                    27.993076
_cell_length_b                    18.748156
_cell_length_c                    16.894216
_cell_angle_alpha                 90.088562
_cell_angle_beta                  62.215716
_cell_angle_gamma                 90.30823
_cell_volume                      7844.06284807

loop_
_atom_site_label
_atom_site_type_symbol
_atom_type_description
_atom_site_fract_x
_atom_site_fract_y
_atom_site_fract_z
_atom_type_partial_charge
C1    C     C_R   0.296464 0.730667 0.329300 0.554446
C2    C     C_R   0.440737 0.128653 0.517941 0.282946
C3    C     C_R   0.922892 0.090704 0.069934 0.560431
C4    C     C_R   0.430261 0.398668 0.063673 0.553045
C5    C     C_R   0.575484 0.593693 0.930969 0.565701
C6    C     C_R   0.572910 0.402490 0.933444 0.562390
C7    C     C_R   0.422892 0.590703 0.069934 0.560447
C8    C     C_R   0.037909 0.501342 0.540287 -0.062111
C9    C     C_R   0.951057 0.501074 0.497516 -0.069164
C10   C     C_R   0.537910 0.001344 0.540283 -0.062109
C11   C     C_R   0.451059 0.001076 0.497511 -0.069166
C12   C     C_R   0.016433 0.567037 0.529998 0.004874
C13   C     C_R   0.467955 0.876822 0.456180 0.242504
C14   C     C_R   0.976423 0.437140 0.499057 -0.031681
C15   C     C_R   0.969135 0.566398 0.517558 -0.032721
C16   C     C_R   0.013945 0.437071 0.534191 -0.036862
C17   C     C_R   0.516435 0.067039 0.529991 0.004877
C18   C     C_R   0.476423 0.937142 0.499053 -0.031683
C19   C     C_R   0.469138 0.066401 0.517549 -0.032727
C20   C     C_R   0.513946 0.937073 0.534188 -0.036864
C21   C     C_R   0.107709 0.433592 0.558753 -0.045076
C22   C     C_R   0.884209 0.564781 0.468665 -0.079660
C23   C     C_R   0.888197 0.434639 0.458938 -0.045184
C24   C     C_R   0.543719 0.130189 0.532003 0.253211
C25   C     C_R   0.109381 0.564639 0.557826 -0.065804
C26   C     C_R   0.607709 0.933593 0.558751 -0.045076
C27   C     C_R   0.384210 0.064781 0.468660 -0.079672
C28   C     C_R   0.388198 0.934639 0.458937 -0.045186
C29   C     C_R   0.609382 0.064640 0.557825 -0.065802
C30   C     C_R   0.161702 0.433677 0.549974 0.007510
C31   C     C_R   0.836783 0.565024 0.456706 -0.037452
C32   C     C_R   0.837940 0.434247 0.454448 0.030985
C33   C     C_R   0.162573 0.564908 0.549356 -0.013604
C34   C     C_R   0.661702 0.933677 0.549973 0.007511
C35   C     C_R   0.025545 0.375171 0.569552 0.237826
C36   C     C_R   0.336782 0.065024 0.456705 -0.037462
C37   C     C_R   0.337940 0.934247 0.454448 0.030976
C38   C     C_R   0.662573 0.064908 0.549356 -0.013603
C39   C     C_R   0.187051 0.499391 0.548353 0.156852
C40   C     C_R   0.816493 0.499280 0.443863 0.171773
C41   C     C_R   0.687051 0.999391 0.548354 0.156852
C42   C     C_R   0.316492 0.999280 0.443863 0.171769
C43   C     C_R   0.085276 0.499705 0.551954 -0.093587
C44   C     C_R   0.907049 0.499878 0.476616 -0.101891
C45   C     C_R   0.585276 0.999706 0.551952 -0.093586
C46   C     C_R   0.940732 0.628649 0.517957 0.282935
C47   C     C_R   0.407050 0.999879 0.476612 -0.101895
C48   C     C_R   0.573485 0.871751 0.579080 0.318397
C49   C     C_R   0.411199 0.127899 0.471141 0.356634
C50   C     C_R   0.423218 0.874429 0.437494 0.325541
C51   C     C_R   0.579240 0.127610 0.568602 0.274260
C52   C     C_R   0.073486 0.371750 0.579083 0.318395
C53   C     C_R   0.911196 0.627899 0.471153 0.356621
C54   C     C_R   0.923218 0.374428 0.437495 0.325545
C55   C     C_R   0.079240 0.627609 0.568604 0.274258
C56   C     C_3   0.573518 0.747780 0.595444 -0.008467
C57   C     C_R   0.967955 0.376820 0.456182 0.242506
C58   C     C_3   0.465632 0.157165 0.326032 -0.115912
C59   C     C_3   0.429392 0.753202 0.398993 -0.004671
C60   C     C_3   0.566033 0.167042 0.705556 -0.091876
C61   C     C_3   0.073518 0.247779 0.595451 -0.008460
C62   C     C_3   0.965646 0.657184 0.326058 -0.115885
C63   C     C_3   0.929392 0.253201 0.398993 -0.004673
C64   C     C_3   0.066033 0.667041 0.705557 -0.091891
C65   C     C_3   0.200246 0.926764 0.083908 -0.066632
C66   C     C_3   0.892065 0.271756 0.874526 -0.075525
C67   C     C_3   0.817229 0.896561 0.929615 -0.057234
C68   C     C_R   0.043717 0.630187 0.532008 0.253203
C69   C     C_3   0.126101 0.226724 0.122629 -0.065133
C70   C     C_3   0.700301 0.426800 0.083932 -0.066744
C71   C     C_3   0.392045 0.771746 0.874559 -0.075525
C72   C     C_3   0.317239 0.396532 0.929591 -0.057226
C73   C     C_3   0.626090 0.726769 0.122623 -0.065149
C74   C     C_3   0.248887 0.633943 0.862774 -0.074041
C75   C     C_3   0.669046 0.232198 0.213128 -0.077630
C76   C     C_3   0.767443 0.605988 0.126987 -0.088993
C77   C     C_3   0.330556 0.188109 0.762845 -0.070441
C78   C     C_3   0.748927 0.133990 0.862724 -0.073991
C79   C     C_R   0.226377 0.781321 0.949321 -0.032494
C80   C     C_3   0.169067 0.732161 0.213175 -0.077615
C81   C     C_3   0.267435 0.105944 0.126968 -0.089002
C82   C     C_3   0.830553 0.688173 0.762839 -0.070391
C83   C     C_3   0.090826 0.735713 0.042558 -0.128901
C84   C     C_3   0.798944 0.064645 0.048445 -0.113635
C85   C     C_3   0.928369 0.722063 0.951793 -0.102370
C86   C     C_3   0.205826 0.037125 0.902311 -0.119512
C87   C     C_3   0.590610 0.235885 0.042487 -0.129069
C88   C     C_3   0.298948 0.564630 0.048443 -0.113607
C89   C     C_3   0.428396 0.222069 0.951809 -0.102369
C90   C     C_R   0.785257 0.246026 0.043928 -0.031175
C91   C     C_3   0.705689 0.537037 0.902295 -0.119386
C92   C     C_3   0.155090 0.946619 0.711410 -0.040682
C93   C     C_3   0.836538 0.055135 0.285567 -0.065145
C94   C     C_3   0.935496 0.795343 0.223497 -0.058313
C95   C     C_3   0.056698 0.232866 0.815297 -0.078407
C96   C     C_3   0.654997 0.446537 0.711345 -0.040598
C97   C     C_3   0.336542 0.555136 0.285570 -0.065146
C98   C     C_3   0.435482 0.295365 0.223529 -0.058311
C99   C     C_3   0.556695 0.732856 0.815287 -0.078403
C100  C     C_R   0.790418 0.752852 0.034412 -0.041826
C101  C     C_R   0.709785 0.281062 0.665997 0.544006
C102  C     C_R   0.232064 0.213476 0.939651 -0.038680
C103  C     C_R   0.726403 0.281372 0.949297 -0.032323
C104  C     C_R   0.285243 0.746009 0.043941 -0.031209
C105  C     C_R   0.290427 0.252832 0.034403 -0.041798
C106  C     C_R   0.732053 0.713505 0.939660 -0.038631
C107  C     C_R   0.271210 0.734423 0.913104 0.273257
C108  C     C_R   0.734831 0.281300 0.086694 0.238586
C109  C     C_R   0.746716 0.703652 0.070936 0.264061
C110  C     C_R   0.283752 0.245850 0.895172 0.262990
C111  C     C_R   0.771233 0.234469 0.913077 0.273197
C112  C     C_R   0.702504 0.733355 0.671667 0.558570
C113  C     C_R   0.234813 0.781278 0.086712 0.238576
C114  C     C_R   0.246727 0.203630 0.070928 0.264042
C115  C     C_R   0.783738 0.745886 0.895184 0.262969
C116  C     C_R   0.305988 0.731945 0.951353 0.259852
C117  C     C_R   0.712738 0.311406 0.034387 0.236744
C118  C     C_R   0.712675 0.695975 0.031275 0.244727
C119  C     C_R   0.306234 0.277087 0.945757 0.249388
C120  C     C_R   0.806005 0.231968 0.951338 0.259793
C121  C     C_R   0.212708 0.811360 0.034410 0.236627
C122  C     C_R   0.212687 0.195946 0.031266 0.244624
C123  C     C_R   0.293294 0.276122 0.330575 0.545094
C124  C     C_R   0.806222 0.777115 0.945770 0.249373
C125  C     C_R   0.140908 0.819408 0.940574 0.222245
C126  C     C_R   0.845185 0.156168 0.068500 0.213080
C127  C     C_R   0.871672 0.803505 0.048551 0.213358
C128  C     C_R   0.162273 0.141874 0.915769 0.222024
C129  C     C_R   0.640935 0.319456 0.940564 0.222215
C130  C     C_R   0.345180 0.656161 0.068505 0.213060
C131  C     C_R   0.371676 0.303500 0.048550 0.213350
C132  C     C_R   0.662270 0.641887 0.915772 0.221977
C133  C     C_R   0.119323 0.854747 0.890729 -0.024304
C134  C     C_R   0.796464 0.230667 0.329299 0.554459
C135  C     C_R   0.875173 0.136422 0.112241 -0.031392
C136  C     C_R   0.890345 0.840797 0.100691 -0.032217
C137  C     C_R   0.122136 0.141400 0.887897 -0.026148
C138  C     C_R   0.619325 0.354754 0.890726 -0.024432
C139  C     C_R   0.375172 0.636420 0.112243 -0.031390
C140  C     C_R   0.390344 0.340799 0.100693 -0.032238
C141  C     C_R   0.622134 0.641404 0.887897 -0.026200
C142  C     C_R   0.145585 0.849000 0.797365 0.156562
C143  C     C_R   0.855541 0.155917 0.201246 0.169596
C144  C     C_R   0.868043 0.824635 0.191500 0.149906
C145  C     C_R   0.209785 0.781060 0.665999 0.543997
C146  C     C_R   0.130214 0.181507 0.812541 0.164666
C147  C     C_R   0.645572 0.348984 0.797367 0.156517
C148  C     C_R   0.355542 0.655917 0.201247 0.169599
C149  C     C_R   0.368038 0.324644 0.191505 0.149903
C150  C     C_R   0.630212 0.681507 0.812539 0.164685
C151  C     C_R   0.192360 0.808782 0.756612 -0.062144
C152  C     C_R   0.821284 0.214930 0.233344 -0.038725
C153  C     C_R   0.816515 0.794190 0.234478 -0.049393
C154  C     C_R   0.177004 0.222582 0.769857 -0.052650
C155  C     C_R   0.692362 0.308796 0.756605 -0.062145
C156  C     C_R   0.202505 0.233353 0.671667 0.558578
C157  C     C_R   0.321283 0.714928 0.233345 -0.038732
C158  C     C_R   0.316514 0.294191 0.234478 -0.049398
C159  C     C_R   0.676999 0.722588 0.769857 -0.052640
C160  C     C_R   0.223334 0.800961 0.802255 0.179625
C161  C     C_R   0.807963 0.253451 0.174064 0.189869
C162  C     C_R   0.787892 0.783541 0.184362 0.185599
C163  C     C_R   0.202704 0.244601 0.820906 0.178837
C164  C     C_R   0.723348 0.301007 0.802235 0.179596
C165  C     C_R   0.307957 0.753445 0.174067 0.189851
C166  C     C_R   0.287894 0.283532 0.184358 0.185625
C167  C     C_R   0.793294 0.776121 0.330575 0.545098
C168  C     C_R   0.702692 0.744618 0.820912 0.178835
C169  C     C_R   0.196487 0.800240 0.897276 0.040964
C170  C     C_R   0.813494 0.219101 0.095410 0.044987
C171  C     C_R   0.817273 0.778885 0.089237 0.036276
C172  C     C_R   0.198853 0.200003 0.891717 0.040502
C173  C     C_R   0.696512 0.300298 0.897255 0.041058
C174  C     C_R   0.313486 0.719091 0.095417 0.044951
C175  C     C_R   0.317278 0.278873 0.089233 0.036304
C176  C     C_R   0.698843 0.700024 0.891725 0.040527
C177  C     C_R   0.196125 0.631772 0.529285 0.564444
C178  C     C_R   0.525545 0.875173 0.569549 0.237828
C179  C     C_R   0.804147 0.368037 0.470813 0.569567
C180  C     C_R   0.803645 0.631548 0.472081 0.542177
C181  C     C_R   0.195721 0.367812 0.530229 0.566130
C182  C     C_R   0.696125 0.131772 0.529285 0.564456
C183  C     C_R   0.304147 0.868037 0.470813 0.569571
C184  C     C_R   0.303645 0.131548 0.472080 0.542172
C185  C     C_R   0.695721 0.867812 0.530229 0.566126
C186  C     C_R   0.930262 0.898668 0.063672 0.553059
C187  C     C_R   0.075484 0.093692 0.930969 0.565750
C188  C     C_R   0.072911 0.902490 0.933444 0.562518
Cu1   Cu    Cu3+1 0.209920 0.785290 0.495070 1.066409
Cu2   Cu    Cu3+1 0.504760 0.500000 0.075850 1.061797
Cu3   Cu    Cu3+1 0.995240 0.000000 0.924150 1.070980
Cu4   Cu    Cu3+1 0.004760 1.000000 0.075850 1.061816
Cu5   Cu    Cu3+1 0.790080 0.214710 0.504930 0.979068
Cu6   Cu    Cu3+1 0.790080 0.785290 0.504930 1.094087
Cu7   Cu    Cu3+1 0.209920 0.214710 0.495070 0.963867
Cu8   Cu    Cu3+1 0.709920 0.285290 0.495070 1.066324
Cu9   Cu    Cu3+1 0.290080 0.714710 0.504930 0.979070
Cu10  Cu    Cu3+1 0.290080 0.285290 0.504930 1.094089
Cu11  Cu    Cu3+1 0.709920 0.714710 0.495070 0.963856
Cu12  Cu    Cu3+1 0.495240 0.500000 0.924150 1.070884
H1    H     H_    0.263373 0.499978 0.480577 0.323170
H2    H     H_    0.487675 0.203903 0.285353 0.114637
H3    H     H_    0.260806 0.594046 0.089566 0.078035
H4    H     H_    0.306377 0.524932 0.090311 0.097085
H5    H     H_    0.292978 0.535586 0.996689 0.120383
H6    H     H_    0.396167 0.180791 0.971085 0.089503
H7    H     H_    0.450194 0.216120 0.992240 0.076857
H8    H     H_    0.457914 0.212788 0.880783 0.142299
H9    H     H_    0.705831 0.533458 0.836259 0.070017
H10   H     H_    0.696832 0.482572 0.931053 0.160712
H11   H     H_    0.746303 0.552943 0.892698 0.099847
H12   H     H_    0.138430 0.974279 0.671755 0.167724
H13   H     H_    0.417108 0.744888 0.471300 0.137361
H14   H     H_    0.198542 0.936168 0.666007 0.104905
H15   H     H_    0.150892 0.983259 0.766162 0.101508
H16   H     H_    0.843439 0.019544 0.228470 0.109619
H17   H     H_    0.847128 0.024597 0.331321 0.157748
H18   H     H_    0.793008 0.069266 0.323272 0.087509
H19   H     H_    0.918414 0.740796 0.244342 0.112526
H20   H     H_    0.955878 0.811366 0.263465 0.171207
H21   H     H_    0.966587 0.795040 0.151928 0.106045
H22   H     H_    0.026106 0.227723 0.791463 0.149049
H23   H     H_    0.076520 0.285986 0.793787 0.139211
H24   H     H_    0.471973 0.737316 0.356318 0.165217
H25   H     H_    0.034837 0.229403 0.889688 0.098715
H26   H     H_    0.638332 0.474097 0.671634 0.167654
H27   H     H_    0.698459 0.436121 0.665977 0.104897
H28   H     H_    0.650761 0.483248 0.766051 0.101628
H29   H     H_    0.343437 0.519549 0.228477 0.109617
H30   H     H_    0.347137 0.524597 0.331314 0.157760
H31   H     H_    0.293014 0.569265 0.323285 0.087509
H32   H     H_    0.418398 0.240811 0.244344 0.112511
H33   H     H_    0.455843 0.311377 0.263543 0.171225
H34   H     H_    0.466592 0.295081 0.151964 0.105952
H35   H     H_    0.404854 0.716335 0.381429 0.165949
H36   H     H_    0.526102 0.727703 0.791457 0.149044
H37   H     H_    0.576513 0.785977 0.793770 0.139227
H38   H     H_    0.534836 0.729398 0.889679 0.098722
H39   H     H_    0.290999 0.821375 0.695318 0.323426
H40   H     H_    0.800283 0.343783 0.235609 0.334617
H41   H     H_    0.718396 0.809213 0.283003 0.323911
H42   H     H_    0.217642 0.339560 0.768314 0.334898
H43   H     H_    0.791003 0.321425 0.695285 0.323420
H44   H     H_    0.300279 0.843779 0.235606 0.334618
H45   H     H_    0.218395 0.309195 0.282998 0.323911
H46   H     H_    0.597378 0.133825 0.710217 0.108430
H47   H     H_    0.717624 0.839575 0.768312 0.334904
H48   H     H_    0.526321 0.138848 0.736514 0.084673
H49   H     H_    0.561658 0.216219 0.744938 0.166175
H50   H     H_    0.081989 0.247808 0.524076 0.132067
H51   H     H_    0.032394 0.226925 0.639645 0.166417
H52   H     H_    0.101510 0.209173 0.600902 0.171705
H53   H     H_    0.783607 0.534356 0.373686 0.330792
H54   H     H_    0.949301 0.625588 0.288315 0.093166
H55   H     H_    0.996594 0.625228 0.334224 0.118534
H56   H     H_    0.987682 0.703929 0.285390 0.114679
H57   H     H_    0.917108 0.244887 0.471300 0.137367
H58   H     H_    0.971973 0.237316 0.356318 0.165211
H59   H     H_    0.904854 0.216335 0.381428 0.165946
H60   H     H_    0.097378 0.633824 0.710218 0.108431
H61   H     H_    0.026321 0.638848 0.736515 0.084679
H62   H     H_    0.061658 0.716218 0.744939 0.166138
H63   H     H_    0.451864 0.838417 0.617818 0.333913
H64   H     H_    0.763373 0.999979 0.480583 0.323172
H65   H     H_    0.445172 0.177221 0.614733 0.323138
H66   H     H_    0.542113 0.843728 0.408297 0.326545
H67   H     H_    0.564585 0.228734 0.493163 0.359471
H68   H     H_    0.951864 0.338414 0.617819 0.333921
H69   H     H_    0.945169 0.677214 0.614749 0.323123
H70   H     H_    0.042113 0.343727 0.408299 0.326542
H71   H     H_    0.064581 0.728733 0.493168 0.359470
H72   H     H_    0.239500 0.939923 0.024695 0.065691
H73   H     H_    0.205967 0.919929 0.144218 0.185580
H74   H     H_    0.173175 0.973106 0.096484 0.182691
H75   H     H_    0.283605 0.034355 0.373688 0.330796
H76   H     H_    0.893148 0.295597 0.934029 0.093382
H77   H     H_    0.879177 0.312187 0.840142 0.128601
H78   H     H_    0.933747 0.255690 0.826849 0.148820
H79   H     H_    0.797606 0.904844 0.003330 0.074497
H80   H     H_    0.787007 0.901329 0.904476 0.139025
H81   H     H_    0.847639 0.939568 0.897982 0.170080
H82   H     H_    0.124835 0.262560 0.071147 0.090141
H83   H     H_    0.137471 0.257438 0.167855 0.153719
H84   H     H_    0.084721 0.205355 0.163765 0.152898
H85   H     H_    0.739564 0.439960 0.024739 0.065737
H86   H     H_    0.581990 0.747811 0.524069 0.132070
H87   H     H_    0.706005 0.419926 0.144252 0.185643
H88   H     H_    0.673242 0.473159 0.096523 0.182652
H89   H     H_    0.393128 0.795570 0.934071 0.093398
H90   H     H_    0.379154 0.812189 0.840193 0.128564
H91   H     H_    0.433729 0.755690 0.826874 0.148817
H92   H     H_    0.297615 0.404820 0.003306 0.074490
H93   H     H_    0.287016 0.401294 0.904451 0.139032
H94   H     H_    0.347647 0.439540 0.897954 0.170077
H95   H     H_    0.624827 0.762594 0.071131 0.090145
H96   H     H_    0.637463 0.757492 0.167840 0.153688
H97   H     H_    0.532394 0.726925 0.639637 0.166417
H98   H     H_    0.584710 0.705407 0.163766 0.152910
H99   H     H_    0.206575 0.650301 0.883586 0.081152
H100  H     H_    0.251016 0.602462 0.916848 0.089939
H101  H     H_    0.261536 0.598507 0.803826 0.165583
H102  H     H_    0.689237 0.179294 0.197060 0.071994
H103  H     H_    0.638634 0.235263 0.188220 0.135058
H104  H     H_    0.647145 0.237050 0.287068 0.165157
H105  H     H_    0.810583 0.621658 0.100625 0.080912
H106  H     H_    0.762196 0.571042 0.078174 0.097459
H107  H     H_    0.755889 0.574347 0.188750 0.154587
H108  H     H_    0.601511 0.709174 0.600893 0.171696
H109  H     H_    0.299182 0.145522 0.786419 0.062926
H110  H     H_    0.365196 0.171653 0.773629 0.102455
H111  H     H_    0.344587 0.193683 0.690137 0.190649
H112  H     H_    0.706604 0.150332 0.883610 0.081111
H113  H     H_    0.751099 0.102482 0.916741 0.090076
H114  H     H_    0.761557 0.098587 0.803752 0.165577
H115  H     H_    0.189287 0.679275 0.197127 0.071988
H116  H     H_    0.138648 0.735162 0.188274 0.134861
H117  H     H_    0.147168 0.737033 0.287113 0.165178
H118  H     H_    0.310584 0.121582 0.100547 0.080879
H119  H     H_    0.449268 0.125580 0.288308 0.093184
H120  H     H_    0.262145 0.070997 0.078198 0.097486
H121  H     H_    0.255895 0.074316 0.188736 0.154602
H122  H     H_    0.799186 0.645578 0.786395 0.062937
H123  H     H_    0.865193 0.671723 0.773626 0.102476
H124  H     H_    0.844587 0.693763 0.690133 0.190694
H125  H     H_    0.125349 0.698584 0.023238 0.090672
H126  H     H_    0.068257 0.723344 0.004567 0.086180
H127  H     H_    0.062889 0.726745 0.114505 0.117711
H128  H     H_    0.760805 0.094066 0.089577 0.078075
H129  H     H_    0.806373 0.024941 0.090307 0.097094
H130  H     H_    0.496579 0.125193 0.334181 0.118522
H131  H     H_    0.792967 0.035608 0.996694 0.120349
H132  H     H_    0.896130 0.680803 0.971048 0.089502
H133  H     H_    0.950158 0.716080 0.992234 0.076926
H134  H     H_    0.957891 0.712787 0.880767 0.142299
H135  H     H_    0.206250 0.033740 0.836024 0.069923
H136  H     H_    0.196887 0.982587 0.930855 0.160565
H137  H     H_    0.246354 0.052997 0.893206 0.100003
H138  H     H_    0.625018 0.198494 0.022755 0.090573
H139  H     H_    0.567793 0.223938 0.004800 0.086323
H140  H     H_    0.562827 0.226858 0.114486 0.117735
O1    O     O_R   0.255040 0.869590 0.478480 -0.457354
O2    O     O_R   0.817950 0.203450 0.375560 -0.475681
O3    O     O_3   0.594447 0.677342 0.777483 -0.529865
O4    O     O_3   0.279118 0.802047 0.756256 -0.641715
O5    O     O_3   0.791060 0.323516 0.190223 -0.648356
O6    O     O_3   0.732127 0.783285 0.225463 -0.648195
O7    O     O_3   0.228226 0.310132 0.806251 -0.640988
O8    O     O_3   0.779131 0.302100 0.756220 -0.641733
O9    O     O_3   0.291053 0.823509 0.190224 -0.648332
O10   O     O_3   0.232129 0.283271 0.225453 -0.648202
O11   O     O_3   0.728204 0.810156 0.806263 -0.640994
O12   O     O_R   0.817950 0.796550 0.375560 -0.448997
O13   O     O_R   0.182050 0.203450 0.624440 -0.475600
O14   O     O_R   0.682050 0.296550 0.624440 -0.443885
O15   O     O_R   0.317950 0.703450 0.375560 -0.475682
O16   O     O_R   0.317950 0.296550 0.375560 -0.449006
O17   O     O_R   0.682050 0.703450 0.624440 -0.475595
O18   O     O_R   0.250530 0.763330 0.367210 -0.500818
O19   O     O_R   0.749470 0.236670 0.632790 -0.500886
O20   O     O_R   0.749470 0.763330 0.632790 -0.494197
O21   O     O_R   0.744960 0.130410 0.521520 -0.475326
O22   O     O_R   0.250530 0.236670 0.367210 -0.509411
O23   O     O_R   0.750530 0.263330 0.367210 -0.500801
O24   O     O_R   0.249470 0.736670 0.632790 -0.500907
O25   O     O_R   0.249470 0.263330 0.632790 -0.494184
O26   O     O_R   0.750530 0.736670 0.367210 -0.509406
O27   O     O_R   0.177260 0.690030 0.513710 -0.468541
O28   O     O_R   0.822740 0.309970 0.486290 -0.525196
O29   O     O_R   0.822740 0.690030 0.486290 -0.456472
O30   O     O_R   0.177260 0.309970 0.513710 -0.513491
O31   O     O_R   0.677260 0.190030 0.513710 -0.468525
O32   O     O_R   0.744960 0.869590 0.521520 -0.477045
O33   O     O_R   0.322740 0.809970 0.486290 -0.525204
O34   O     O_R   0.322740 0.190030 0.486290 -0.456474
O35   O     O_R   0.677260 0.809970 0.513710 -0.513488
O36   O     O_R   0.051640 0.926880 0.885090 -0.469463
O37   O     O_R   0.948360 0.073120 0.114910 -0.474689
O38   O     O_R   0.948360 0.926880 0.114910 -0.482132
O39   O     O_R   0.051640 0.073120 0.885090 -0.482123
O40   O     O_R   0.551640 0.426880 0.885090 -0.469486
O41   O     O_R   0.448360 0.573120 0.114910 -0.474673
O42   O     O_R   0.448360 0.426880 0.114910 -0.482134
O43   O     O_R   0.255040 0.130410 0.478480 -0.495032
O44   O     O_R   0.551640 0.573120 0.885090 -0.482154
O45   O     O_R   0.940620 0.926560 0.986760 -0.474799
O46   O     O_R   0.059380 0.073440 0.013240 -0.471786
O47   O     O_R   0.059380 0.926560 0.013240 -0.467402
O48   O     O_R   0.940620 0.073440 0.986760 -0.472313
O49   O     O_R   0.440620 0.426560 0.986760 -0.474788
O50   O     O_R   0.559380 0.573440 0.013240 -0.471756
O51   O     O_R   0.559380 0.426560 0.013240 -0.467427
O52   O     O_R   0.440620 0.573440 0.986760 -0.472304
O53   O     O_3   0.237000 0.499598 0.545204 -0.647214
O54   O     O_R   0.755040 0.369590 0.478480 -0.457403
O55   O     O_3   0.775662 0.497141 0.419880 -0.664246
O56   O     O_3   0.736999 0.999597 0.545209 -0.647217
O57   O     O_3   0.275661 0.997141 0.419882 -0.664227
O58   O     O_3   0.581035 0.815456 0.625981 -0.566313
O59   O     O_3   0.422803 0.181001 0.407936 -0.503605
O60   O     O_3   0.421051 0.823806 0.378436 -0.554435
O61   O     O_3   0.581582 0.186744 0.616223 -0.533614
O62   O     O_3   0.081036 0.315456 0.625985 -0.566312
O63   O     O_3   0.922801 0.681003 0.407952 -0.503597
O64   O     O_3   0.921051 0.323806 0.378436 -0.554435
O65   O     O_R   0.244960 0.630410 0.521520 -0.475322
O66   O     O_3   0.081582 0.686743 0.616224 -0.533622
O67   O     O_3   0.488243 0.820181 0.602966 -0.698952
O68   O     O_3   0.439791 0.190486 0.562649 -0.617755
O69   O     O_3   0.506195 0.823509 0.422702 -0.703602
O70   O     O_3   0.539126 0.192227 0.492038 -0.651161
O71   O     O_3   0.988244 0.320178 0.602967 -0.698956
O72   O     O_3   0.939787 0.690481 0.562667 -0.617792
O73   O     O_3   0.006195 0.323508 0.422704 -0.703605
O74   O     O_3   0.039122 0.692225 0.492045 -0.651165
O75   O     O_3   0.175503 0.866052 0.068844 -0.491069
O76   O     O_R   0.244960 0.369590 0.521520 -0.477042
O77   O     O_3   0.858661 0.210703 0.898196 -0.463783
O78   O     O_3   0.843952 0.830564 0.905828 -0.455699
O79   O     O_3   0.161334 0.168994 0.082924 -0.478575
O80   O     O_3   0.675551 0.366119 0.068815 -0.491114
O81   O     O_3   0.358645 0.710691 0.898204 -0.463761
O82   O     O_3   0.343963 0.330535 0.905811 -0.455694
O83   O     O_3   0.661320 0.669032 0.082937 -0.478531
O84   O     O_3   0.283960 0.693387 0.837874 -0.452186
O85   O     O_3   0.707019 0.288252 0.178640 -0.489283
O86   O     O_3   0.733870 0.666330 0.148836 -0.464504
O87   O     O_R   0.755040 0.630410 0.478480 -0.495036
O88   O     O_3   0.310611 0.254697 0.803362 -0.451054
O89   O     O_3   0.783985 0.193449 0.837835 -0.452216
O90   O     O_3   0.207009 0.788249 0.178655 -0.489224
O91   O     O_3   0.233885 0.166310 0.148828 -0.464521
O92   O     O_3   0.810593 0.754751 0.803377 -0.451077
O93   O     O_3   0.108163 0.807390 0.030817 -0.486522
O94   O     O_3   0.843789 0.110640 0.005228 -0.482970
O95   O     O_3   0.907314 0.791321 0.959656 -0.478597
O96   O     O_3   0.166322 0.083971 0.962922 -0.496089
O97   O     O_3   0.608219 0.307437 0.030812 -0.486485
O98   O     O_R   0.182050 0.796550 0.624440 -0.443855
O99   O     O_3   0.343789 0.610632 0.005231 -0.482959
O100  O     O_3   0.407321 0.291313 0.959658 -0.478592
O101  O     O_3   0.666325 0.583999 0.962940 -0.496093
O102  O     O_3   0.125740 0.882605 0.745741 -0.509181
O103  O     O_3   0.869539 0.116791 0.256884 -0.519644
O104  O     O_3   0.894268 0.844898 0.240055 -0.518080
O105  O     O_3   0.094447 0.177349 0.777489 -0.529863
O106  O     O_3   0.625681 0.382513 0.745758 -0.509191
O107  O     O_3   0.369542 0.616793 0.256883 -0.519645
O108  O     O_3   0.394258 0.344920 0.240065 -0.518077

loop_
_geom_bond_atom_site_label_1
_geom_bond_atom_site_label_2
_ccdc_geom_bond_type
C28   C47   A    
C6    O51   A    
Cu6   O20   S    
C82   H124  S    
Cu11  O35   S    
C130  C174  A    
C79   C121  A    
C71   H91   S    
C13   C18   A    
Cu4   O38   S    
C188  O47   A    
C85   H134  S    
C16   C35   A    
C167  O12   A    
C60   O61   S    
C101  C155  S    
C81   H121  S    
C54   O64   S    
C37   C42   A    
C123  O16   A    
C133  C188  S    
C104  C116  A    
C36   C42   A    
C162  C171  A    
C10   C20   A    
C61   H50   S    
C134  O2    A    
C156  O13   A    
C87   O97   S    
C94   H21   S    
C147  C155  A    
C4    O42   A    
Cu7   Cu10  S    
C24   C51   A    
C7    O52   A    
C8    C16   A    
C106  C118  A    
C83   H126  S    
C129  C173  A    
C103  C117  A    
C77   O88   S    
H66   O69   S    
Cu4   O46   S    
C109  C118  A    
C76   H106  S    
C102  C172  S    
C95   H22   S    
C150  C159  A    
C48   O58   S    
Cu3   Cu4   S    
C137  C146  A    
C97   O107  S    
C127  C136  A    
C71   O81   S    
C63   H58   S    
C64   H61   S    
C181  O76   A    
C104  C174  S    
C33   C177  S    
C1    O18   A    
C29   C45   A    
C113  O90   S    
C100  C124  A    
C96   H26   S    
C142  C151  A    
C105  C114  A    
C146  C154  A    
C73   O83   S    
Cu9   O65   S    
Cu2   O50   S    
C74   O84   S    
C164  C173  A    
C146  O105  S    
C163  C172  A    
C98   H32   S    
C81   O91   S    
C185  O32   A    
C82   H122  S    
H68   O71   S    
C75   H103  S    
C53   O63   S    
Cu1   Cu9   S    
C14   C57   A    
C136  C186  S    
C2    C19   A    
C59   H35   S    
C25   C55   A    
C101  O14   A    
C59   H13   S    
C187  O46   A    
C106  C115  A    
C31   C180  S    
C56   O58   S    
C91   O101  S    
C9    C15   A    
C165  O9    S    
C150  O3    S    
H53   O55   S    
C166  O10   S    
C89   H7    S    
C61   H52   S    
C84   H131  S    
C94   H19   S    
C124  O78   S    
C80   H116  S    
C59   H24   S    
C83   O93   S    
C168  O11   S    
C62   H54   S    
H39   O4    S    
C58   H2    S    
C70   H87   S    
C93   H18   S    
C56   H86   S    
C87   H139  S    
C77   H109  S    
C11   C18   A    
C78   H114  S    
C74   H100  S    
C85   O95   S    
C25   C43   A    
C48   C178  A    
C7    O41   A    
C84   O94   S    
C12   C68   A    
C119  O82   S    
C13   O69   S    
C133  C142  A    
C120  O77   S    
Cu10  O34   S    
C96   H28   S    
C180  O87   A    
C114  O91   S    
C59   O60   S    
C132  C176  A    
Cu8   O14   S    
H43   O8    S    
C127  C171  A    
C37   C183  S    
C109  O86   S    
C46   C53   A    
C74   H101  S    
C93   H17   S    
C58   H119  S    
C107  O84   S    
C149  O108  S    
C129  O97   S    
C26   C45   A    
C111  O89   S    
C99   H38   S    
C69   O79   S    
C70   O80   S    
C29   C38   A    
C131  C140  A    
Cu6   O29   S    
C149  C158  A    
C152  C161  A    
C65   O75   S    
Cu5   Cu8   S    
C135  C143  A    
C66   H76   S    
C80   O90   S    
Cu3   O48   S    
C84   H128  S    
C93   H16   S    
C164  O8    S    
C49   O59   S    
C141  C150  A    
C62   H55   S    
C139  C148  A    
C95   O105  S    
C65   H73   S    
C160  O4    S    
Cu11  O26   S    
C38   C41   A    
C91   H11   S    
C157  C165  A    
C165  C174  A    
C95   H23   S    
C90   C120  A    
C86   H135  S    
C84   H129  S    
C95   H25   S    
C126  C170  A    
C63   H59   S    
C69   H82   S    
C98   H34   S    
C6    O40   A    
C8    C12   A    
C70   H85   S    
C1    O15   A    
C10   C45   A    
Cu11  O17   S    
C88   H4    S    
Cu12  O49   S    
C99   O3    S    
Cu5   O21   S    
C77   H111  S    
C78   H112  S    
C60   H49   S    
C92   H12   S    
C51   O61   S    
C147  O106  S    
C67   H79   S    
C40   O55   S    
H41   O6    S    
C125  C169  A    
C94   O104  S    
C29   C51   A    
C27   C47   A    
C132  C141  A    
C168  C176  A    
C58   O59   S    
C110  C119  A    
C183  O1    A    
Cu5   O28   S    
C60   H48   S    
C128  O96   S    
C26   C48   A    
C56   H97   S    
Cu8   O54   S    
C38   C182  S    
C86   H137  S    
C182  O31   A    
C148  O107  S    
C72   H92   S    
C85   H133  S    
C101  O19   A    
C108  O85   S    
C99   H36   S    
C28   C37   A    
C68   O74   S    
Cu9   O15   S    
C24   O70   S    
C30   C39   A    
C148  C157  A    
C2    O68   S    
C5    O50   A    
C142  O102  S    
C107  C116  A    
Cu5   O19   S    
C13   C50   A    
C89   O100  S    
C100  C109  A    
C113  C121  A    
C181  O30   A    
C91   H10   S    
C105  C175  S    
C106  C176  S    
C88   O99   S    
C15   C46   A    
C145  O98   A    
C97   H30   S    
C122  O79   S    
C27   C49   A    
C25   C33   A    
C54   C57   A    
Cu2   O41   S    
Cu3   O39   S    
C61   O62   S    
C115  O92   S    
C83   H125  S    
C131  O100  S    
C11   C47   A    
C112  O20   A    
C8    C43   A    
C88   H5    S    
C91   H9    S    
C55   C68   A    
H45   O10   S    
Cu2   Cu12  S    
H65   O68   S    
C76   O86   S    
C11   C19   A    
C166  C175  A    
C73   H96   S    
C82   O92   S    
C188  O36   A    
C62   O63   S    
C63   H57   S    
C64   H62   S    
C81   H118  S    
C69   H84   S    
C96   O106  S    
C63   O64   S    
C31   C40   A    
C66   H77   S    
C103  C111  A    
C144  O104  S    
C65   H72   S    
C57   O73   S    
C52   O62   S    
H67   O70   S    
C143  O103  S    
C9    C44   A    
Cu2   O51   S    
C160  C169  A    
C92   H14   S    
C179  O28   A    
C71   H90   S    
C72   H93   S    
C154  C156  S    
C67   H81   S    
Cu5   O2    S    
H75   O57   S    
C153  C167  S    
C67   O78   S    
C82   H123  S    
C34   C41   A    
Cu6   O32   S    
Cu12  O44   S    
C130  C139  A    
C108  C117  A    
C86   O96   S    
Cu7   O30   S    
C126  O94   S    
Cu11  O87   S    
Cu4   O37   S    
H71   O74   S    
C121  O75   S    
C20   C178  A    
C23   C44   A    
C3    O37   A    
C4    O49   A    
C34   C185  S    
C134  O23   A    
H69   O72   S    
C75   O85   S    
Cu8   O23   S    
C89   H6    S    
C12   C15   A    
C177  O65   A    
C61   H51   S    
C134  C152  S    
C94   H20   S    
C79   C107  A    
C143  C152  A    
Cu9   O24   S    
Cu10  O16   S    
C126  C135  A    
C70   H88   S    
C130  O99   S    
C187  O39   A    
C30   C181  S    
C92   O102  S    
C102  C110  A    
C179  O54   A    
C93   O103  S    
C118  O83   S    
C158  C166  A    
C76   H105  S    
C145  O24   A    
C115  C124  A    
C73   H98   S    
C81   H120  S    
Cu10  O25   S    
C27   C36   A    
C21   C30   A    
C153  C162  A    
H64   O56   S    
C23   C32   A    
C79   C169  S    
C136  C144  A    
C125  O93   S    
Cu1   O98   S    
C131  C175  A    
C50   O60   S    
C3    C135  S    
C116  O81   S    
C186  O45   A    
C90   C108  A    
C99   H37   S    
Cu6   O12   S    
C35   C52   A    
C105  C119  A    
C55   O66   S    
C10   C17   A    
C75   H104  S    
C102  C122  A    
C184  O34   A    
C178  O67   S    
C66   O77   S    
C137  C187  S    
Cu7   O22   S    
C60   H46   S    
C112  C159  S    
C156  O25   A    
C161  O5    S    
H42   O7    S    
C9    C14   A    
C42   O57   S    
H47   O11   S    
Cu1   O18   S    
C97   H31   S    
Cu1   O27   S    
C62   H56   S    
Cu3   O36   S    
C33   C39   A    
C92   H15   S    
Cu9   O33   S    
C80   H115  S    
C89   H8    S    
Cu7   O13   S    
Cu8   O31   S    
C103  C173  S    
C159  C168  A    
C58   H130  S    
C86   H136  S    
C144  C153  A    
C21   C43   A    
C72   O82   S    
C26   C34   A    
C97   H29   S    
C129  C138  A    
C163  O7    S    
C132  O101  S    
H40   O5    S    
C32   C179  S    
C36   C184  S    
C123  O22   A    
C87   H140  S    
Cu4   O47   S    
C177  O27   A    
C76   H107  S    
C127  O95   S    
C77   H110  S    
C88   H3    S    
C78   H113  S    
C180  O29   A    
C100  C171  S    
C74   H99   S    
C28   C50   A    
C5    O44   A    
C22   C53   A    
C22   C44   A    
C17   C24   A    
C22   C31   A    
H70   O73   S    
C96   H27   S    
C154  C163  A    
C56   H108  S    
C184  O43   A    
C167  O26   A    
C104  C113  A    
C111  C120  A    
C110  O88   S    
C6    C138  S    
C128  C137  A    
C2    C49   A    
C46   O72   S    
C4    C140  S    
C5    C141  S    
Cu6   Cu11  S    
C83   H127  S    
C138  C147  A    
C185  O35   A    
C90   C170  S    
Cu12  O40   S    
C75   H102  S    
C145  C151  S    
H1    O53   S    
H63   O67   S    
C161  C170  A    
C98   O108  S    
C128  C172  A    
Cu10  O76   S    
Cu3   O45   S    
C14   C16   A    
C23   C54   A    
C80   H117  S    
C125  C133  A    
H44   O9    S    
Cu2   O42   S    
C41   O56   S    
C65   H74   S    
C112  O17   A    
C35   O71   S    
C78   O89   S    
C162  O6    S    
C123  C158  S    
Cu7   O43   S    
C155  C164  A    
C85   H132  S    
C73   H95   S    
C151  C160  A    
C1    C157  S    
C7    C139  S    
C69   H83   S    
C98   H33   S    
Cu1   O1    S    
C140  C149  A    
C17   C19   A    
C66   H78   S    
C18   C20   A    
C32   C40   A    
C117  O80   S    
C87   H138  S    
Cu12  O52   S    
C186  O38   A    
C3    O48   A    
C114  C122  A    
C183  O33   A    
C64   O66   S    
C71   H89   S    
C182  O21   A    
C67   H80   S    
C72   H94   S    
C39   O53   S    
C21   C52   A    
C64   H60   S    
