data_mof_unit_49215.cif
_audit_creation_date              2012-12-10T20:00:01-0500
_audit_creation_method            fapswitch 2.2
_symmetry_space_group_name_H-M    P1
_symmetry_Int_Tables_number       1
_space_group_crystal_system       triclinic
_cell_length_a                    14.993286
_cell_length_b                    14.300762
_cell_length_c                    8.897945
_cell_angle_alpha                 89.752555
_cell_angle_beta                  91.260108
_cell_angle_gamma                 89.982148
_cell_volume                      1907.37723117

loop_
_atom_site_label
_atom_site_type_symbol
_atom_type_description
_atom_site_fract_x
_atom_site_fract_y
_atom_site_fract_z
_atom_type_partial_charge
C1    C     C_R   0.327536 0.499796 0.496499 0.968983
C2    C     C_R   0.671820 0.499844 0.499708 0.998380
C3    C     C_R   0.472526 0.204050 0.374295 0.564748
C4    C     C_R   0.497238 0.796450 0.632820 0.580961
C5    C     C_R   0.528998 0.204011 0.625240 0.580972
C6    C     C_R   0.503973 0.797213 0.367470 0.600986
C7    C     C_R   0.472271 0.105324 0.373778 -0.379287
C8    C     C_R   0.492825 0.895147 0.634093 -0.368442
C9    C     C_R   0.527708 0.105123 0.628114 -0.377695
C10   C     C_R   0.507914 0.896381 0.367983 -0.387275
C11   C     C_R   0.500012 0.500125 0.218858 0.904032
C12   C     C_R   0.500057 0.499874 0.781144 0.899474
C13   C     C_R   0.499468 0.053613 0.501453 0.067727
C14   C     C_R   0.499707 0.947416 0.501251 0.080569
C15   C     C_1   0.500078 0.500193 0.065451 -0.161292
C16   C     C_1   0.500089 0.499827 0.934560 -0.166745
C17   C     C_R   0.094249 0.579229 0.407520 0.385671
C18   C     C_R   0.900169 0.441065 0.377650 0.412679
C19   C     C_R   0.909497 0.566509 0.565206 0.361254
C20   C     C_R   0.089364 0.420687 0.514137 0.370138
C21   C     C_R   0.186673 0.575862 0.412634 0.358415
C22   C     C_R   0.808220 0.436824 0.393854 0.306964
C23   C     C_R   0.817809 0.561537 0.582591 0.370775
C24   C     C_R   0.182513 0.419125 0.525751 0.317696
C25   C     C_R   0.230809 0.498770 0.480331 -0.415921
C26   C     C_R   0.767451 0.498971 0.493252 -0.407931
C27   C     C_R   0.046123 0.501372 0.458268 -0.159692
C28   C     C_R   0.950148 0.504796 0.464599 -0.192192
H1    H     H_    0.450527 0.070169 0.272088 0.172085
H2    H     H_    0.485012 0.929758 0.740825 0.165112
H3    H     H_    0.550531 0.069668 0.729386 0.167824
H4    H     H_    0.518469 0.932633 0.263098 0.164262
N1    N     N_R   0.500000 0.252470 0.500000 -0.177942
N2    N     N_R   0.500000 0.747530 0.500000 -0.164450
O1    O     O_R   0.369060 0.579480 0.500010 -0.576338
O2    O     O_R   0.630940 0.420520 0.499990 -0.607297
O3    O     O_R   0.630940 0.579480 0.499990 -0.593018
O4    O     O_R   0.369060 0.420520 0.500010 -0.595593
O5    O     O_R   0.500000 0.579460 0.285340 -0.576695
O6    O     O_R   0.500000 0.420540 0.714660 -0.559147
O7    O     O_R   0.500000 0.579460 0.714660 -0.576817
O8    O     O_R   0.500000 0.420540 0.285340 -0.557268
Zn1   Zn    Zn3+2 0.500000 0.606140 0.500000 1.031800
Zn2   Zn    Zn3+2 0.500000 0.393860 0.500000 1.021064
O9    O     O_3   0.456270 0.250792 0.240564 -0.559107
C29   C     C_3   0.363722 0.254075 0.210256 -0.294131
H5    H     H_    0.352748 0.278540 0.092818 0.202401
H6    H     H_    0.331820 0.305763 0.284269 0.177140
H7    H     H_    0.330999 0.184507 0.220335 0.127900
O10   O     O_3   0.497267 0.749817 0.768318 -0.602962
C30   C     C_3   0.583947 0.755151 0.833058 -0.285286
H8    H     H_    0.635661 0.731607 0.753606 0.209538
H9    H     H_    0.587659 0.707888 0.932170 0.212001
H10   H     H_    0.598953 0.827187 0.872813 0.147487
O11   O     O_3   0.554812 0.251993 0.753116 -0.557973
C31   C     C_3   0.648371 0.247161 0.770679 -0.291623
H11   H     H_    0.669048 0.292592 0.866017 0.196068
H12   H     H_    0.682401 0.273539 0.669237 0.150714
H13   H     H_    0.670818 0.174853 0.798116 0.144479
O12   O     O_3   0.510348 0.749868 0.233167 -0.587781
C32   C     C_3   0.442334 0.779219 0.130972 -0.294266
H14   H     H_    0.378882 0.797449 0.186893 0.153848
H15   H     H_    0.427434 0.721051 0.052301 0.220409
H16   H     H_    0.465449 0.839724 0.063641 0.172515
O13   O     O_3   0.053664 0.663697 0.370165 -0.518088
C33   C     C_3   0.006955 0.657616 0.231078 0.149318
H17   H     H_    0.938068 0.632386 0.249205 0.134300
H18   H     H_    0.040491 0.611401 0.149341 0.102793
C34   C     C_3   0.999921 0.754812 0.162086 -0.800151
H19   H     H_    0.067464 0.781438 0.136095 0.255683
H20   H     H_    0.958879 0.752133 0.056820 0.204567
H21   H     H_    0.967722 0.803336 0.241562 0.270651
O14   O     O_3   0.942255 0.379027 0.283396 -0.559919
C35   C     C_3   0.945553 0.416032 0.136018 0.154796
H22   H     H_    0.921833 0.489629 0.124038 0.073821
H23   H     H_    0.902343 0.372862 0.060771 0.156008
C36   C     C_3   0.041089 0.410295 0.082367 -0.912830
H24   H     H_    0.087691 0.442746 0.165277 0.242832
H25   H     H_    0.046956 0.448308 0.974446 0.182760
H26   H     H_    0.060619 0.336087 0.067226 0.262793
O15   O     O_3   0.956403 0.640249 0.629701 -0.516023
C37   C     C_3   0.001791 0.610929 0.762356 0.125935
H27   H     H_    0.035036 0.542242 0.750219 0.083219
H28   H     H_    0.954806 0.607490 0.856953 0.136778
C38   C     C_3   0.074538 0.681543 0.800644 -0.785395
H29   H     H_    0.123247 0.684825 0.708509 0.272973
H30   H     H_    0.110297 0.660323 0.905882 0.185263
H31   H     H_    0.044953 0.751952 0.815883 0.262631
O16   O     O_3   0.040540 0.341216 0.547900 -0.558609
C39   C     C_3   0.020995 0.339984 0.702087 0.098677
H32   H     H_    0.974623 0.397692 0.729538 0.105875
H33   H     H_    0.082977 0.344785 0.772818 0.170387
C40   C     C_3   0.974356 0.248670 0.739438 -0.836750
H34   H     H_    0.911588 0.242374 0.671573 0.247951
H35   H     H_    0.957954 0.247074 0.860499 0.207415
H36   H     H_    0.018420 0.188489 0.714842 0.255556
O17   O     O_3   0.233150 0.649532 0.350629 -0.536563
C41   C     C_3   0.252154 0.627089 0.200062 -0.259963
H37   H     H_    0.314520 0.585446 0.195621 0.155861
H38   H     H_    0.261904 0.692858 0.136444 0.174376
H39   H     H_    0.197297 0.588704 0.140541 0.111659
O18   O     O_3   0.756451 0.379219 0.302157 -0.594498
C42   C     C_3   0.769231 0.284730 0.344569 -0.164774
H40   H     H_    0.783358 0.274883 0.467113 0.117410
H41   H     H_    0.823626 0.253239 0.279016 0.188014
H42   H     H_    0.707163 0.245589 0.316932 0.169032
O19   O     O_3   0.777930 0.620550 0.684069 -0.559876
C43   C     C_3   0.760244 0.569476 0.816479 -0.328827
H43   H     H_    0.817913 0.525822 0.855394 0.119463
H44   H     H_    0.700434 0.524561 0.800477 0.153057
H45   H     H_    0.745980 0.619597 0.907631 0.185833
O20   O     O_3   0.226589 0.345134 0.596873 -0.586471
C44   C     C_3   0.213430 0.260673 0.517290 -0.169697
H46   H     H_    0.192294 0.270317 0.397217 0.135087
H47   H     H_    0.163698 0.216828 0.575262 0.192231
H48   H     H_    0.277185 0.221237 0.519313 0.150526

loop_
_geom_bond_atom_site_label_1
_geom_bond_atom_site_label_2
_ccdc_geom_bond_type
C33   H18   S    
O11   C31   S    
C12   O6    A    
C40   H34   S    
C7    H1    S    
C32   H16   S    
O14   C35   S    
C24   O20   S    
C4    C8    A    
O17   C41   S    
C36   H24   S    
C31   H11   S    
O4    Zn2   S    
C29   H7    S    
C35   H23   S    
C3    C7    A    
C34   H19   S    
C36   H26   S    
C33   C34   S    
C3    N1    A    
C15   C16   T    
C43   H43   S    
C11   O8    A    
C32   H15   S    
C23   C26   A    
C34   H20   S    
C9    C13   A    
C37   H28   S    
C11   C15   S    
C20   C24   A    
C31   H12   S    
C35   C36   S    
C5    N1    A    
O19   C43   S    
O1    Zn1   S    
C44   H48   S    
C38   H30   S    
C33   H17   S    
C40   H35   S    
C13   C14   S    
C1    C25   S    
O7    Zn1   S    
C32   H14   S    
O8    Zn2   S    
C12   C16   S    
O20   C44   S    
O15   C37   S    
C29   H6    S    
C36   H25   S    
C4    N2    A    
C35   H22   S    
C30   H8    S    
C17   C27   A    
C6    O12   S    
C18   C28   A    
C24   C25   A    
C42   H41   S    
C10   C14   A    
O5    Zn1   S    
C38   H29   S    
C3    O9    S    
C17   C21   A    
C6    N2    A    
C4    O10   S    
O12   C32   S    
C30   H9    S    
O3    Zn1   S    
C34   H21   S    
C19   C23   A    
C5    C9    A    
C12   O7    A    
C21   O17   S    
C39   H33   S    
C7    C13   A    
C23   O19   S    
O10   C30   S    
C2    C26   S    
C11   O5    A    
C19   C28   A    
C1    O4    A    
O13   C33   S    
C40   H36   S    
C41   H38   S    
O2    Zn2   S    
C41   H39   S    
C42   H40   S    
C1    O1    A    
C39   C40   S    
C44   H46   S    
C38   H31   S    
C2    O2    A    
C21   C25   A    
C29   H5    S    
C8    C14   A    
C18   C22   A    
N1    Zn2   S    
C5    O11   S    
N2    Zn1   S    
C6    C10   A    
O9    C29   S    
C31   H13   S    
C20   C27   A    
C18   O14   S    
C37   C38   S    
C20   O16   S    
C17   O13   S    
C22   O18   S    
C43   H45   S    
C30   H10   S    
C8    H2    S    
C2    O3    A    
C39   H32   S    
C43   H44   S    
C42   H42   S    
O18   C42   S    
C9    H3    S    
C10   H4    S    
O6    Zn2   S    
C41   H37   S    
C22   C26   A    
C27   C28   S    
C37   H27   S    
O16   C39   S    
C19   O15   S    
C44   H47   S    
