data_mof_unit_31162.cif
_audit_creation_date              2012-12-11T17:36:19-0500
_audit_creation_method            fapswitch 2.2
_symmetry_space_group_name_H-M    P1
_symmetry_Int_Tables_number       1
_space_group_crystal_system       triclinic
_cell_length_a                    25.844463
_cell_length_b                    6.903413
_cell_length_c                    21.723069
_cell_angle_alpha                 89.982551
_cell_angle_beta                  96.092902
_cell_angle_gamma                 89.990542
_cell_volume                      3853.82758198

loop_
_atom_site_label
_atom_site_type_symbol
_atom_type_description
_atom_site_fract_x
_atom_site_fract_y
_atom_site_fract_z
_atom_type_partial_charge
O1    O     O_R   0.208650 0.594520 0.175450 -0.533336
O2    O     O_R   0.791350 0.405480 0.824550 -0.532526
O3    O     O_R   0.291350 0.094520 0.324550 -0.533342
O4    O     O_R   0.708650 0.905480 0.675450 -0.539791
O5    O     O_R   0.192980 0.260780 0.300160 -0.508070
O6    O     O_R   0.807020 0.739220 0.699840 -0.505842
O7    O     O_R   0.307020 0.760780 0.199840 -0.508053
O8    O     O_R   0.692980 0.239220 0.800160 -0.508080
C1    C     C_R   0.179033 0.432339 0.318745 0.716403
C2    C     C_R   0.821377 0.567530 0.681731 0.713372
C3    C     C_R   0.320958 0.932346 0.181222 0.716353
C4    C     C_R   0.679043 0.067653 0.818778 0.716924
O9    O     O_R   0.202550 0.264660 0.174420 -0.542232
O10   O     O_R   0.797450 0.735340 0.825580 -0.538415
O11   O     O_R   0.297450 0.764660 0.325580 -0.542295
O12   O     O_R   0.702550 0.235340 0.674420 -0.542945
O13   O     O_R   0.300990 0.096480 0.197920 -0.546300
O14   O     O_R   0.699010 0.903520 0.802080 -0.546528
O15   O     O_R   0.199010 0.596480 0.302080 -0.546333
O16   O     O_R   0.800990 0.403520 0.697920 -0.547143
C5    C     C_R   0.191087 0.433397 0.151135 0.711107
C6    C     C_R   0.808915 0.566606 0.848862 0.719765
C7    C     C_R   0.308912 0.933304 0.348873 0.711153
C8    C     C_R   0.691073 0.066705 0.651136 0.691587
O17   O     O_3   0.282290 0.427760 0.257860 -0.366194
O18   O     O_3   0.717710 0.572240 0.742140 -0.367895
O19   O     O_3   0.217710 0.927760 0.242140 -0.366143
O20   O     O_3   0.782290 0.072240 0.757860 -0.359007
V1    V     V_3+5 0.244010 0.152080 0.248540 1.476753
V2    V     V_3+5 0.755990 0.847920 0.751460 1.482882
V3    V     V_3+5 0.255990 0.652080 0.251460 1.476690
V4    V     V_3+5 0.744010 0.347920 0.748540 1.476272
C9    C     C_R   0.657624 0.061291 0.591780 -0.054231
C10   C     C_R   0.342354 0.938814 0.408230 -0.058757
C11   C     C_R   0.842355 0.560626 0.908206 -0.060743
C12   C     C_R   0.157650 0.439392 0.091788 -0.058575
C13   C     C_R   0.647503 0.123716 0.481443 -0.030773
C14   C     C_R   0.352423 0.877294 0.518617 -0.035504
C15   C     C_R   0.852131 0.616815 0.018863 -0.034532
C16   C     C_R   0.147877 0.383235 0.981128 -0.035405
C17   C     C_R   0.678695 0.114192 0.537842 -0.197926
C18   C     C_R   0.321237 0.886688 0.462209 -0.187567
C19   C     C_R   0.821033 0.609142 0.962366 -0.189705
C20   C     C_R   0.178971 0.390849 0.037630 -0.187909
C21   C     C_R   0.604396 0.018039 0.589564 -0.214115
C22   C     C_R   0.395603 0.981665 0.410424 -0.217479
C23   C     C_R   0.895710 0.519770 0.910296 -0.211396
C24   C     C_R   0.104300 0.480338 0.089692 -0.217098
C25   C     C_R   0.570885 0.029406 0.533110 0.082488
C26   C     C_R   0.429091 0.970689 0.466902 0.084290
C27   C     C_R   0.929098 0.528970 0.966876 0.083076
C28   C     C_R   0.070914 0.471169 0.033110 0.084426
C29   C     C_R   0.593498 0.082817 0.478569 0.085082
C30   C     C_R   0.406452 0.917740 0.521469 0.085277
C31   C     C_R   0.906255 0.578122 0.021638 0.085506
C32   C     C_R   0.093757 0.421997 0.978350 0.084601
C33   C     C_R   0.515780 0.992018 0.529134 0.066107
C34   C     C_R   0.484194 0.008080 0.470879 0.066416
C35   C     C_R   0.984281 0.493249 0.970789 0.065401
C36   C     C_R   0.015732 0.506924 0.029194 0.066347
C37   C     C_R   0.508786 0.060556 0.418438 -0.185622
C38   C     C_R   0.491175 0.939783 0.581589 -0.185803
C39   C     C_R   0.990928 0.555371 0.081842 -0.185275
C40   C     C_R   0.009086 0.444822 0.918140 -0.182416
C41   C     C_R   0.561816 0.096417 0.422243 -0.187194
C42   C     C_R   0.438130 0.904207 0.577799 -0.186620
C43   C     C_R   0.937815 0.589529 0.078099 -0.186616
C44   C     C_R   0.062198 0.410636 0.921886 -0.185688
H1    H     H_    0.577843 0.136524 0.379961 0.143387
H2    H     H_    0.422087 0.864407 0.620099 0.143250
H3    H     H_    0.921618 0.626419 0.120549 0.143101
H4    H     H_    0.078396 0.373751 0.879435 0.144103
H5    H     H_    0.409536 0.018444 0.366936 0.094796
H6    H     H_    0.590495 0.980615 0.633017 0.095268
H7    H     H_    0.090237 0.514625 0.133299 0.094510
H8    H     H_    0.909775 0.485523 0.866687 0.099897
H9    H     H_    0.280135 0.851923 0.460139 0.125468
H10   H     H_    0.719770 0.149434 0.539937 0.113384
H11   H     H_    0.220167 0.357681 0.039618 0.125636
H12   H     H_    0.779835 0.642255 0.960381 0.125419
H13   H     H_    0.488139 0.076222 0.373045 0.125710
H14   H     H_    0.511813 0.924325 0.626995 0.125670
H15   H     H_    0.011459 0.568913 0.127368 0.125637
H16   H     H_    0.988557 0.431311 0.872613 0.128784
C45   C     C_R   0.415616 0.800870 0.062813 -0.216632
C46   C     C_R   0.584384 0.199130 0.937187 -0.216524
C47   C     C_R   0.084218 0.300824 0.436920 -0.216572
C48   C     C_R   0.935894 0.697925 0.589943 -0.218479
H17   H     H_    0.425253 0.678977 0.034724 0.108779
H18   H     H_    0.574748 0.321023 0.965277 0.108741
H19   H     H_    0.074537 0.178920 0.464998 0.108766
H20   H     H_    0.961144 0.819487 0.582883 0.108578
C49   C     C_R   0.375763 0.782743 0.102481 0.354304
C50   C     C_R   0.624238 0.217257 0.897520 0.354235
C51   C     C_R   0.124130 0.282687 0.397352 0.354265
C52   C     C_R   0.896849 0.716085 0.630705 0.350102
C53   C     C_R   0.363229 0.942792 0.139077 -0.084711
C54   C     C_R   0.636772 0.057207 0.860923 -0.084950
C55   C     C_R   0.136719 0.442788 0.360795 -0.084680
C56   C     C_R   0.863822 0.556553 0.639718 -0.085325
C57   C     C_R   0.390943 0.117206 0.134341 -0.246258
C58   C     C_R   0.609057 0.882795 0.865658 -0.246243
C59   C     C_R   0.109001 0.617250 0.365451 -0.246379
C60   C     C_R   0.871419 0.382718 0.607702 -0.236486
H21   H     H_    0.382500 0.242125 0.161710 0.167298
H22   H     H_    0.617500 0.757875 0.838289 0.167270
H23   H     H_    0.117488 0.742198 0.338099 0.167392
H24   H     H_    0.846845 0.258141 0.613099 0.164788
C61   C     C_R   0.430117 0.133225 0.094694 -0.143062
C62   C     C_R   0.569883 0.866775 0.905306 -0.142991
C63   C     C_R   0.069771 0.633280 0.405004 -0.143188
C64   C     C_R   0.910337 0.366793 0.567749 -0.142826
H25   H     H_    0.450598 0.269447 0.092099 0.124055
H26   H     H_    0.549401 0.730554 0.907901 0.124081
H27   H     H_    0.049291 0.769540 0.407564 0.124377
H28   H     H_    0.915068 0.231141 0.543889 0.125518
C65   C     C_R   0.442704 0.975410 0.058727 0.096973
C66   C     C_R   0.557297 0.024590 0.941273 0.096946
C67   C     C_R   0.057136 0.475416 0.440933 0.096850
C68   C     C_R   0.942708 0.524129 0.558517 0.096361
C69   C     C_1   0.483134 0.992768 0.017317 -0.030261
C70   C     C_1   0.516867 0.007232 0.982684 -0.030284
C71   C     C_1   0.016700 0.492807 0.482293 -0.030321
C72   C     C_1   0.983004 0.507160 0.516954 -0.029865
C73   C     C_1   0.672170 0.179224 0.427362 0.293356
N1    N     N_1   0.691952 0.223682 0.384129 -0.324244
C74   C     C_1   0.327718 0.822483 0.572738 0.297054
N2    N     N_1   0.307904 0.778585 0.616002 -0.322503
C75   C     C_1   0.827222 0.667810 0.073183 0.297092
N3    N     N_1   0.807244 0.708649 0.116607 -0.322907
C76   C     C_1   0.172786 0.332225 0.926810 0.297492
N4    N     N_1   0.192762 0.291373 0.883386 -0.322014
O21   O     O_3   0.348044 0.612305 0.104797 -0.647309
H29   H     H_    0.360875 0.517647 0.075630 0.281107
O22   O     O_3   0.651957 0.387695 0.895204 -0.647525
H30   H     H_    0.639126 0.482353 0.924371 0.281037
O23   O     O_3   0.151854 0.112205 0.395101 -0.647211
H31   H     H_    0.138971 0.017511 0.424233 0.281103
O24   O     O_3   0.891123 0.886637 0.662516 -0.644450
H32   H     H_    0.917549 0.981228 0.651617 0.281403

loop_
_geom_bond_atom_site_label_1
_geom_bond_atom_site_label_2
_ccdc_geom_bond_type
O17   V3    S    
C55   C59   A    
C48   C52   A    
O1    C5    A    
C47   H19   S    
O19   V1    S    
C9    C21   A    
O3    C7    A    
C10   C18   A    
C56   C60   A    
O15   V3    S    
C62   C66   A    
C52   O24   S    
C14   C74   S    
C61   C65   A    
C71   C72   T    
C5    C12   S    
C42   H2    S    
O7    C3    A    
C6    C11   S    
C35   C40   A    
C26   C30   A    
C36   C39   A    
C40   C44   A    
O2    V4    S    
O9    V1    S    
C23   H8    S    
C14   C18   A    
C49   O21   S    
O4    C8    A    
C51   C55   A    
C43   H3    S    
C50   C54   A    
C57   C61   A    
C60   H24   S    
O1    V3    S    
O13   V1    S    
C59   C63   A    
C66   C70   S    
O3    V1    S    
C65   C69   S    
C40   H16   S    
C46   C50   A    
C45   C49   A    
C1    O15   A    
C15   C31   A    
C48   H20   S    
C2    O16   A    
C16   C32   A    
C47   C51   A    
O2    C6    A    
C12   C24   A    
C10   C22   A    
C21   C25   A    
C48   C68   A    
C11   C19   A    
C62   H26   S    
C16   C20   A    
O5    V1    S    
C44   H4    S    
C13   C29   A    
C34   C37   A    
O11   C7    A    
C38   H14   S    
C11   C23   A    
C35   C36   A    
O12   C8    A    
O17   V1    S    
C24   H7    S    
O10   V2    S    
C13   C73   S    
C57   H21   S    
C39   C43   A    
C51   O23   S    
O7    V3    S    
C38   C42   A    
O19   V3    S    
C26   C34   A    
O22   H30   S    
C46   H18   S    
C17   H10   S    
C60   C64   A    
C45   H17   S    
O18   V4    S    
C15   C19   A    
C15   C75   S    
C33   C38   A    
C19   H12   S    
C32   C44   A    
C39   H15   S    
C21   H6    S    
O8    V4    S    
C37   H13   S    
C2    C56   S    
C47   C67   A    
C37   C41   A    
C1    C55   S    
C63   H27   S    
C31   C43   A    
C14   C30   A    
O20   V4    S    
O8    C4    A    
C7    C10   S    
C50   O22   S    
O9    C5    A    
C46   C66   A    
C45   C65   A    
C69   C70   T    
O14   V2    S    
C63   C67   A    
O6    V2    S    
C16   C76   S    
O18   V2    S    
C67   C71   S    
C73   N1    T    
C12   C20   A    
C27   C35   A    
C76   N4    T    
C49   C53   A    
C64   H28   S    
C29   C41   A    
C64   C68   A    
C75   N3    T    
O16   V4    S    
C3    O13   A    
C4    C54   S    
C20   H11   S    
O5    C1    A    
O6    C2    A    
C25   C33   A    
C23   C27   A    
O24   H32   S    
O11   V3    S    
C30   C42   A    
C61   H25   S    
O12   V4    S    
O23   H31   S    
C22   C26   A    
C8    C9    S    
C3    C53   S    
C9    C17   A    
O10   C6    A    
O20   V2    S    
C54   C58   A    
C33   C34   A    
O21   H29   S    
C41   H1    S    
C52   C56   A    
C58   H22   S    
C27   C31   A    
C13   C17   A    
O4    V2    S    
C25   C29   A    
C58   C62   A    
C68   C72   S    
C28   C32   A    
C24   C28   A    
C18   H9    S    
C28   C36   A    
C4    O14   A    
C59   H23   S    
C22   H5    S    
C53   C57   A    
C74   N2    T    
