data_mof_unit_45009.cif
_audit_creation_date              2012-12-10T16:50:10-0500
_audit_creation_method            fapswitch 2.2
_symmetry_space_group_name_H-M    P1
_symmetry_Int_Tables_number       1
_space_group_crystal_system       triclinic
_cell_length_a                    7.804097
_cell_length_b                    8.55931
_cell_length_c                    10.598408
_cell_angle_alpha                 91.339817
_cell_angle_beta                  85.38529
_cell_angle_gamma                 93.619732
_cell_volume                      704.127175636

loop_
_atom_site_label
_atom_site_type_symbol
_atom_type_description
_atom_site_fract_x
_atom_site_fract_y
_atom_site_fract_z
_atom_type_partial_charge
C1    C     C_R   0.545635 0.794589 0.496776 0.917003
C2    C     C_R   0.454364 0.205403 0.503017 0.976556
C3    C     C_R   0.499307 0.503269 0.260743 0.870696
C4    C     C_R   0.409453 0.786040 0.879315 -0.231233
C5    C     C_R   0.360110 0.917327 0.950312 -0.266790
C6    C     C_R   0.354981 0.916504 0.082933 0.505886
C7    C     C_R   0.400538 0.783137 0.142702 -0.177575
C8    C     C_R   0.449461 0.648738 0.071750 -0.002819
C9    C     C_R   0.453760 0.650171 0.939509 0.097987
C10   C     C_R   0.506826 0.515712 0.871395 -0.058225
C11   C     C_R   0.561229 0.385959 0.929716 -0.227519
C12   C     C_R   0.557820 0.384819 0.058648 -0.193572
C13   C     C_R   0.499255 0.513060 0.128557 -0.057410
C14   C     C_2   0.569601 0.958123 0.494634 -0.379824
C15   C     C_2   0.430353 0.041833 0.504613 -0.342821
C16   C     C_R   0.502158 0.504776 0.739216 0.839315
H1    H     H_    0.602418 0.284165 0.875291 0.153210
H2    H     H_    0.935921 0.301851 0.342535 0.345442
H3    H     H_    0.986876 0.618810 0.594739 0.147196
H4    H     H_    0.414833 0.793018 0.777315 0.161579
H5    H     H_    0.327194 0.019926 0.901729 0.140109
H6    H     H_    0.398775 0.787087 0.244787 0.165116
H7    H     H_    0.598114 0.282700 0.104412 0.171003
H8    H     H_    0.701159 0.009080 0.484991 0.191305
H9    H     H_    0.298794 0.990868 0.514134 0.188974
H10   H     H_    0.277162 0.127472 0.100514 0.334813
N1    N     N_2   0.950330 0.457950 0.466250 0.097379
N2    N     N_2   0.049670 0.542050 0.533750 -0.071765
O1    O     O_R   0.389250 0.738570 0.508280 -0.632352
O2    O     O_3   0.029828 0.357201 0.386597 -0.610005
O3    O     O_R   0.678390 0.711630 0.486650 -0.633442
O4    O     O_R   0.355400 0.513470 0.694050 -0.625924
O5    O     O_R   0.644540 0.486530 0.672420 -0.634394
O6    O     O_R   0.321610 0.288370 0.513350 -0.561466
O7    O     O_R   0.610750 0.261430 0.491720 -0.632460
O8    O     O_R   0.355460 0.513470 0.327580 -0.561806
O9    O     O_R   0.644600 0.486530 0.305950 -0.624630
O10   O     O_3   0.307327 0.043958 0.156624 -0.773933
Zn1   Zn    Zn3+2 0.306930 0.517990 0.514440 1.018539
Zn2   Zn    Zn3+2 0.693070 0.482010 0.485560 0.977858

loop_
_geom_bond_atom_site_label_1
_geom_bond_atom_site_label_2
_ccdc_geom_bond_type
C2    O7    A    
C8    C9    A    
C11   C12   A    
C6    O10   S    
C6    C7    A    
H2    O2    S    
C16   O5    A    
C16   O4    A    
C7    H6    S    
C9    C10   A    
C3    C13   S    
N1    Zn2   S    
C2    O6    A    
C1    O1    A    
O7    Zn2   S    
C7    C8    A    
C10   C16   S    
C12   C13   A    
N1    O2    S    
C2    C15   S    
C12   H7    S    
O1    Zn1   S    
C8    C13   A    
C3    O8    A    
O9    Zn2   S    
H3    N2    S    
C5    C6    A    
C15   H9    S    
O5    Zn2   S    
C10   C11   A    
O6    Zn1   S    
C4    H4    S    
C1    O3    A    
C5    H5    S    
O3    Zn2   S    
C3    O9    A    
O4    Zn1   S    
C14   H8    S    
N1    N2    D    
C14   C15   D    
C11   H1    S    
C1    C14   S    
N2    Zn1   S    
C4    C9    A    
O8    Zn1   S    
H10   O10   S    
C4    C5    A    
