data_mof_unit_63386.cif
_audit_creation_date              2012-12-10T18:21:50-0500
_audit_creation_method            fapswitch 2.2
_symmetry_space_group_name_H-M    P1
_symmetry_Int_Tables_number       1
_space_group_crystal_system       triclinic
_cell_length_a                    19.324209
_cell_length_b                    10.657237
_cell_length_c                    9.488587
_cell_angle_alpha                 91.042033
_cell_angle_beta                  90.811377
_cell_angle_gamma                 90.11181
_cell_volume                      1953.5811548

loop_
_atom_site_label
_atom_site_type_symbol
_atom_type_description
_atom_site_fract_x
_atom_site_fract_y
_atom_site_fract_z
_atom_type_partial_charge
C1    C     C_R   0.500161 0.260007 0.498870 0.910378
C2    C     C_R   0.499839 0.739993 0.501130 0.910378
C3    C     C_3   0.556286 0.043109 0.570376 0.306068
C4    C     C_3   0.443713 0.956891 0.429623 0.306073
C5    C     C_3   0.557500 0.957001 0.438091 0.320127
C6    C     C_3   0.442498 0.042999 0.561908 0.320133
C7    C     C_3   0.499733 0.876340 0.502745 -0.290300
C8    C     C_3   0.500266 0.123660 0.497255 -0.290301
C9    C     C_3   0.498540 0.963965 0.634219 0.230179
C10   C     C_3   0.501458 0.036035 0.365780 0.230180
C11   C     C_3   0.528682 0.600827 0.052537 0.336435
C12   C     C_3   0.471318 0.399173 0.947463 0.336435
C13   C     C_3   0.466274 0.595293 0.951628 0.345961
C14   C     C_3   0.533726 0.404707 0.048372 0.345964
C15   C     C_3   0.562492 0.505591 0.953050 0.314927
C16   C     C_3   0.437508 0.494409 0.046950 0.314924
C17   C     C_R   0.367932 0.503056 0.499243 0.784556
C18   C     C_R   0.632068 0.496944 0.500757 0.784554
C19   C     C_R   0.254875 0.582436 0.594160 0.387477
C20   C     C_R   0.745125 0.417559 0.405844 0.387475
C21   C     C_R   0.182912 0.575023 0.593918 -0.231541
C22   C     C_R   0.817088 0.424971 0.406087 -0.231538
C23   C     C_R   0.146659 0.499265 0.495073 -0.059541
C24   C     C_R   0.853341 0.500736 0.504927 -0.059544
C25   C     C_R   0.183799 0.427363 0.395236 0.431311
C26   C     C_R   0.816200 0.572644 0.604760 0.431312
C27   C     C_R   0.256420 0.432355 0.397538 -0.306283
C28   C     C_R   0.743579 0.567651 0.602458 -0.306277
C29   C     C_R   0.292198 0.507579 0.496906 -0.138409
C30   C     C_R   0.707802 0.492421 0.503094 -0.138410
C31   C     C_R   0.929790 0.501593 0.502433 0.450299
C32   C     C_R   0.070210 0.498406 0.497570 0.450298
Cu1   Cu    Cu3+1 0.500020 0.499990 0.643150 1.075609
Cu2   Cu    Cu3+1 0.499980 0.500010 0.356850 1.075608
H1    H     H_    0.155135 0.632646 0.669369 0.196258
H2    H     H_    0.844865 0.367343 0.330640 0.196257
H3    H     H_    0.285272 0.374932 0.323504 0.173904
H4    H     H_    0.714728 0.625078 0.676489 0.173897
N1    N     N_R   0.032375 0.461161 0.382738 -0.139418
N2    N     N_R   0.967625 0.538838 0.617264 -0.139421
N3    N     N_R   0.963599 0.462423 0.385223 -0.246210
N4    N     N_R   0.036401 0.537577 0.614780 -0.246212
N5    N     N_3   0.500050 0.499970 0.858290 -0.273847
N6    N     N_3   0.499950 0.500030 0.141710 -0.273846
O1    O     O_R   0.500030 0.316850 0.620870 -0.515593
O2    O     O_R   0.499970 0.683150 0.379130 -0.515593
O3    O     O_R   0.500000 0.316860 0.379090 -0.538556
O4    O     O_R   0.500000 0.683140 0.620910 -0.538556
O5    O     O_R   0.400160 0.499980 0.620930 -0.556038
O6    O     O_R   0.599840 0.500020 0.379070 -0.556040
O7    O     O_R   0.400130 0.499990 0.379150 -0.532348
O8    O     O_R   0.599870 0.500010 0.620850 -0.532346
O9    O     O_3   0.285944 0.666050 0.688351 -0.736940
H5    H     H_    0.331837 0.690214 0.652564 0.344046
O10   O     O_3   0.714056 0.333940 0.311655 -0.736936
H6    H     H_    0.668161 0.309784 0.347442 0.344042
O11   O     O_3   0.629111 0.515107 0.894835 -0.573965
C33   C     C_3   0.680698 0.498830 0.999734 -0.242196
H7    H     H_    0.693708 0.398095 0.009163 0.211205
H8    H     H_    0.666524 0.538229 0.104904 0.203458
H9    H     H_    0.728295 0.547905 0.966639 0.164997
O12   O     O_3   0.370889 0.484892 0.105165 -0.573968
C34   C     C_3   0.319302 0.501169 0.000266 -0.242188
H10   H     H_    0.333477 0.461777 0.895095 0.203462
H11   H     H_    0.306288 0.601903 0.990845 0.211203
H12   H     H_    0.271706 0.452087 0.033358 0.164990
O13   O     O_3   0.148737 0.350641 0.299309 -0.703028
H13   H     H_    0.182544 0.307515 0.237536 0.315985
O14   O     O_3   0.851262 0.649372 0.700682 -0.703027
H14   H     H_    0.817455 0.692503 0.762452 0.315985
O15   O     O_3   0.615180 0.900818 0.372913 -0.557151
C35   C     C_3   0.661755 0.994483 0.331219 -0.237620
H15   H     H_    0.689535 0.036337 0.423834 0.199075
H16   H     H_    0.635918 0.069195 0.269860 0.197842
H17   H     H_    0.701020 0.950452 0.262124 0.171208
O16   O     O_3   0.384818 0.099184 0.627084 -0.557150
C36   C     C_3   0.338245 0.005520 0.668785 -0.237631
H18   H     H_    0.364082 0.930823 0.730168 0.197841
H19   H     H_    0.310472 0.963644 0.576172 0.199076
H20   H     H_    0.298973 0.049556 0.737860 0.171211
O17   O     O_3   0.613881 0.098893 0.640055 -0.580470
C37   C     C_3   0.650831 0.007140 0.714988 -0.306714
H21   H     H_    0.702561 0.045734 0.743826 0.182504
H22   H     H_    0.659128 0.919582 0.651695 0.185493
H23   H     H_    0.624284 0.985555 0.814502 0.166056
O18   O     O_3   0.386118 0.901107 0.359944 -0.580473
C38   C     C_3   0.349168 0.992860 0.285012 -0.306718
H24   H     H_    0.340868 0.080414 0.348308 0.185498
H25   H     H_    0.297439 0.954263 0.256169 0.182504
H26   H     H_    0.375716 0.014449 0.185501 0.166062
O19   O     O_3   0.496607 0.922134 0.772388 -0.722876
H27   H     H_    0.493652 0.999127 0.831726 0.321886
O20   O     O_3   0.503391 0.077866 0.227612 -0.722872
H28   H     H_    0.506351 0.000872 0.168274 0.321887
O21   O     O_3   0.428553 0.694803 0.891884 -0.530501
C39   C     C_3   0.409998 0.781995 0.998552 -0.202188
H29   H     H_    0.453484 0.847009 0.022197 0.187464
H30   H     H_    0.393337 0.737305 0.097660 0.193861
H31   H     H_    0.365859 0.838636 0.959844 0.152776
O22   O     O_3   0.571447 0.305197 0.108118 -0.530502
C40   C     C_3   0.590001 0.218004 0.001450 -0.202195
H32   H     H_    0.606664 0.262692 0.902344 0.193860
H33   H     H_    0.546514 0.152993 0.977804 0.187465
H34   H     H_    0.634138 0.161359 0.040162 0.152779
O23   O     O_3   0.557936 0.709052 0.117859 -0.528424
C41   C     C_3   0.594938 0.779414 0.019192 -0.255196
H35   H     H_    0.574320 0.770174 0.909375 0.211202
H36   H     H_    0.650290 0.752491 0.021711 0.168836
H37   H     H_    0.592335 0.879993 0.050242 0.163972
O24   O     O_3   0.442064 0.290947 0.882140 -0.528426
C42   C     C_3   0.405061 0.220586 0.980807 -0.255189
H38   H     H_    0.349709 0.247505 0.978282 0.168834
H39   H     H_    0.425677 0.229830 0.090625 0.211200
H40   H     H_    0.407667 0.120006 0.949760 0.163972

loop_
_geom_bond_atom_site_label_1
_geom_bond_atom_site_label_2
_ccdc_geom_bond_type
O10   H6    S    
C34   H11   S    
O20   H28   S    
C27   C29   A    
C1    C8    S    
Cu1   O1    S    
O21   C39   S    
C25   O13   S    
C38   H24   S    
C17   O7    A    
C6    C9    S    
C12   O24   S    
O17   C37   S    
C18   O8    A    
N1    N3    A    
C20   C30   A    
O9    H5    S    
C2    O2    A    
Cu1   O8    S    
Cu2   O7    S    
C40   H32   S    
C13   O21   S    
C19   C21   A    
C24   C26   A    
C12   N5    S    
C35   H17   S    
C4    O18   S    
C41   H35   S    
C33   H8    S    
C39   H31   S    
C17   C29   S    
C31   N2    A    
C32   N1    A    
O24   C42   S    
C2    C7    S    
C11   C15   S    
C12   C16   S    
C39   H30   S    
C3    O17   S    
Cu2   O2    S    
C16   N6    S    
C19   O9    S    
C33   H9    S    
N2    N4    A    
C34   H12   S    
C40   H33   S    
C15   O11   S    
C9    O19   S    
C16   O12   S    
C4    C7    S    
C36   H19   S    
C26   O14   S    
Cu2   O6    S    
O13   H13   S    
Cu1   N5    S    
Cu2   N6    S    
O16   C36   S    
C35   H16   S    
C3    C8    S    
C17   O5    A    
O19   H27   S    
C5    C7    S    
O18   C38   S    
C1    O3    A    
C6    C8    S    
C10   O20   S    
C2    O4    A    
C33   H7    S    
C36   H18   S    
C11   O23   S    
O12   C34   S    
C3    C9    S    
C28   H4    S    
C39   H29   S    
Cu1   Cu2   S    
C11   N6    S    
C42   H39   S    
C6    O16   S    
C18   C30   S    
C4    C6    S    
C12   C14   S    
C40   H34   S    
C37   H22   S    
C21   C23   A    
C22   C24   A    
C38   H26   S    
C4    C10   S    
C19   C29   A    
C13   N5    S    
C18   O6    A    
C14   N6    S    
C36   H20   S    
C7    C9    S    
C31   N3    A    
C42   H38   S    
C20   C22   A    
C35   H15   S    
C3    C5    S    
C14   O22   S    
C21   H1    S    
C25   C27   A    
C37   H23   S    
C22   H2    S    
O23   C41   S    
C26   C28   A    
C23   C32   S    
C38   H25   S    
C24   C31   S    
C15   N5    S    
C5    C10   S    
C5    O15   S    
C11   C13   S    
C1    O1    A    
O11   C33   S    
C41   H36   S    
C27   H3    S    
C28   C30   A    
O22   C40   S    
C42   H40   S    
C20   O10   S    
C23   C25   A    
O14   H14   S    
C34   H10   S    
O15   C35   S    
C8    C10   S    
C37   H21   S    
C13   C16   S    
Cu1   O4    S    
C32   N4    A    
C14   C15   S    
Cu2   O3    S    
Cu1   O5    S    
C41   H37   S    
