data_mof_unit_54978.cif
_audit_creation_date              2013-03-05T16:01:26-0500
_audit_creation_method            fapswitch 2.2
_symmetry_space_group_name_H-M    P1
_symmetry_Int_Tables_number       1
_space_group_crystal_system       triclinic
_cell_length_a                    14.731627
_cell_length_b                    14.77039
_cell_length_c                    19.393371
_cell_angle_alpha                 74.664416
_cell_angle_beta                  104.009481
_cell_angle_gamma                 116.936672
_cell_volume                      3591.18844286

loop_
_atom_site_label
_atom_site_type_symbol
_atom_site_description
_atom_site_fract_x
_atom_site_fract_y
_atom_site_fract_z
_atom_type_partial_charge
O1    O     O_R   0.977910 0.338110 0.524620 -0.558995
O2    O     O_R   0.022090 0.661890 0.475380 -0.548055
O3    O     O_R   0.839850 0.379180 0.493080 -0.588111
O4    O     O_R   0.160150 0.620820 0.506920 -0.592885
C1    C     C_R   0.878531 0.310820 0.512203 0.838492
C2    C     C_R   0.121323 0.688713 0.490464 0.806577
O5    O     O_R   0.069040 0.479450 0.615630 -0.578197
O6    O     O_R   0.930960 0.520550 0.384370 -0.585557
O7    O     O_R   0.930990 0.520520 0.584090 -0.562116
O8    O     O_R   0.069010 0.479480 0.415910 -0.558931
C3    C     C_R   0.003412 0.504642 0.632128 0.794315
C4    C     C_R   0.996798 0.495782 0.367889 0.814103
Cu1   Cu    Cu3+1 0.081740 0.475680 0.518680 0.960036
Cu2   Cu    Cu3+1 0.918260 0.524320 0.481320 0.964648
C5    C     C_R   0.058453 0.460089 0.763276 -0.208032
C6    C     C_R   0.970048 0.560147 0.236303 -0.234332
H1    H     H_    0.098648 0.422121 0.750895 0.158215
H2    H     H_    0.955020 0.619464 0.246875 0.155945
C7    C     C_R   0.056192 0.455211 0.835553 -0.151259
C8    C     C_R   0.971311 0.560333 0.164974 -0.138688
H3    H     H_    0.094765 0.413725 0.876708 0.155679
H4    H     H_    0.955788 0.619024 0.123484 0.156663
C9    C     C_R   0.004735 0.503040 0.854328 0.031413
C10   C     C_R   0.994316 0.487649 0.147561 0.029207
C11   C     C_R   0.957881 0.558268 0.799416 -0.197178
C12   C     C_R   0.013960 0.412943 0.203122 -0.196777
H5    H     H_    0.920527 0.598233 0.813336 0.181169
H6    H     H_    0.028879 0.354582 0.189847 0.183691
C13   C     C_R   0.960940 0.565338 0.726469 -0.013626
C14   C     C_R   0.010383 0.410232 0.275490 -0.008175
C15   C     C_R   0.008466 0.511714 0.707822 -0.104149
C16   C     C_R   0.990957 0.487176 0.292545 -0.099368
N1    N     N_R   0.964420 0.555826 0.949012 -0.236763
N2    N     N_R   0.033411 0.431509 0.053360 -0.234522
N3    N     N_R   0.961976 0.552113 0.017775 -0.239849
N4    N     N_R   0.036099 0.435427 0.984436 -0.238636
C17   C     C_R   0.996411 0.490005 0.071372 0.418683
C18   C     C_R   0.001691 0.497788 0.930877 0.420559
C19   C     C_R   0.807460 0.199973 0.526917 -0.081726
C20   C     C_R   0.192059 0.797432 0.495338 -0.091284
C21   C     C_R   0.775753 0.017352 0.559343 0.173766
C22   C     C_R   0.223947 0.977509 0.482952 0.194372
C23   C     C_R   0.840636 0.121815 0.537824 -0.185782
C24   C     C_R   0.156115 0.874272 0.479397 -0.184011
C25   C     C_R   0.705136 0.172309 0.531628 -0.260246
C26   C     C_R   0.296734 0.823929 0.518479 -0.225825
C27   C     C_R   0.640404 0.070765 0.559619 0.044418
C28   C     C_R   0.362624 0.920511 0.537717 0.045621
C29   C     C_R   0.676157 0.991484 0.576340 0.041157
C30   C     C_R   0.326947 0.000248 0.519794 0.013536
C31   C     C_R   0.536948 0.045288 0.564603 -0.006795
C32   C     C_R   0.466592 0.941840 0.568024 0.025885
C33   C     C_R   0.503796 0.865798 0.606173 0.055953
C34   C     C_R   0.500166 0.117641 0.567315 0.069419
C35   C     C_R   0.610200 0.891049 0.609239 -0.064687
C36   C     C_R   0.395255 0.097110 0.541141 -0.028060
H7    H     H_    0.327068 0.769128 0.520126 0.155932
H8    H     H_    0.675974 0.231262 0.513478 0.166661
H9    H     H_    0.075571 0.855049 0.460397 0.143697
H10   H     H_    0.916100 0.141887 0.526115 0.155911
N5    N     N_R   0.795420 0.560800 0.453240 -0.194749
N6    N     N_R   0.204580 0.439200 0.546760 -0.194791
C37   C     C_R   0.724250 0.684608 0.384609 0.009652
C38   C     C_R   0.306723 0.370736 0.645143 0.015611
C39   C     C_R   0.793045 0.637959 0.393561 0.331837
C40   C     C_R   0.209546 0.366353 0.607787 0.314138
C41   C     C_R   0.724093 0.524493 0.499446 -0.025934
C42   C     C_R   0.289746 0.499541 0.513581 -0.045738
C43   C     C_R   0.641358 0.556089 0.483885 -0.051050
C44   C     C_R   0.383857 0.487526 0.539103 -0.038760
C45   C     C_R   0.638934 0.630777 0.421693 0.067217
C46   C     C_R   0.393077 0.426224 0.607871 0.111108
C47   C     C_R   0.559928 0.515844 0.526711 0.137080
C48   C     C_R   0.469091 0.534896 0.499227 0.141944
C49   C     C_R   0.465083 0.597908 0.431484 -0.209378
C50   C     C_R   0.567807 0.460287 0.596760 -0.176568
C51   C     C_R   0.548696 0.646438 0.394658 -0.197173
C52   C     C_R   0.487067 0.417707 0.636609 -0.132189
H11   H     H_    0.538695 0.691843 0.341970 0.140158
H12   H     H_    0.499563 0.375173 0.689792 0.149723
H13   H     H_    0.281754 0.555705 0.467116 0.138208
H14   H     H_    0.729406 0.466997 0.545984 0.129548
H15   H     H_    0.398498 0.612367 0.405129 0.131587
H16   H     H_    0.637046 0.450112 0.622636 0.144542
C53   C     C_3   0.117323 0.263434 0.621421 -0.370356
C54   C     C_3   0.052676 0.253891 0.676287 -0.779973
H17   H     H_    0.101661 0.282143 0.725851 0.225076
H18   H     H_    0.002949 0.295372 0.654322 0.264447
H19   H     H_    0.001024 0.171302 0.691828 0.235553
H20   H     H_    0.071221 0.242711 0.569701 0.215521
H21   H     H_    0.143406 0.200204 0.641522 0.168956
C55   C     C_3   0.841944 0.658545 0.326902 -0.301680
C56   C     C_3   0.954527 0.737846 0.328671 -0.773619
H22   H     H_    0.974724 0.788324 0.367698 0.244195
H23   H     H_    0.009496 0.702005 0.342673 0.241870
H24   H     H_    0.967247 0.787033 0.274507 0.207605
H25   H     H_    0.825728 0.585707 0.311296 0.195366
H26   H     H_    0.799019 0.688331 0.278331 0.155743
C57   C     C_3   0.738462 0.789205 0.334577 -0.394435
C58   C     C_3   0.844907 0.876790 0.348679 -0.828199
H27   H     H_    0.884094 0.860917 0.404129 0.252623
H28   H     H_    0.892805 0.890173 0.307829 0.254785
H29   H     H_    0.837813 0.950378 0.342584 0.242832
H30   H     H_    0.719256 0.781605 0.276843 0.193999
H31   H     H_    0.685083 0.817957 0.342972 0.207152
C59   C     C_3   0.316695 0.312470 0.722583 -0.422832
C60   C     C_3   0.371102 0.387371 0.775910 -0.805818
H32   H     H_    0.449008 0.443464 0.763336 0.262522
H33   H     H_    0.325200 0.430620 0.774139 0.251157
H34   H     H_    0.378813 0.343525 0.831509 0.243642
H35   H     H_    0.242064 0.258283 0.740720 0.222319
H36   H     H_    0.356743 0.262559 0.727523 0.205484
C61   C     C_2   0.918461 0.633824 0.672613 0.835068
O9    O     O_2   0.966073 0.693823 0.623557 -0.585987
O10   O     O_R   0.825868 0.632838 0.679957 -0.772366
H37   H     H_    0.804876 0.683006 0.640227 0.345949
C62   C     C_2   0.021452 0.322884 0.330472 0.836921
O11   O     O_2   0.972699 0.285806 0.381470 -0.616879
O12   O     O_R   0.084683 0.279973 0.322284 -0.772652
H38   H     H_    0.084700 0.220161 0.362662 0.327265
C63   C     C_2   0.653168 0.817153 0.653324 0.810523
O13   O     O_2   0.620459 0.730859 0.639132 -0.610293
O14   O     O_R   0.729789 0.846020 0.712129 -0.762766
H39   H     H_    0.752891 0.789196 0.738341 0.343869
C64   C     C_2   0.357429 0.173301 0.543180 0.833657
O15   O     O_2   0.393705 0.260969 0.508809 -0.612259
O16   O     O_R   0.281280 0.144871 0.585598 -0.790458
H40   H     H_    0.260143 0.202774 0.580698 0.313672
C65   C     C_3   0.812894 0.938379 0.554937 -0.405575
C66   C     C_3   0.744070 0.873282 0.497412 -0.791170
H41   H     H_    0.663322 0.830646 0.508117 0.266807
H42   H     H_    0.745269 0.923848 0.443615 0.251709
H43   H     H_    0.772986 0.816120 0.496571 0.259578
H44   H     H_    0.891733 0.977337 0.539757 0.198660
H45   H     H_    0.821249 0.889109 0.607681 0.232055
C67   C     C_3   0.186126 0.058178 0.436994 -0.428245
C68   C     C_3   0.248151 0.120113 0.374407 -0.780823
H46   H     H_    0.330591 0.162773 0.394273 0.265122
H47   H     H_    0.241429 0.067509 0.339902 0.244284
H48   H     H_    0.217992 0.176769 0.340801 0.266826
H49   H     H_    0.104551 0.020601 0.412397 0.192103
H50   H     H_    0.184704 0.109564 0.468433 0.230558
C69   C     C_3   0.437445 0.770475 0.656368 -0.361810
C70   C     C_3   0.392024 0.799214 0.706072 -0.792331
H51   H     H_    0.453750 0.860088 0.735235 0.255245
H52   H     H_    0.332792 0.826950 0.675158 0.264819
H53   H     H_    0.354642 0.730145 0.746429 0.240533
H54   H     H_    0.375371 0.711363 0.626636 0.203732
H55   H     H_    0.482211 0.729050 0.692998 0.226557
C71   C     C_3   0.566353 0.203504 0.611551 -0.407317
C72   C     C_3   0.528350 0.180661 0.683664 -0.805330
H56   H     H_    0.452635 0.183213 0.676169 0.266161
H57   H     H_    0.522496 0.103411 0.713901 0.259450
H58   H     H_    0.583902 0.239558 0.716729 0.232121
H59   H     H_    0.646802 0.211859 0.626875 0.210024
H60   H     H_    0.569297 0.278882 0.579837 0.219927

loop_
_geom_bond_atom_site_label_1
_geom_bond_atom_site_label_2
_geom_bond_distance
_ccdc_geom_bond_type
C39   C55   1.525466 S    
C21   C65   1.523448 S    
C37   C39   1.419930 A    
C56   H22   1.098060 S    
N2    C17   1.358001 A    
C60   H33   1.111306 S    
C47   C48   1.438915 A    
C7    C9    1.400415 A    
C38   C46   1.414120 A    
C50   H16   1.079807 S    
C40   C53   1.522078 S    
C35   C63   1.480972 S    
C53   H21   1.109906 S    
C55   H26   1.106890 S    
O14   H39   1.013913 S    
C34   C71   1.531423 S    
C59   H36   1.109085 S    
C53   C54   1.532549 S    
O5    C3    1.309279 A    
C68   H47   1.111088 S    
O1    C1    1.307598 A    
C42   H13   1.075066 S    
C7    H3    1.082856 S    
C50   C52   1.384813 A    
C61   O9    1.223263 D    
C28   C32   1.419683 A    
C62   O12   1.398003 S    
C52   H12   1.078193 S    
C59   C60   1.528523 S    
C24   H9    1.078293 S    
C69   C70   1.530719 S    
C65   H45   1.103413 S    
C22   C67   1.524411 S    
C72   H58   1.110709 S    
O4    Cu1   1.899329 S    
C43   C45   1.408556 A    
C55   C56   1.535419 S    
C46   C52   1.410916 A    
N1    N3    1.328685 A    
C5    C7    1.392152 A    
Cu1   N6    2.027991 S    
C8    C10   1.399370 A    
C44   C48   1.432551 A    
C69   H55   1.105793 S    
C37   C57   1.544194 S    
C72   H56   1.106056 S    
C43   C47   1.434349 A    
C8    H4    1.082952 S    
N2    N4    1.332014 A    
C6    C8    1.387196 A    
C67   H50   1.101649 S    
C19   C25   1.391556 A    
C51   H11   1.081537 S    
C57   H30   1.109324 S    
C3    C15   1.480709 S    
C56   H23   1.102557 S    
C71   H60   1.107561 S    
Cu1   Cu2   2.699734 S    
C4    C16   1.478543 S    
C21   C23   1.408839 A    
O2    C2    1.307331 A    
C22   C24   1.403631 A    
C70   H53   1.110816 S    
C21   C29   1.437707 A    
C55   H25   1.100218 S    
C26   C28   1.402889 A    
C59   H35   1.101873 S    
C33   C35   1.427118 A    
C11   C13   1.400968 A    
C69   H54   1.103923 S    
C57   H31   1.107404 S    
C68   H48   1.109336 S    
C34   C36   1.419569 A    
C25   H8    1.081796 S    
C48   C49   1.400414 A    
N6    C40   1.385495 A    
C31   C32   1.399344 A    
C70   H52   1.108766 S    
C54   H17   1.105574 S    
C70   H51   1.111045 S    
C27   C31   1.416418 A    
C29   C35   1.430188 A    
Cu2   N5    2.027994 S    
C54   H19   1.110638 S    
C58   H29   1.111427 S    
C30   C36   1.427627 A    
C33   C69   1.540847 S    
C38   C40   1.420267 A    
C66   H42   1.109694 S    
O7    Cu2   1.944220 S    
C67   H49   1.112636 S    
O7    C3    1.300417 A    
N5    C41   1.373264 A    
C57   C58   1.532607 S    
O5    Cu1   1.951497 S    
O6    C4    1.307707 A    
C58   H28   1.107258 S    
C10   C17   1.476230 S    
C36   C64   1.476775 S    
O12   H38   1.013826 S    
C5    C15   1.404222 A    
C49   C51   1.377055 A    
C63   O13   1.223697 D    
C37   C45   1.399590 A    
O3    Cu2   1.899328 S    
O8    C4    1.300285 A    
C23   H10   1.078585 S    
C22   C30   1.437345 A    
O4    C2    1.302555 A    
C27   C29   1.424457 A    
C12   C14   1.406515 A    
C56   H24   1.111129 S    
C71   H59   1.106562 S    
C1    C19   1.484133 S    
C26   H7    1.078434 S    
C64   O15   1.222949 D    
C60   H34   1.110376 S    
C2    C20   1.479870 S    
C66   H43   1.109547 S    
O1    Cu1   1.904556 S    
C20   C26   1.394095 A    
C60   H32   1.109147 S    
O16   H40   1.010638 S    
C45   C51   1.404470 A    
C32   C33   1.425175 A    
C65   C66   1.527591 S    
C5    H1    1.078738 S    
C13   C61   1.484574 S    
O6    Cu2   1.951496 S    
N3    C17   1.356924 A    
C10   C12   1.404212 A    
C67   C68   1.528831 S    
O3    C1    1.304855 A    
O8    Cu1   1.944220 S    
C19   C23   1.395808 A    
C53   H20   1.097831 S    
C38   C59   1.530297 S    
C14   C62   1.485532 S    
C6    C16   1.400909 A    
C9    C18   1.476494 S    
C68   H46   1.108591 S    
C12   H6    1.083544 S    
N1    C18   1.356258 A    
N6    C42   1.362684 A    
C31   C34   1.416556 A    
N4    C18   1.358779 A    
C66   H41   1.107444 S    
C13   C15   1.422956 A    
C62   O11   1.222705 D    
C14   C16   1.422049 A    
C49   H15   1.076255 S    
C28   C30   1.428269 A    
C58   H27   1.110559 S    
C47   C50   1.397383 A    
C54   H18   1.100454 S    
C72   H57   1.111142 S    
O2    Cu2   1.904557 S    
C63   O14   1.397990 S    
C65   H44   1.112260 S    
N5    C39   1.399438 A    
C20   C24   1.394171 A    
C9    C11   1.403814 A    
C25   C27   1.406314 A    
C41   H14   1.078191 S    
C6    H2    1.073014 S    
C64   O16   1.395997 S    
C42   C44   1.429267 A    
C71   C72   1.530190 S    
C44   C46   1.414891 A    
C41   C43   1.434281 A    
O10   H37   1.014212 S    
C61   O10   1.398602 S    
C11   H5    1.083821 S    
