data_mof_unit_42462.cif
_audit_creation_date              2012-12-11T15:46:40-0500
_audit_creation_method            fapswitch 2.2
_symmetry_space_group_name_H-M    P1
_symmetry_Int_Tables_number       1
_space_group_crystal_system       triclinic
_cell_length_a                    11.547831
_cell_length_b                    11.529816
_cell_length_c                    19.572285
_cell_angle_alpha                 90.462004
_cell_angle_beta                  90.00213
_cell_angle_gamma                 59.94817
_cell_volume                      2255.53277755

loop_
_atom_site_label
_atom_site_type_symbol
_atom_type_description
_atom_site_fract_x
_atom_site_fract_y
_atom_site_fract_z
_atom_type_partial_charge
C1    C     C_R   0.640340 0.117319 0.599318 0.548254
C2    C     C_1   0.652782 0.149680 0.668693 0.006407
C3    C     C_R   0.678095 0.633799 0.199716 0.053983
C4    C     C_R   0.612338 0.746163 0.598700 0.547936
C5    C     C_R   0.579174 0.624694 0.235783 -0.020750
C6    C     C_R   0.570520 0.636445 0.305077 0.000537
C7    C     C_R   0.777327 0.640872 0.307791 -0.129962
C8    C     C_R   0.785119 0.629704 0.236581 0.335139
C9    C     C_3   0.431512 0.696841 0.225612 0.244029
C10   C     C_3   0.419839 0.711836 0.302337 -0.183726
C11   C     C_R   0.661558 0.659752 0.341249 -0.030879
C12   C     C_1   0.641038 0.704084 0.668053 0.006773
C13   C     C_R   0.129777 0.203376 0.194872 -0.013669
C14   C     C_R   0.139486 0.300462 0.232486 0.107003
C15   C     C_R   0.163197 0.285655 0.301338 -0.035683
C16   C     C_R   0.241043 0.145274 0.598236 0.544343
C17   C     C_R   0.151195 0.082516 0.300228 -0.149157
C18   C     C_R   0.128275 0.097337 0.229745 -0.106680
C19   C     C_3   0.232078 0.353492 0.221118 0.268070
C20   C     C_3   0.258042 0.338624 0.296936 -0.173180
C21   C     C_R   0.177638 0.172685 0.335720 -0.005069
C22   C     C_R   0.666956 0.186335 0.192420 -0.040548
C23   C     C_1   0.126635 0.198812 0.859253 0.007628
C24   C     C_R   0.730105 0.056745 0.218952 -0.005254
C25   C     C_R   0.726849 0.036970 0.287797 -0.038108
C26   C     C_R   0.584395 0.274164 0.306642 0.316695
C27   C     C_R   0.586055 0.294639 0.236289 -0.134321
C28   C     C_R   0.645378 0.112899 0.402760 0.577570
C29   C     C_3   0.871063 0.942596 0.212643 -0.214487
C30   C     C_3   0.867391 0.923116 0.288754 -0.239449
C31   C     C_R   0.661760 0.144382 0.333270 0.025142
C32   C     C_R   0.081748 0.231158 0.928553 0.544243
C33   C     C_R   0.684042 0.604256 0.929445 0.545450
C34   C     C_1   0.171566 0.170267 0.727732 -0.029148
C35   C     C_R   0.708552 0.206693 0.930068 0.547231
C36   C     C_R   0.082021 0.236140 0.125541 0.549611
C37   C     C_R   0.685869 0.605746 0.127557 0.589731
C38   C     C_R   0.707818 0.211312 0.126766 0.549816
C39   C     C_R   0.618745 0.734611 0.404249 0.559325
C40   C     C_R   0.243367 0.141384 0.401641 0.544538
C41   C     C_1   0.670583 0.646250 0.860073 0.007809
C42   C     C_1   0.654654 0.683753 0.728446 -0.029359
C43   C     C_1   0.663524 0.666545 0.799670 -0.029042
C44   C     C_1   0.150123 0.182302 0.798929 -0.028574
C45   C     C_1   0.195387 0.160872 0.667431 0.005393
C46   C     C_1   0.678866 0.191232 0.860723 0.006609
C47   C     C_1   0.658489 0.167197 0.729050 -0.029009
C48   C     C_1   0.665853 0.180855 0.800325 -0.028489
Cr1   Cr    Cr6+3 0.404720 0.198220 0.499960 1.071235
Cr2   Cr    Cr6+3 0.698290 0.897110 0.500380 1.031179
Cr3   Cr    Cr6+3 0.396970 0.904720 0.499610 1.036718
Cr4   Cr    Cr6+3 0.926290 0.152010 0.028150 1.049014
Cr5   Cr    Cr6+3 0.921440 0.451830 0.027490 1.113301
Cr6   Cr    Cr6+3 0.626370 0.446880 0.028730 1.056303
F1    F     F_    0.511006 0.380830 0.348522 -0.651590
F2    F     F_    0.892367 0.622577 0.204300 -0.582012
F3    F     F_    0.386211 0.818144 0.193004 -0.638987
F4    F     F_    0.164823 0.486162 0.201309 -0.563530
H1    H     H_    0.854481 0.648025 0.335636 0.146980
H2    H     H_    0.393109 0.633499 0.203685 0.155244
H3    H     H_    0.374386 0.817925 0.319043 0.179918
H4    H     H_    0.375732 0.655290 0.325930 0.159880
H5    H     H_    0.155956 0.997304 0.325712 0.123104
H6    H     H_    0.112422 0.024680 0.202443 0.172773
H7    H     H_    0.320569 0.287450 0.188792 0.103068
H8    H     H_    0.361986 0.260634 0.309117 0.130654
H9    H     H_    0.220260 0.435540 0.324698 0.200321
H10   H     H_    0.533416 0.395952 0.217308 0.146910
H11   H     H_    0.944656 0.973412 0.198760 0.153230
H12   H     H_    0.877497 0.858341 0.181694 0.219682
H13   H     H_    0.873659 0.827002 0.301846 0.182904
H14   H     H_    0.935511 0.946796 0.318194 0.134279
O1    O     O_R   0.267750 0.231960 0.575440 -0.504112
O2    O     O_R   0.596230 0.579400 0.952760 -0.498134
O3    O     O_R   0.639160 0.321170 0.958690 -0.492706
O4    O     O_R   0.527290 0.186640 0.570530 -0.490441
O5    O     O_R   0.821370 0.124220 0.104400 -0.516868
O6    O     O_R   0.037020 0.167050 0.097880 -0.509629
O7    O     O_R   0.056310 0.349620 0.102920 -0.441289
O8    O     O_R   0.797790 0.564880 0.097980 -0.439741
O9    O     O_R   0.596000 0.584270 0.104310 -0.505276
O10   O     O_R   0.638950 0.325690 0.099180 -0.509028
O11   O     O_3   0.824700 0.350240 0.028120 -0.283768
O12   O     O_R   0.685950 0.784660 0.430010 -0.510138
O13   O     O_R   0.728110 0.003450 0.576380 -0.505234
O14   O     O_R   0.682980 0.789190 0.570500 -0.495159
O15   O     O_R   0.499300 0.771880 0.575540 -0.499515
O16   O     O_R   0.285350 0.030870 0.569740 -0.494451
O17   O     O_R   0.270960 0.227070 0.423890 -0.514415
O18   O     O_R   0.530270 0.182120 0.430040 -0.450715
O19   O     O_R   0.731320 0.998570 0.424830 -0.529920
O20   O     O_R   0.502510 0.767000 0.423980 -0.512439
O21   O     O_R   0.288320 0.026340 0.429250 -0.509672
O22   O     O_3   0.499990 0.000020 0.499980 -0.267178
O23   O     O_R   0.821590 0.119350 0.952850 -0.500567
O24   O     O_R   0.037230 0.162540 0.957390 -0.492096
O25   O     O_R   0.056530 0.344750 0.951370 -0.504799
O26   O     O_R   0.798000 0.560370 0.957490 -0.498012

loop_
_geom_bond_atom_site_label_1
_geom_bond_atom_site_label_2
_ccdc_geom_bond_type
C25   C31   A    
C20   H9    S    
C19   C20   S    
C40   O21   A    
C26   F1    S    
C8    F2    S    
C30   H13   S    
Cr2   O12   S    
C7    C8    A    
C4    O15   A    
C7    C11   A    
C35   O3    A    
C26   C27   A    
C13   C18   A    
C20   H8    S    
Cr5   O7    S    
C39   O12   A    
C33   O26   A    
C5    C6    A    
C4    O14   A    
C22   C38   S    
C32   O25   A    
Cr4   O23   S    
C1    C2    S    
C24   C29   S    
C12   C42   T    
C27   H10   S    
Cr2   O13   S    
Cr6   O2    S    
Cr4   O24   S    
C40   O17   A    
C4    C12   S    
C9    C10   S    
Cr1   O18   S    
C9    F3    S    
C26   C31   A    
C13   C14   A    
C38   O10   A    
C41   C43   T    
C37   O9    A    
C10   H4    S    
Cr4   O6    S    
C2    C47   T    
C7    H1    S    
Cr6   O11   S    
C29   H11   S    
C19   F4    S    
C1    O13   A    
C15   C20   S    
C37   O8    A    
C46   C48   T    
C16   O1    A    
Cr5   O8    S    
C34   C44   S    
C24   C25   A    
C13   C36   S    
C3    C8    A    
Cr3   O15   S    
C6    C11   A    
Cr2   O22   S    
Cr5   O25   S    
C17   C21   A    
C23   C44   T    
Cr3   O16   S    
Cr4   O11   S    
C5    C9    S    
C29   C30   S    
Cr3   O20   S    
Cr2   O19   S    
C47   C48   S    
C17   C18   A    
Cr1   O4    S    
C34   C45   T    
C11   C39   S    
Cr3   O21   S    
C32   O24   A    
C22   C27   A    
Cr1   O22   S    
Cr1   O1    S    
C10   H3    S    
C42   C43   S    
Cr4   O5    S    
C39   O20   A    
Cr6   O10   S    
C29   H12   S    
C25   C30   S    
C1    O4    A    
C14   C19   S    
C28   C31   S    
Cr1   O17   S    
C3    C5    A    
C36   O7    A    
C16   C45   S    
C6    C10   S    
C30   H14   S    
C38   O5    A    
C35   O23   A    
Cr5   O26   S    
Cr5   O11   S    
C9    H2    S    
C33   C41   S    
C23   C32   S    
C36   O6    A    
C17   H5    S    
C18   H6    S    
C21   C40   S    
C19   H7    S    
C28   O19   A    
C22   C24   A    
Cr2   O14   S    
Cr3   O22   S    
Cr6   O3    S    
C33   O2    A    
C15   C21   A    
C3    C37   S    
C16   O16   A    
C14   C15   A    
C28   O18   A    
C35   C46   S    
Cr6   O9    S    
