data_mof_unit_46666.cif
_audit_creation_date              2012-12-11T15:53:54-0500
_audit_creation_method            fapswitch 2.2
_symmetry_space_group_name_H-M    P1
_symmetry_Int_Tables_number       1
_space_group_crystal_system       triclinic
_cell_length_a                    10.700234
_cell_length_b                    10.720603
_cell_length_c                    17.004992
_cell_angle_alpha                 80.367334
_cell_angle_beta                  99.726678
_cell_angle_gamma                 119.184896
_cell_volume                      1670.3731994

loop_
_atom_site_label
_atom_site_type_symbol
_atom_type_description
_atom_site_fract_x
_atom_site_fract_y
_atom_site_fract_z
_atom_type_partial_charge
C1    C     C_R   0.385024 0.284557 0.631907 0.509269
C2    C     C_R   0.520070 0.718889 0.735158 0.225906
C3    C     C_R   0.497127 0.732649 0.812171 0.358412
C4    C     C_3   0.102135 0.453581 0.781461 0.625269
C5    C     C_3   0.127005 0.438268 0.698894 0.822586
C6    C     C_R   0.404685 0.618465 0.687392 -0.037590
C7    C     C_1   0.849724 0.669605 0.702682 0.090129
C8    C     C_1   0.896395 0.704511 0.769367 0.065637
C9    C     C_1   0.365455 0.234452 0.714471 0.010566
C10   C     C_1   0.333709 0.187601 0.781677 0.017204
C11   C     C_1   0.318676 0.685285 0.280542 0.116003
C12   C     C_R   0.414716 0.620083 0.602079 0.574425
C13   C     C_1   0.297965 0.709046 0.209748 0.094597
C14   C     C_R   0.805714 0.653799 0.151106 -0.095251
C15   C     C_R   0.788672 0.531605 0.203227 -0.050002
C16   C     C_R   0.786076 0.529958 0.283001 -0.037874
C17   C     C_R   0.783859 0.756023 0.261986 0.420670
C18   C     C_R   0.782205 0.757318 0.179170 0.245717
C19   C     C_3   0.854506 0.431328 0.219551 0.520770
C20   C     C_3   0.852986 0.433762 0.308594 0.532428
C21   C     C_R   0.796819 0.645699 0.315492 -0.066574
C22   C     C_R   0.297032 0.113458 0.172635 -0.083679
C23   C     C_R   0.781083 0.621110 0.626170 0.560468
C24   C     C_R   0.186246 0.120076 0.200877 -0.077486
C25   C     C_R   0.193980 0.138068 0.279254 -0.082733
C26   C     C_R   0.402704 0.101229 0.310034 0.401758
C27   C     C_R   0.397563 0.087717 0.228937 0.365482
C28   C     C_3   0.117002 0.212802 0.169505 0.756777
C29   C     C_3   0.129867 0.238883 0.255779 0.655558
C30   C     C_R   0.310815 0.144308 0.333113 -0.082350
C31   C     C_R   0.947016 0.725268 0.851678 0.572359
C32   C     C_R   0.317009 0.704935 0.899138 0.600057
C33   C     C_R   0.286549 0.118760 0.858486 0.541430
C34   C     C_R   0.348165 0.221471 0.402158 0.584302
C35   C     C_R   0.881900 0.688138 0.081500 0.548607
C36   C     C_R   0.284866 0.739333 0.125399 0.572578
C37   C     C_R   0.280009 0.096334 0.088899 0.584308
C38   C     C_R   0.361805 0.657980 0.362037 0.594452
C39   C     C_R   0.768346 0.621215 0.398089 0.559259
C40   C     C_R   0.358762 0.650346 0.839661 -0.014262
C41   C     C_R   0.261985 0.528986 0.800388 -0.117678
C42   C     C_R   0.284479 0.513962 0.725547 -0.103123
Cr1   Cr    Cr6+3 0.608440 0.389080 0.519680 1.155894
Cr2   Cr    Cr6+3 0.288640 0.400090 0.490760 1.162117
Cr3   Cr    Cr6+3 0.602940 0.710800 0.489510 1.178901
Cr4   Cr    Cr6+3 0.052530 0.947560 0.964210 1.151687
Cr5   Cr    Cr6+3 0.059970 0.626800 0.992920 1.114287
Cr6   Cr    Cr6+3 0.373320 0.938440 0.995370 1.149720
O1    O     O_R   0.754020 0.497590 0.609930 -0.450583
O2    O     O_R   0.295080 0.533620 0.397890 -0.438521
O3    O     O_R   0.485280 0.746620 0.388440 -0.435183
O4    O     O_R   0.720550 0.696220 0.420010 -0.438204
O5    O     O_3   0.500010 0.499990 0.499980 -0.377223
O6    O     O_R   0.163320 0.092900 0.874450 -0.457964
O7    O     O_R   0.934650 0.822080 0.882840 -0.473579
O8    O     O_R   0.915520 0.604140 0.893670 -0.463040
O9    O     O_R   0.191760 0.638110 0.923230 -0.484702
O10   O     O_R   0.406180 0.826930 0.920660 -0.433984
O11   O     O_R   0.358620 0.062870 0.901950 -0.500600
O12   O     O_R   0.481420 0.271390 0.600630 -0.475799
O13   O     O_R   0.163910 0.085460 0.050210 -0.442819
O14   O     O_R   0.935200 0.815170 0.045770 -0.475414
O15   O     O_R   0.916120 0.596690 0.069430 -0.493466
O16   O     O_R   0.192310 0.631200 0.086170 -0.442344
O17   O     O_R   0.406770 0.819480 0.096420 -0.433948
O18   O     O_R   0.359170 0.055960 0.064880 -0.470230
O19   O     O_3   0.161940 0.837600 0.984160 -0.357164
O20   O     O_R   0.263810 0.254550 0.589590 -0.446420
O21   O     O_R   0.300820 0.531200 0.560890 -0.460268
O22   O     O_R   0.491480 0.744020 0.564270 -0.417352
O23   O     O_R   0.726290 0.693800 0.583010 -0.500310
O24   O     O_R   0.747830 0.500190 0.434090 -0.482664
O25   O     O_R   0.475680 0.273800 0.437630 -0.431772
O26   O     O_R   0.257620 0.257160 0.413750 -0.451852
O27   O     O_3   0.649488 0.808354 0.703525 -0.656898
H1    H     H_    0.719187 0.872061 0.743866 0.391902
O28   O     O_3   0.761256 0.296514 0.191337 -0.550125
H2    H     H_    0.753910 0.312887 0.131933 0.349767
O29   O     O_3   0.761267 0.301320 0.347530 -0.553993
H3    H     H_    0.811034 0.242057 0.354672 0.412103
O30   O     O_3   0.990932 0.502372 0.350038 -0.661021
H4    H     H_    0.977262 0.498037 0.406846 0.356218
F1    F     F_    0.501698 0.081605 0.364229 -0.526154
F2    F     F_    0.492543 0.054724 0.206031 -0.521009
F3    F     F_    0.976601 0.136712 0.136576 -0.498299
F4    F     F_    0.199916 0.332991 0.120267 -0.631921
O31   O     O_3   0.224262 0.382320 0.270100 -0.649632
H5    H     H_    0.320988 0.408522 0.255801 0.286912
F5    F     F_    0.998858 0.186914 0.285596 -0.501023
F6    F     F_    0.605181 0.835621 0.855950 -0.602959
F7    F     F_    0.038483 0.539213 0.779320 -0.623927
O32   O     O_3   0.035220 0.321979 0.828085 -0.601425
H6    H     H_    0.034368 0.345785 0.881852 0.351539
F8    F     F_    0.078762 0.297897 0.684310 -0.561679
F9    F     F_    0.083909 0.515794 0.637305 -0.564635
F10   F     F_    0.772092 0.861699 0.289104 -0.490569
O33   O     O_3   0.762858 0.862762 0.128743 -0.515645
H7    H     H_    0.727991 0.829848 0.074392 0.345896
O34   O     O_3   0.994925 0.491962 0.198346 -0.642972
H8    H     H_    0.009372 0.412682 0.186814 0.403974

loop_
_geom_bond_atom_site_label_1
_geom_bond_atom_site_label_2
_ccdc_geom_bond_type
Cr1   O25   S    
C12   O21   A    
Cr1   O24   S    
Cr3   O23   S    
C41   C42   A    
C14   C18   A    
C19   C20   S    
C32   O10   A    
C5    C42   S    
C29   F5    S    
C5    F8    S    
C7    C8    T    
O28   H2    S    
C15   C19   S    
C26   C27   A    
C16   C21   A    
Cr4   O14   S    
C3    F6    S    
C28   C29   S    
C6    C12   S    
C23   O1    A    
C4    C41   S    
Cr3   O3    S    
C15   C16   A    
C26   F1    S    
C1    O20   A    
C19   O28   S    
Cr2   O5    S    
Cr1   O5    S    
Cr4   O7    S    
C39   O24   A    
C18   O33   S    
C31   O8    A    
C35   O14   A    
C9    C10   T    
C33   O6    A    
C4    F7    S    
C39   O4    A    
Cr3   O5    S    
C33   O11   A    
C20   O30   S    
C2    C6    A    
C32   O9    A    
Cr5   O19   S    
C5    F9    S    
O33   H7    S    
C25   C29   S    
C30   C34   S    
Cr4   O13   S    
C23   O23   A    
C1    C9    S    
C24   C25   A    
C13   C36   S    
C1    O12   A    
Cr5   O16   S    
C19   O34   S    
C36   O17   A    
Cr1   O1    S    
C38   O3    A    
Cr3   O4    S    
C22   C37   S    
O30   H4    S    
C11   C38   S    
O27   H1    S    
Cr5   O9    S    
O34   H8    S    
C21   C39   S    
C16   C20   S    
C37   O18   A    
Cr4   O6    S    
C17   C18   A    
Cr2   O21   S    
C17   F10   S    
Cr2   O26   S    
Cr1   O12   S    
C34   O26   A    
C40   C41   A    
C3    C40   A    
C26   C30   A    
C22   C27   A    
C28   F4    S    
Cr6   O17   S    
C22   C24   A    
Cr2   O20   S    
C14   C35   S    
Cr6   O11   S    
Cr2   O2    S    
C25   C30   A    
C12   O22   A    
C27   F2    S    
C20   O29   S    
Cr3   O22   S    
C8    C31   S    
C24   C28   S    
C4    C5    S    
C37   O13   A    
Cr6   O10   S    
C38   O2    A    
C31   O7    A    
C2    C3    A    
Cr4   O19   S    
Cr5   O15   S    
C11   C13   T    
C7    C23   S    
O32   H6    S    
C10   C33   S    
C32   C40   S    
Cr6   O19   S    
C17   C21   A    
C29   O31   S    
C34   O25   A    
O29   H3    S    
O31   H5    S    
C6    C42   A    
C28   F3    S    
C14   C15   A    
C35   O15   A    
Cr6   O18   S    
C36   O16   A    
C2    O27   S    
Cr5   O8    S    
C4    O32   S    
