data_mof_unit_33433.cif
_audit_creation_date              2012-12-10T18:05:49-0500
_audit_creation_method            fapswitch 2.2
_symmetry_space_group_name_H-M    P1
_symmetry_Int_Tables_number       1
_space_group_crystal_system       triclinic
_cell_length_a                    12.57504
_cell_length_b                    13.152742
_cell_length_c                    15.012426
_cell_angle_alpha                 90.232511
_cell_angle_beta                  102.396283
_cell_angle_gamma                 82.497168
_cell_volume                      2403.61119611

loop_
_atom_site_label
_atom_site_type_symbol
_atom_type_description
_atom_site_fract_x
_atom_site_fract_y
_atom_site_fract_z
_atom_type_partial_charge
C1    C     C_R   0.439141 0.691076 0.483559 0.857420
C2    C     C_R   0.588672 0.532992 0.830557 -0.208775
C3    C     C_R   0.502270 0.497116 0.769346 -0.077049
C4    C     C_R   0.500661 0.499387 0.673113 0.892817
C5    C     C_R   0.417401 0.458989 0.800087 -0.255622
C6    C     C_R   0.719203 0.062627 0.457844 -0.136302
C7    C     C_R   0.597700 0.200155 0.503946 -0.047099
C8    C     C_R   0.295100 0.839859 0.474429 -0.177005
C9    C     C_R   0.264590 0.945067 0.474421 -0.133952
C10   C     C_R   0.341948 0.011124 0.472489 -0.185274
C11   C     C_R   0.450911 0.972403 0.466295 0.092154
C12   C     C_R   0.417378 0.459320 0.077625 0.145974
C13   C     C_R   0.474930 0.867773 0.449916 0.062258
C14   C     C_R   0.536312 0.034245 0.475381 0.067266
C15   C     C_R   0.639849 0.995393 0.455617 0.086293
C16   C     C_R   0.561114 0.308748 0.509755 0.865489
C17   C     C_R   0.658699 0.892290 0.430397 -0.077076
C18   C     C_R   0.573341 0.832496 0.421953 -0.244370
C19   C     C_R   0.521863 0.133517 0.506929 -0.240551
C20   C     C_R   0.697498 0.164711 0.480661 -0.212484
C21   C     C_R   0.401259 0.800423 0.465318 -0.103470
C22   C     C_R   0.088140 0.345359 0.375377 -0.272130
C23   C     C_R   0.677052 0.572005 0.077058 0.447198
C24   C     C_R   0.799332 0.631142 0.606557 0.020818
C25   C     C_R   0.903608 0.660848 0.627087 -0.200490
C26   C     C_R   0.985072 0.611686 0.586264 -0.193748
C27   C     C_R   0.962314 0.531845 0.524527 0.018280
C28   C     C_R   0.499511 0.500437 0.326838 0.874683
C29   C     C_R   0.854530 0.504674 0.505820 0.246070
C30   C     C_R   0.041589 0.478152 0.480721 -0.027037
C31   C     C_R   0.011414 0.399094 0.419223 0.186047
C32   C     C_R   0.905051 0.374198 0.402126 -0.230942
C33   C     C_R   0.827936 0.426409 0.444747 -0.194350
C34   C     C_R   0.675543 0.569783 0.983966 -0.293129
C35   C     C_R   0.150526 0.498905 0.495646 -0.045160
C36   C     C_R   0.194374 0.369677 0.393195 0.009805
C37   C     C_R   0.416184 0.461107 0.169508 -0.231512
C38   C     C_R   0.499757 0.500510 0.230747 -0.107409
C39   C     C_R   0.585162 0.538820 0.200822 -0.158367
C40   C     C_R   0.590077 0.536016 0.109070 -0.040830
C41   C     C_R   0.504329 0.496520 0.047120 0.006850
C42   C     C_2   0.768239 0.840789 0.420725 0.917847
C43   C     C_R   0.590120 0.532473 0.923022 0.035166
C44   C     C_R   0.504374 0.495223 0.954304 0.069148
C45   C     C_R   0.417847 0.457718 0.892390 0.135734
C46   C     C_R   0.332807 0.420377 0.923462 -0.211620
C47   C     C_R   0.332685 0.421003 0.015893 -0.199247
H1    H     H_    0.350377 0.431422 0.193282 0.163301
H2    H     H_    0.066273 0.285019 0.328258 0.150950
H3    H     H_    0.646822 0.571405 0.249796 0.239372
H4    H     H_    0.181449 0.556664 0.541396 0.126061
H5    H     H_    0.735395 0.669475 0.637546 0.139691
H6    H     H_    0.064365 0.637989 0.604175 0.137137
H7    H     H_    0.921146 0.722117 0.674134 0.166242
H8    H     H_    0.747953 0.403564 0.428515 0.209017
H9    H     H_    0.740589 0.598334 0.958374 0.196850
H10   H     H_    0.654173 0.562600 0.806267 0.162015
H11   H     H_    0.350965 0.430296 0.752374 0.163012
H12   H     H_    0.795488 0.039413 0.436841 0.179857
H13   H     H_    0.266300 0.391250 0.876295 0.151901
H14   H     H_    0.266077 0.392222 0.039070 0.155352
H15   H     H_    0.756623 0.216433 0.476489 0.151309
H16   H     H_    0.932833 0.822381 0.466687 0.343423
H17   H     H_    0.891129 0.583167 0.282220 0.398242
H18   H     H_    0.450036 0.161963 0.532536 0.151867
H19   H     H_    0.236596 0.789474 0.483909 0.157287
H20   H     H_    0.313482 0.092025 0.473751 0.131419
H21   H     H_    0.182058 0.975494 0.479949 0.150989
H22   H     H_    0.585942 0.756444 0.395207 0.205879
H23   H     H_    0.255279 0.328644 0.360475 0.133554
H24   H     H_    0.881120 0.314070 0.355356 0.160700
N1    N     N_R   0.222190 0.444670 0.452360 -0.103588
N2    N     N_R   0.776970 0.554790 0.547140 -0.132518
O1    O     O_R   0.366740 0.627160 0.477250 -0.612380
O2    O     O_R   0.864143 0.864693 0.478649 -0.830820
O3    O     O_2   0.873920 0.641260 0.098762 -0.291141
O4    O     O_2   0.741758 0.724382 0.183357 -0.263192
O5    O     O_3   0.843390 0.542886 0.238595 -0.569559
O6    O     O_R   0.544830 0.662520 0.507680 -0.624918
O7    O     O_R   0.410940 0.482340 0.616930 -0.625758
O8    O     O_R   0.589030 0.517700 0.647360 -0.623461
O9    O     O_R   0.455170 0.337480 0.492320 -0.621903
O10   O     O_R   0.633260 0.372840 0.522750 -0.637994
O11   O     O_R   0.410970 0.482300 0.352640 -0.613728
O12   O     O_R   0.589060 0.517660 0.383070 -0.642250
O13   O     O_2   0.774316 0.772396 0.365995 -0.575993
S1    S     S_3+6 0.786813 0.623675 0.149536 0.022705
Zn1   Zn    Zn3+2 0.381090 0.476390 0.479680 0.947661
Zn2   Zn    Zn3+2 0.618910 0.523610 0.520320 0.941089

loop_
_geom_bond_atom_site_label_1
_geom_bond_atom_site_label_2
_ccdc_geom_bond_type
O5    S1    S    
C33   H8    S    
C24   H5    S    
C27   C29   A    
C2    H10   S    
C10   H20   S    
C1    C21   S    
C42   O2    S    
C37   C38   A    
C30   C35   A    
C1    O1    A    
C4    O7    A    
C30   C31   A    
C11   C14   A    
C24   N2    A    
C28   O11   A    
C23   C40   A    
C29   C33   A    
C13   C18   A    
C12   C37   A    
C17   C42   S    
C6    C15   A    
C4    O8    A    
C8    C9    A    
C8    H19   S    
C42   O13   D    
C9    C10   A    
C34   H9    S    
O8    Zn2   S    
C18   H22   S    
C23   S1    S    
C27   C30   A    
C12   C47   A    
C14   C19   A    
N1    Zn1   S    
C36   H23   S    
C8    C21   A    
C32   H24   S    
O10   Zn2   S    
C22   C31   A    
C25   H7    S    
C39   C40   A    
O12   Zn2   S    
C25   C26   A    
C45   C46   A    
C5    C45   A    
C16   O10   A    
C43   C44   A    
C12   C41   A    
C31   C32   A    
C28   C38   S    
C2    C43   A    
C23   C34   A    
C16   O9    A    
C17   C18   A    
C26   C27   A    
C13   C21   A    
C24   C25   A    
C37   H1    S    
O3    S1    D    
C22   H2    S    
C5    H11   S    
C7    C16   S    
C35   N1    A    
C7    C19   A    
C35   H4    S    
C1    O6    A    
C41   C44   A    
C3    C4    S    
C26   H6    S    
C22   C36   A    
C44   C45   A    
C15   C17   A    
C46   C47   A    
C40   C41   A    
C46   H13   S    
H17   O5    S    
C6    H12   S    
C34   C43   A    
O11   Zn1   S    
C3    C5    A    
C47   H14   S    
C6    C20   A    
C32   C33   A    
C2    C3    A    
C9    H21   S    
N2    Zn2   S    
O7    Zn1   S    
C11   C13   A    
C38   C39   A    
H16   O2    S    
O9    Zn1   S    
C19   H18   S    
C20   H15   S    
O6    Zn2   S    
C10   C11   A    
C39   H3    S    
C29   N2    A    
O4    S1    D    
C7    C20   A    
C28   O12   A    
C14   C15   A    
O1    Zn1   S    
C36   N1    A    
