data_mof_unit_54231.cif
_audit_creation_date              2013-03-05T16:13:33-0500
_audit_creation_method            fapswitch 2.2
_symmetry_space_group_name_H-M    P1
_symmetry_Int_Tables_number       1
_space_group_crystal_system       triclinic
_cell_length_a                    10.702303
_cell_length_b                    9.892435
_cell_length_c                    10.844447
_cell_angle_alpha                 89.580275
_cell_angle_beta                  93.502915
_cell_angle_gamma                 89.239985
_cell_volume                      1145.8375847

loop_
_atom_site_label
_atom_site_type_symbol
_atom_site_description
_atom_site_fract_x
_atom_site_fract_y
_atom_site_fract_z
_atom_type_partial_charge
O1    O     O_R   0.316770 0.614620 0.499990 -0.565078
O2    O     O_R   0.683230 0.614620 0.500010 -0.572356
O3    O     O_R   0.316800 0.385290 0.500000 -0.576565
O4    O     O_R   0.683200 0.385290 0.500000 -0.578366
C1    C     C_R   0.260428 0.500285 0.512411 0.992764
C2    C     C_R   0.738218 0.498978 0.483973 0.956391
O5    O     O_R   0.500000 0.614690 0.316780 -0.580013
O6    O     O_R   0.500000 0.614690 0.683220 -0.591600
O7    O     O_R   0.500020 0.385360 0.316780 -0.613069
O8    O     O_R   0.499980 0.385360 0.683220 -0.605478
C3    C     C_R   0.498960 0.500228 0.259872 0.923097
C4    C     C_R   0.505555 0.499873 0.740071 0.924524
Zn1   Zn    Zn3+2 0.500000 0.653120 0.500000 1.124365
Zn2   Zn    Zn3+2 0.500000 0.346880 0.500000 1.091554
C5    C     C_R   0.513396 0.620008 0.062427 -0.027068
C6    C     C_R   0.529028 0.621537 0.938043 -0.044194
C7    C     C_R   0.508790 0.499386 0.128516 -0.058796
C8    C     C_R   0.521780 0.500120 0.872473 -0.077860
C9    C     C_R   0.525374 0.376887 0.066275 -0.100030
C10   C     C_R   0.529731 0.377090 0.938394 -0.091942
H1    H     H_    0.528461 0.280726 0.114866 0.226110
H2    H     H_    0.532510 0.281024 0.891459 0.232672
C11   C     C_3   0.467773 0.759915 0.921767 0.315561
C12   C     C_3   0.438331 0.750362 0.058640 0.324186
C13   C     C_R   0.063095 0.374927 0.517775 0.247210
C14   C     C_R   0.937851 0.373098 0.478163 0.251333
C15   C     C_R   0.870931 0.496357 0.466035 -0.322239
C16   C     C_R   0.125908 0.499551 0.521929 -0.310494
C17   C     C_R   0.934312 0.619353 0.465248 0.241130
C18   C     C_R   0.057859 0.621804 0.508505 0.263244
C19   C     C_R   0.583671 0.070263 0.575761 0.290550
C20   C     C_R   0.416356 0.074035 0.424432 0.287242
C21   C     C_R   0.586837 0.926734 0.572196 0.296439
C22   C     C_R   0.413185 0.930801 0.428432 0.301667
N1    N     N_R   0.500000 0.857200 0.500000 -0.177352
N2    N     N_R   0.500000 0.142810 0.500000 -0.190227
N3    N     N_R   0.558875 0.866675 0.899922 0.230448
O9    O     O_R   0.519194 0.989311 0.874770 -0.302381
O10   O     O_R   0.675208 0.849884 0.940596 -0.262283
N4    N     N_R   0.304004 0.734283 0.075808 0.233245
O11   O     O_R   0.226517 0.833923 0.047622 -0.202353
O12   O     O_R   0.259379 0.619606 0.111486 -0.338450
N5    N     N_R   0.357707 0.763517 0.833013 0.233122
O13   O     O_R   0.277466 0.665525 0.829661 -0.337149
O14   O     O_R   0.343247 0.860387 0.751456 -0.282335
N6    N     N_R   0.494260 0.858351 0.135392 0.222067
O15   O     O_R   0.596362 0.836934 0.204619 -0.316402
O16   O     O_R   0.449727 0.981059 0.123744 -0.301711
Br1   Br    Br    0.136992 0.209200 0.587715 -0.229794
Br2   Br    Br    0.868204 0.203364 0.420760 -0.248844
Br3   Br    Br    0.861710 0.781321 0.387623 -0.203285
Br4   Br    Br    0.115941 0.788325 0.580793 -0.156450
Br5   Br    Br    0.696461 0.162749 0.690113 -0.261065
Br6   Br    Br    0.303347 0.171420 0.309786 -0.239459
Br7   Br    Br    0.716812 0.831732 0.668135 -0.230508
Br8   Br    Br    0.282780 0.842227 0.334747 -0.213727

loop_
_geom_bond_atom_site_label_1
_geom_bond_atom_site_label_2
_geom_bond_distance
_ccdc_geom_bond_type
C21   Br7   1.916978 S    
O7    Zn2   2.020328 S    
C19   C21   1.420670 A    
C22   Br8   1.902617 S    
C17   C18   1.376288 A    
C11   N3    1.474455 S    
C15   C17   1.401097 A    
C1    C16   1.449758 S    
N5    O14   1.300542 A    
C9    C10   1.390413 A    
O6    C4    1.287320 A    
C11   C12   1.538597 S    
C12   N6    1.470163 S    
N4    O12   1.302022 A    
C16   C18   1.405450 A    
N3    O10   1.303296 A    
C5    C12   1.509183 S    
C19   Br5   1.922236 S    
C13   C16   1.411711 A    
O5    C3    1.293387 A    
O7    C3    1.288697 A    
C14   C15   1.407121 A    
O2    C2    1.297242 A    
O3    Zn2   1.992186 S    
O8    C4    1.294001 A    
O1    C1    1.298769 A    
C20   N2    1.367654 A    
C20   Br6   1.924682 S    
N4    O11   1.302172 A    
C9    H1    1.083215 S    
N3    O9    1.301480 A    
C10   H2    1.082249 S    
Zn1   N1    2.018848 S    
C6    C11   1.514360 S    
C8    C10   1.405923 A    
C14   Br2   1.937582 S    
N5    O13   1.302798 A    
O4    Zn2   2.002082 S    
N6    O16   1.300639 A    
C12   N4    1.471400 S    
O4    C2    1.291888 A    
O1    Zn1   2.002573 S    
C5    C6    1.369320 A    
O6    Zn1   2.020225 S    
O5    Zn1   2.025696 S    
C11   N5    1.474817 S    
C6    C8    1.400914 A    
C22   N1    1.371640 A    
C17   Br3   1.935685 S    
C4    C8    1.435738 S    
C5    C7    1.390421 A    
O2    Zn1   1.992654 S    
C18   Br4   1.923813 S    
C19   N2    1.369791 A    
C7    C9    1.405874 A    
Zn2   N2    2.018750 S    
C21   N1    1.373231 A    
C13   C14   1.382723 A    
N6    O15   1.301472 A    
C3    C7    1.434836 S    
C2    C15   1.445239 S    
O8    Zn2   2.025804 S    
O3    C1    1.292342 A    
C13   Br1   1.939740 S    
C20   C22   1.418196 A    
