data_mof_unit_12265.cif
_audit_creation_date              2012-12-10T18:36:07-0500
_audit_creation_method            fapswitch 2.2
_symmetry_space_group_name_H-M    P1
_symmetry_Int_Tables_number       1
_space_group_crystal_system       triclinic
_cell_length_a                    14.8364
_cell_length_b                    15.44777
_cell_length_c                    19.079046
_cell_angle_alpha                 89.371376
_cell_angle_beta                  103.667359
_cell_angle_gamma                 82.288629
_cell_volume                      4206.33287796

loop_
_atom_site_label
_atom_site_type_symbol
_atom_type_description
_atom_site_fract_x
_atom_site_fract_y
_atom_site_fract_z
_atom_type_partial_charge
C1    C     C_R   0.441615 0.662433 0.491644 0.874275
C2    C     C_R   0.558368 0.337554 0.512073 0.882051
C3    C     C_R   0.407027 0.754378 0.498812 -0.111084
C4    C     C_R   0.593204 0.245157 0.530755 -0.094902
C5    C     C_R   0.282709 0.871455 0.507064 0.220940
C6    C     C_R   0.719075 0.126283 0.576265 0.219166
C7    C     C_R   0.312387 0.783640 0.494633 -0.218836
C8    C     C_R   0.688847 0.214486 0.554830 -0.275015
C9    C     C_R   0.472743 0.811540 0.517048 -0.266741
C10   C     C_R   0.527594 0.188405 0.529877 -0.268271
C11   C     C_R   0.447342 0.897301 0.533934 0.063571
C12   C     C_R   0.554825 0.101127 0.553394 0.053092
C13   C     C_R   0.350789 0.929110 0.525198 0.091957
C14   C     C_R   0.651898 0.068598 0.573661 0.141365
C15   C     C_R   0.516127 0.953458 0.554648 0.099833
C16   C     C_R   0.487055 0.044240 0.551445 0.087244
C17   C     C_R   0.391294 0.074987 0.545671 -0.226618
C18   C     C_R   0.612933 0.921938 0.577820 -0.242349
C19   C     C_R   0.324819 0.017960 0.534727 -0.212029
C20   C     C_R   0.679388 0.978916 0.588605 -0.220633
C21   C     C_R   0.844102 0.632502 0.612362 0.135955
C22   C     C_R   0.172846 0.336849 0.415790 0.131416
C23   C     C_R   0.500355 0.499391 0.634459 0.846449
C24   C     C_R   0.498722 0.502610 0.365501 0.845755
C25   C     C_R   0.752102 0.615458 0.588474 -0.061423
C26   C     C_R   0.254912 0.374595 0.421463 -0.021368
C27   C     C_R   0.798001 0.504816 0.513925 -0.033865
C28   C     C_R   0.204135 0.487213 0.492438 -0.067713
C29   C     C_R   0.893647 0.512516 0.540461 -0.041998
C30   C     C_R   0.123111 0.449661 0.493964 -0.030604
C31   C     C_R   0.916089 0.579133 0.589604 0.080068
C32   C     C_R   0.105947 0.375555 0.452275 0.054650
C33   C     C_R   0.966719 0.459302 0.517513 0.008996
C34   C     C_R   0.057973 0.484871 0.533982 -0.018473
C35   C     C_R   0.081836 0.541634 0.591801 0.179959
C36   C     C_R   0.953914 0.380095 0.481193 0.198868
C37   C     C_R   0.009941 0.588931 0.617668 -0.212944
C38   C     C_R   0.024301 0.338957 0.450563 -0.237397
C39   C     C_R   0.450759 0.451479 0.743216 -0.029866
C40   C     C_R   0.526472 0.581402 0.259293 -0.025286
C41   C     C_R   0.438197 0.470431 0.811814 -0.158517
C42   C     C_R   0.524088 0.583193 0.185822 -0.154526
C43   C     C_R   0.471312 0.543115 0.847037 0.008393
C44   C     C_R   0.489510 0.517167 0.142133 0.011869
C45   C     C_R   0.515039 0.600771 0.812423 0.009075
C46   C     C_R   0.458903 0.445557 0.172075 0.016675
C47   C     C_R   0.528067 0.581594 0.744030 -0.280220
C48   C     C_R   0.460721 0.444021 0.245422 -0.278438
C49   C     C_R   0.496039 0.508253 0.709283 -0.115357
C50   C     C_R   0.495150 0.510201 0.289023 -0.109497
C51   C     C_R   0.482855 0.528008 0.065354 0.353225
C52   C     C_R   0.471753 0.547799 0.923138 0.367114
H1    H     H_    0.027032 0.632658 0.661118 0.192297
H2    H     H_    0.014812 0.277238 0.425675 0.167857
H3    H     H_    0.218427 0.547613 0.517658 0.169210
H4    H     H_    0.773645 0.462438 0.471477 0.185154
H5    H     H_    0.309815 0.345892 0.396959 0.150594
H6    H     H_    0.696227 0.652549 0.607734 0.127713
H7    H     H_    0.406894 0.425596 0.839811 0.204268
H8    H     H_    0.545849 0.638209 0.161548 0.196774
H9    H     H_    0.559863 0.626243 0.716196 0.142655
H10   H     H_    0.438071 0.389322 0.269469 0.138112
H11   H     H_    0.252626 0.044887 0.531304 0.167494
H12   H     H_    0.752607 0.951891 0.605602 0.178979
H13   H     H_    0.454558 0.212607 0.507970 0.163103
H14   H     H_    0.544312 0.788692 0.515920 0.170232
H15   H     H_    0.740077 0.258872 0.557516 0.170405
H16   H     H_    0.262319 0.738033 0.480911 0.171329
H17   H     H_    0.366441 0.142858 0.551647 0.159731
H18   H     H_    0.638901 0.853345 0.589751 0.144587
N1    N     N_R   0.552592 0.555654 0.971991 -0.123955
N2    N     N_R   0.401424 0.521710 0.016671 -0.126688
N3    N     N_R   0.557801 0.546765 0.042126 -0.154555
N4    N     N_R   0.396235 0.530609 0.946490 -0.160653
N5    N     N_R   0.731690 0.552730 0.540620 -0.116997
N6    N     N_R   0.268310 0.447270 0.459380 -0.123520
O1    O     O_R   0.383120 0.605620 0.479520 -0.612050
O2    O     O_R   0.616880 0.394380 0.520480 -0.605645
O3    O     O_R   0.531890 0.639510 0.505590 -0.627720
O4    O     O_R   0.468110 0.360490 0.494410 -0.630810
O5    O     O_R   0.425590 0.483060 0.588820 -0.621648
O6    O     O_R   0.574410 0.516940 0.411180 -0.624261
O7    O     O_R   0.574360 0.516950 0.614890 -0.602940
O8    O     O_R   0.425640 0.483050 0.385110 -0.604210
Zn1   Zn    Zn3+2 0.400660 0.477370 0.482600 0.938495
Zn2   Zn    Zn3+2 0.599340 0.522630 0.517400 0.944279
C53   C     C_2   0.420884 0.370160 0.709799 0.403039
H19   H     H_    0.445053 0.345307 0.663507 0.076240
O9    O     O_2   0.369375 0.329169 0.734135 -0.560965
C54   C     C_2   0.556094 0.656744 0.302543 0.410387
H20   H     H_    0.541507 0.666100 0.355191 0.078832
O10   O     O_2   0.596361 0.710437 0.279294 -0.556144
N7    N     N_2   0.863311 0.702582 0.659013 -0.315392
H21   H     H_    0.816271 0.716287 0.690871 0.223957
C55   C     C_3   0.877571 0.780648 0.622837 -0.799821
H22   H     H_    0.892705 0.831856 0.662640 0.245255
H23   H     H_    0.813719 0.805560 0.580388 0.238071
H24   H     H_    0.937821 0.767041 0.597505 0.253582
N8    N     N_2   0.156660 0.260861 0.374920 -0.316664
H25   H     H_    0.096215 0.268717 0.334127 0.231929
C56   C     C_3   0.234854 0.205156 0.358409 -0.796605
H26   H     H_    0.211531 0.143052 0.337426 0.251419
H27   H     H_    0.292085 0.189031 0.407919 0.245063
H28   H     H_    0.260878 0.237636 0.316366 0.234196
N9    N     N_2   0.177908 0.540979 0.629251 -0.319768
H29   H     H_    0.216640 0.479787 0.641549 0.258045
C57   C     C_3   0.205616 0.607003 0.680076 -0.760865
H30   H     H_    0.283140 0.602841 0.694016 0.255456
H31   H     H_    0.182691 0.595954 0.730410 0.251381
H32   H     H_    0.175730 0.673342 0.655674 0.236392
N10   N     N_2   0.879080 0.333449 0.486689 -0.329503
H33   H     H_    0.897471 0.286341 0.528193 0.226326
C58   C     C_3   0.825063 0.303829 0.419986 -0.817463
H34   H     H_    0.757986 0.286983 0.428637 0.249008
H35   H     H_    0.863717 0.244541 0.402651 0.240197
H36   H     H_    0.808597 0.356301 0.376698 0.258612
C59   C     C_2   0.544893 0.682935 0.843683 0.412963
H37   H     H_    0.593034 0.715646 0.821530 0.058591
O11   O     O_2   0.513665 0.717025 0.892036 -0.542236
C60   C     C_2   0.428692 0.369296 0.130706 0.412685
H38   H     H_    0.388047 0.326515 0.151836 0.059981
O12   O     O_2   0.451904 0.350784 0.074848 -0.541226
N11   N     N_2   0.185715 0.903321 0.500178 -0.311220
H39   H     H_    0.158201 0.952644 0.461092 0.223492
C61   C     C_3   0.121749 0.842636 0.507472 -0.779648
H40   H     H_    0.054906 0.879741 0.513831 0.246365
H41   H     H_    0.151629 0.798470 0.556137 0.246788
H42   H     H_    0.106371 0.803930 0.458414 0.237053
N12   N     N_2   0.816838 0.095883 0.598668 -0.323760
H43   H     H_    0.856814 0.128020 0.572336 0.227762
C62   C     C_3   0.853578 0.091431 0.676108 -0.784503
H44   H     H_    0.928553 0.062444 0.689191 0.248204
H45   H     H_    0.815014 0.049690 0.702889 0.250982
H46   H     H_    0.847755 0.158088 0.697473 0.247922

loop_
_geom_bond_atom_site_label_1
_geom_bond_atom_site_label_2
_ccdc_geom_bond_type
C18   H18   S    
C15   C18   A    
C53   H19   S    
C17   H17   S    
C56   H26   S    
C27   C29   A    
C1    O1    A    
C55   H22   S    
C39   C53   S    
C4    C8    A    
C62   H46   S    
C55   H24   S    
N11   H39   S    
C39   C41   A    
N12   C62   S    
N9    C57   S    
N7    H21   S    
C22   C32   A    
C35   N9    S    
C35   C37   A    
C58   H34   S    
C3    C7    A    
C59   O11   D    
C43   C52   S    
N11   C61   S    
C15   C16   A    
C29   C33   A    
C33   C36   A    
C34   C35   A    
C24   O6    A    
C9    H14   S    
C7    H16   S    
C11   C15   A    
C12   C16   A    
C19   H11   S    
C16   C17   A    
C61   H42   S    
C26   N6    A    
C57   H30   S    
C32   C38   A    
C41   C43   A    
C5    C13   A    
C58   H36   S    
C37   H1    S    
O2    Zn2   S    
C40   C42   A    
O1    Zn1   S    
N7    C55   S    
C57   H31   S    
C42   C44   A    
C6    N12   S    
C27   N5    A    
C10   C12   A    
C28   H3    S    
C44   C46   A    
C45   C47   A    
C24   C50   S    
C46   C48   A    
C30   C34   A    
C14   C20   A    
O8    Zn1   S    
C41   H7    S    
N2    N4    A    
C42   H8    S    
N1    N3    A    
C13   C19   A    
C27   H4    S    
C6    C8    A    
O6    Zn2   S    
C31   C37   A    
C1    C3    S    
C20   H12   S    
C2    C4    S    
O4    Zn1   S    
C2    O2    A    
C6    C14   A    
C21   C31   A    
N5    Zn2   S    
C54   O10   D    
N8    H25   S    
C38   H2    S    
C36   N10   S    
C33   C34   A    
C46   C60   S    
N10   C58   S    
C3    C9    A    
C9    C11   A    
C23   O7    A    
C44   C51   S    
C39   C49   A    
C12   C14   A    
C56   H28   S    
C53   O9    D    
C22   C26   A    
C61   H40   S    
C1    O3    A    
C57   H32   S    
C25   H6    S    
C4    C10   A    
C62   H44   S    
C28   N6    A    
C48   H10   S    
C60   H38   S    
C60   O12   D    
C5    C7    A    
N12   H43   S    
C56   H27   S    
C10   H13   S    
C45   C59   S    
C21   C25   A    
C22   N8    S    
C23   O5    A    
N10   H33   S    
N8    C56   S    
C51   N3    A    
C62   H45   S    
C47   H9    S    
C55   H23   S    
C47   C49   A    
C23   C49   S    
N9    H29   S    
C5    N11   S    
C52   N4    A    
C40   C54   S    
C28   C30   A    
C24   O8    A    
C43   C45   A    
C52   N1    A    
C59   H37   S    
C36   C38   A    
C30   C32   A    
C11   C13   A    
C54   H20   S    
C21   N7    S    
C40   C50   A    
C48   C50   A    
C17   C19   A    
C18   C20   A    
C26   H5    S    
C2    O4    A    
O7    Zn2   S    
C8    H15   S    
C29   C31   A    
C51   N2    A    
C61   H41   S    
C25   N5    A    
N6    Zn1   S    
O3    Zn2   S    
O5    Zn1   S    
C58   H35   S    
