data_mof_unit_33130.cif
_audit_creation_date              2012-12-10T19:03:35-0500
_audit_creation_method            fapswitch 2.2
_symmetry_space_group_name_H-M    P1
_symmetry_Int_Tables_number       1
_space_group_crystal_system       triclinic
_cell_length_a                    15.879989
_cell_length_b                    10.878433
_cell_length_c                    9.589168
_cell_angle_alpha                 90.551358
_cell_angle_beta                  89.072861
_cell_angle_gamma                 91.012128
_cell_volume                      1655.97546255

loop_
_atom_site_label
_atom_site_type_symbol
_atom_type_description
_atom_site_fract_x
_atom_site_fract_y
_atom_site_fract_z
_atom_type_partial_charge
C1    C     C_R   0.498974 0.262852 0.499478 0.814813
C2    C     C_3   0.948345 0.509416 0.638461 -0.529972
C3    C     C_3   0.917069 0.474313 0.489344 0.154375
C4    C     C_3   0.952347 0.573783 0.387988 -0.430126
C5    C     C_3   0.049567 0.587645 0.399226 0.066618
C6    C     C_1   0.824639 0.480866 0.494204 -0.014648
C7    C     C_1   0.175482 0.490657 0.502625 -0.009310
C8    C     C_1   0.250910 0.495411 0.503443 -0.185431
C9    C     C_R   0.525314 0.066962 0.614920 -0.042332
C10   C     C_R   0.500759 0.130245 0.497579 -0.132499
C11   C     C_R   0.478507 0.064344 0.377434 -0.277875
C12   C     C_R   0.340401 0.499471 0.501122 0.810959
C13   C     C_R   0.474561 0.935881 0.378477 0.250720
C14   C     C_R   0.499883 0.871875 0.498439 -0.164367
C15   C     C_R   0.528080 0.939754 0.614191 -0.035101
C16   C     C_3   0.497563 0.935219 0.763876 0.501864
C17   C     C_3   0.489626 0.075562 0.760279 0.006473
C18   C     C_R   0.573921 0.505930 0.071655 0.201362
C19   C     C_R   0.426973 0.489574 0.075629 -0.100644
C20   C     C_R   0.426934 0.490467 0.927674 -0.076835
C21   C     C_R   0.573916 0.501138 0.923933 0.192194
C22   C     C_3   0.639331 0.598687 0.910110 -0.544906
C23   C     C_R   0.499301 0.737728 0.500287 0.828201
C24   C     C_3   0.634465 0.613289 0.067540 0.048291
C25   C     C_R   0.659729 0.498150 0.499078 0.824583
C26   C     C_3   0.045818 0.510034 0.644879 0.020813
C27   C     C_3   0.052651 0.353283 0.445281 0.047290
C28   C     C_3   0.951846 0.343821 0.438804 0.475440
C29   C     C_1   0.749255 0.489402 0.497156 -0.182182
C30   C     C_3   0.083160 0.484061 0.496297 0.094901
Cu1   Cu    Cu3+1 0.500000 0.499980 0.640670 0.948547
Cu2   Cu    Cu3+1 0.500000 0.500020 0.359330 0.953706
H1    H     H_    0.423898 0.109966 0.761916 0.127267
H2    H     H_    0.367347 0.481440 0.130626 0.153056
H3    H     H_    0.367410 0.483617 0.875074 0.150445
H4    H     H_    0.604926 0.700071 0.104769 0.169574
H5    H     H_    0.074007 0.287618 0.524673 0.144064
N1    N     N_R   0.500530 0.500930 0.147930 -0.192721
N2    N     N_R   0.500530 0.500890 0.852020 -0.166793
O1    O     O_R   0.500000 0.319640 0.618810 -0.587745
O2    O     O_R   0.500010 0.319680 0.381230 -0.584943
O3    O     O_R   0.379430 0.499990 0.618840 -0.580985
O4    O     O_R   0.379440 0.500030 0.381260 -0.587102
O5    O     O_R   0.499990 0.680320 0.618770 -0.550887
O6    O     O_R   0.500000 0.680360 0.381190 -0.545397
O7    O     O_R   0.620560 0.499970 0.618740 -0.588880
O8    O     O_R   0.620570 0.500010 0.381160 -0.553965
H6    H     H_    0.919308 0.449590 0.719848 0.185263
H7    H     H_    0.067118 0.604585 0.676138 0.147913
H8    H     H_    0.926428 0.603518 0.665792 0.172317
H9    H     H_    0.934910 0.548577 0.279555 0.216656
H10   H     H_    0.457531 0.112437 0.286368 0.161476
N3    N     N_2   0.438329 0.872692 0.263166 -0.406093
H11   H     H_    0.450986 0.914805 0.169528 0.227425
C31   C     C_3   0.349795 0.841996 0.282171 -0.677164
H12   H     H_    0.312030 0.927072 0.285444 0.207538
H13   H     H_    0.338820 0.790077 0.380219 0.221952
H14   H     H_    0.328225 0.783055 0.194216 0.226254
N4    N     N_2   0.416601 0.869688 0.775311 -0.417634
H15   H     H_    0.372627 0.896128 0.703811 0.221678
C32   C     C_3   0.380305 0.851323 0.912567 -0.730808
H16   H     H_    0.317895 0.804498 0.903386 0.222674
H17   H     H_    0.371285 0.941150 0.966077 0.213203
H18   H     H_    0.420778 0.790406 0.973698 0.255229
N5    N     N_2   0.560842 0.890221 0.859953 -0.393848
H19   H     H_    0.546881 0.905790 0.963797 0.254979
C33   C     C_3   0.650044 0.908176 0.826755 -0.710182
H20   H     H_    0.688273 0.871528 0.912388 0.216763
H21   H     H_    0.666907 0.006713 0.814510 0.251402
H22   H     H_    0.667148 0.857659 0.729483 0.223729
N6    N     N_2   0.545157 0.142470 0.854478 -0.409209
H23   H     H_    0.577981 0.215318 0.810422 0.281353
C34   C     C_3   0.507771 0.173407 0.988261 -0.690287
H24   H     H_    0.456113 0.239330 0.974848 0.226560
H25   H     H_    0.556300 0.215642 0.056626 0.231405
H26   H     H_    0.481987 0.089884 0.039324 0.210866
N7    N     N_2   0.075500 0.423214 0.747743 -0.415953
H27   H     H_    0.047537 0.337104 0.745495 0.246325
C35   C     C_3   0.085489 0.470959 0.887911 -0.686984
H28   H     H_    0.110036 0.398029 0.955719 0.225065
H29   H     H_    0.023958 0.501739 0.931201 0.237394
H30   H     H_    0.131627 0.548846 0.887636 0.225641
H31   H     H_    0.699698 0.561831 0.868482 0.194120
H32   H     H_    0.615210 0.676388 0.851327 0.248350
N8    N     N_2   0.713548 0.588055 0.133768 -0.385341
H33   H     H_    0.742498 0.509716 0.097334 0.248093
C36   C     C_3   0.770224 0.693145 0.143134 -0.711016
H34   H     H_    0.825725 0.668958 0.204665 0.216980
H35   H     H_    0.738578 0.771154 0.196714 0.231982
H36   H     H_    0.791880 0.721529 0.037286 0.220021
N9    N     N_2   0.095823 0.322699 0.313701 -0.421949
H37   H     H_    0.075073 0.361727 0.223329 0.285607
C37   C     C_3   0.131882 0.201930 0.298256 -0.759278
H38   H     H_    0.172354 0.199377 0.202803 0.231383
H39   H     H_    0.081455 0.130736 0.288186 0.222213
H40   H     H_    0.171786 0.181280 0.388894 0.237010
N10   N     N_2   0.919772 0.247266 0.533342 -0.432183
H41   H     H_    0.927306 0.264527 0.637927 0.228509
C38   C     C_3   0.935808 0.119247 0.499793 -0.748494
H42   H     H_    0.902767 0.059848 0.577550 0.226325
H43   H     H_    0.004044 0.100208 0.504266 0.217448
H44   H     H_    0.911124 0.093076 0.396058 0.246836
N11   N     N_2   0.925406 0.313939 0.295064 -0.424948
H45   H     H_    0.957884 0.242914 0.248793 0.265669
C39   C     C_3   0.836632 0.300687 0.263620 -0.699020
H46   H     H_    0.828678 0.247934 0.164707 0.204286
H47   H     H_    0.809687 0.391898 0.246798 0.239908
H48   H     H_    0.801406 0.251327 0.347577 0.257964
H49   H     H_    0.063827 0.677633 0.451329 0.125318
N12   N     N_2   0.089328 0.590121 0.260664 -0.410882
H50   H     H_    0.151548 0.564876 0.256619 0.271996
C40   C     C_3   0.076810 0.701473 0.182367 -0.751798
H51   H     H_    0.107124 0.692904 0.077810 0.224351
H52   H     H_    0.105898 0.781698 0.237104 0.221556
H53   H     H_    0.008703 0.717695 0.167894 0.238205
H54   H     H_    0.923402 0.664280 0.411779 0.147968

loop_
_geom_bond_atom_site_label_1
_geom_bond_atom_site_label_2
_ccdc_geom_bond_type
C28   N10   S    
C31   H12   S    
C37   H38   S    
C23   O6    A    
Cu1   O3    S    
C18   C21   A    
Cu2   O6    S    
C19   C20   A    
C36   H34   S    
C3    C6    S    
C40   H52   S    
N10   H41   S    
C7    C8    T    
N8    H33   S    
C39   H47   S    
C24   H4    S    
C18   C24   S    
C3    C28   S    
C12   O4    A    
C5    N12   S    
C15   C16   S    
Cu1   O1    S    
C34   H24   S    
C32   H17   S    
N12   H50   S    
C12   O3    A    
C11   H10   S    
C2    H8    S    
C1    O1    A    
C20   H3    S    
C38   H42   S    
C16   C17   S    
N5    C33   S    
Cu1   O7    S    
Cu2   O2    S    
C27   N9    S    
Cu2   N1    S    
C24   N8    S    
C25   O8    A    
N7    C35   S    
N4    H15   S    
C37   H39   S    
C7    C30   S    
C21   C22   S    
C27   C30   S    
C34   H25   S    
C17   H1    S    
C40   H51   S    
N10   C38   S    
C13   N3    S    
N3    C31   S    
C25   C29   S    
C39   H48   S    
N4    C32   S    
C26   N7    S    
Cu1   O5    S    
C4    H9    S    
C33   H20   S    
N11   C39   S    
C26   H7    S    
N9    H37   S    
C35   H29   S    
C20   N2    A    
C2    H6    S    
N7    H27   S    
C23   O5    A    
C33   H21   S    
C16   N4    S    
C22   H32   S    
C14   C23   S    
C32   H18   S    
C19   N1    A    
N9    C37   S    
Cu1   Cu2   S    
C21   N2    A    
C8    C12   S    
C38   H44   S    
C2    C26   S    
C1    O2    A    
C38   H43   S    
C17   N6    S    
C37   H40   S    
C36   H35   S    
C34   H26   S    
C22   C24   S    
C31   H14   S    
C3    C4    S    
N11   H45   S    
N6    C34   S    
C5    C30   S    
C9    C10   A    
C9    C17   S    
C4    H54   S    
C1    C10   S    
C4    C5    S    
C19   H2    S    
C35   H30   S    
N3    H11   S    
C39   H46   S    
C33   H22   S    
C22   H31   S    
C31   H13   S    
C2    C3    S    
C18   N1    A    
N6    H23   S    
C11   C13   A    
C28   N11   S    
C5    H49   S    
C27   H5    S    
Cu2   O8    S    
Cu2   O4    S    
Cu1   N2    S    
C9    C15   A    
C32   H16   S    
N12   C40   S    
C10   C11   A    
C35   H28   S    
N8    C36   S    
C6    C29   T    
N5    H19   S    
C36   H36   S    
C27   C28   S    
C14   C15   A    
C16   N5    S    
C13   C14   A    
C25   O7    A    
C40   H53   S    
C26   C30   S    
