data_mof_unit_63394.cif
_audit_creation_date              2013-03-05T15:51:28-0500
_audit_creation_method            fapswitch 2.2
_symmetry_space_group_name_H-M    P1
_symmetry_Int_Tables_number       1
_space_group_crystal_system       triclinic
_cell_length_a                    36.986437
_cell_length_b                    30.175932
_cell_length_c                    21.503677
_cell_angle_alpha                 90.186117
_cell_angle_beta                  54.527941
_cell_angle_gamma                 90.181929
_cell_volume                      19545.6493704

loop_
_atom_site_label
_atom_site_type_symbol
_atom_site_description
_atom_site_fract_x
_atom_site_fract_y
_atom_site_fract_z
_atom_type_partial_charge
O1    O     O_R   0.933920 0.537280 0.566050 -0.612066
O2    O     O_R   0.066080 0.537280 0.433950 -0.612358
O3    O     O_R   0.433920 0.037280 0.566050 -0.611661
O4    O     O_R   0.566080 0.037280 0.433950 -0.612710
O5    O     O_R   0.933880 0.462680 0.566080 -0.608373
O6    O     O_R   0.066120 0.462680 0.433920 -0.608421
O7    O     O_R   0.433880 0.962680 0.566080 -0.608789
O8    O     O_R   0.566120 0.962680 0.433920 -0.608083
C1    C     C_R   0.913263 0.499949 0.586532 0.897671
C2    C     C_R   0.086750 0.500021 0.413469 0.897475
C3    C     C_R   0.413264 0.999953 0.586451 0.897536
C4    C     C_R   0.586751 0.000016 0.413391 0.897729
O9    O     O_R   0.999990 0.537270 0.407410 -0.630373
O10   O     O_R   0.000010 0.537270 0.592590 -0.630088
O11   O     O_R   0.499990 0.037270 0.407410 -0.630536
O12   O     O_R   0.500010 0.037270 0.592590 -0.629883
O13   O     O_R   0.999940 0.462670 0.407440 -0.601016
O14   O     O_R   0.000060 0.462670 0.592560 -0.602157
O15   O     O_R   0.499940 0.962670 0.407440 -0.600903
O16   O     O_R   0.500060 0.962670 0.592560 -0.602408
C5    C     C_R   0.998672 0.499833 0.380045 0.884931
C6    C     C_R   0.001260 0.499942 0.620030 0.885094
C7    C     C_R   0.498664 0.999833 0.380053 0.884413
C8    C     C_R   0.501244 0.999942 0.620046 0.885729
Zn1   Zn    Zn3+2 1.000000 0.549780 0.500000 1.024800
Zn2   Zn    Zn3+2 0.500000 0.049780 0.500000 1.024865
Zn3   Zn    Zn3+2 1.000000 0.450160 0.500000 1.065023
Zn4   Zn    Zn3+2 0.500000 0.950160 0.500000 1.064922
C9    C     C_3   0.966980 0.535461 0.318622 -0.473463
C10   C     C_3   0.033603 0.535221 0.681033 -0.475452
C11   C     C_3   0.467127 0.035584 0.318463 -0.473242
C12   C     C_3   0.533840 0.035007 0.680772 -0.475871
H1    H     H_    0.975180 0.568649 0.330083 0.222440
H2    H     H_    0.025987 0.568501 0.669223 0.221875
H3    H     H_    0.475473 0.068743 0.329748 0.222437
H4    H     H_    0.526472 0.068330 0.668671 0.221872
H5    H     H_    0.932342 0.527439 0.367376 0.199131
H6    H     H_    0.068083 0.526671 0.632339 0.198390
H7    H     H_    0.432457 0.027716 0.367267 0.199078
H8    H     H_    0.568260 0.026200 0.632165 0.198411
C13   C     C_3   0.969924 0.537946 0.244439 -0.411901
C14   C     C_3   0.030733 0.537760 0.755187 -0.410866
C15   C     C_3   0.470066 0.038034 0.244283 -0.412035
C16   C     C_3   0.530967 0.037601 0.754929 -0.410654
H9    H     H_    0.935881 0.535491 0.258562 0.237892
H10   H     H_    0.064734 0.534821 0.741064 0.237224
H11   H     H_    0.436011 0.035684 0.258431 0.237987
H12   H     H_    0.564945 0.034481 0.740846 0.237028
H13   H     H_    0.983874 0.570655 0.216871 0.230452
H14   H     H_    0.017358 0.570669 0.782429 0.231041
H15   H     H_    0.484122 0.070692 0.216575 0.230278
H16   H     H_    0.517777 0.070594 0.781933 0.231337
H17   H     H_    0.056217 0.544125 0.246788 0.148618
H18   H     H_    0.944528 0.545227 0.752890 0.148940
H19   H     H_    0.556399 0.043880 0.246625 0.148396
H20   H     H_    0.444843 0.045635 0.752611 0.149303
H21   H     H_    0.060556 0.541047 0.137883 0.165422
H22   H     H_    0.940205 0.542265 0.861796 0.164693
H23   H     H_    0.560708 0.040806 0.137750 0.165467
H24   H     H_    0.440467 0.042663 0.861571 0.164605
C17   C     C_3   0.046934 0.510134 0.240411 0.096080
C18   C     C_3   0.953204 0.511112 0.759590 0.095588
C19   C     C_3   0.546977 0.009928 0.240378 0.095777
C20   C     C_3   0.453280 0.011456 0.759532 0.095903
C21   C     C_3   0.984120 0.453605 0.300391 -0.383737
C22   C     C_3   0.014987 0.453640 0.700188 -0.382408
C23   C     C_3   0.483932 0.953656 0.300590 -0.383927
C24   C     C_3   0.514662 0.953557 0.700531 -0.382139
C25   C     C_3   0.999279 0.499479 0.311273 0.013020
C26   C     C_3   0.000652 0.499730 0.688811 0.013895
C27   C     C_3   0.499276 0.999472 0.311278 0.013449
C28   C     C_3   0.500643 0.999740 0.688822 0.013468
H25   H     H_    0.007392 0.427169 0.292210 0.261276
H26   H     H_    0.991266 0.427532 0.708565 0.261089
H27   H     H_    0.507088 0.927124 0.292546 0.261335
H28   H     H_    0.490747 0.927616 0.709133 0.260983
H29   H     H_    0.950956 0.444802 0.352783 0.154940
H30   H     H_    0.048007 0.444346 0.647917 0.155372
H31   H     H_    0.450728 0.944997 0.353014 0.154569
H32   H     H_    0.547607 0.944022 0.648317 0.155863
C29   C     C_3   0.000177 0.500294 0.189376 -0.051379
C30   C     C_3   0.999799 0.500571 0.810668 -0.050685
C31   C     C_3   0.500182 0.000271 0.189374 -0.051226
C32   C     C_3   0.499804 0.000606 0.810666 -0.050794
C33   C     C_3   0.047760 0.508753 0.168120 -0.343473
C34   C     C_3   0.952374 0.509771 0.831884 -0.343565
C35   C     C_3   0.547796 0.008554 0.168091 -0.343488
C36   C     C_3   0.452438 0.010102 0.831835 -0.343660
C37   C     C_3   0.981106 0.455281 0.231953 0.154609
C38   C     C_3   0.017996 0.455265 0.768618 0.151880
C39   C     C_3   0.480945 0.955330 0.232122 0.154670
C40   C     C_3   0.517715 0.955184 0.768911 0.151756
H33   H     H_    0.945175 0.454208 0.255271 0.134303
H34   H     H_    0.053890 0.453600 0.745386 0.133920
H35   H     H_    0.445014 0.954379 0.255422 0.134275
H36   H     H_    0.553603 0.953309 0.745655 0.133892
H37   H     H_    0.071340 0.483248 0.127641 0.264168
H38   H     H_    0.928308 0.484653 0.872636 0.264591
H39   H     H_    0.571283 0.982968 0.127695 0.263961
H40   H     H_    0.428219 0.985125 0.872722 0.264859
C41   C     C_R   0.656896 0.471363 0.877886 -0.193792
C42   C     C_R   0.343068 0.470804 0.122710 -0.202279
C43   C     C_R   0.156896 0.971788 0.878596 -0.194364
C44   C     C_R   0.843070 0.970398 0.123438 -0.201860
C45   C     C_R   0.634386 0.502597 0.864978 -0.125030
C46   C     C_R   0.365664 0.502702 0.134631 -0.120013
C47   C     C_R   0.134388 0.002768 0.865242 -0.125151
C48   C     C_R   0.865667 0.002543 0.134894 -0.119740
C49   C     C_R   0.657169 0.533834 0.805964 0.256365
C50   C     C_R   0.343020 0.535283 0.191408 0.267538
C51   C     C_R   0.157170 0.034249 0.806657 0.257143
C52   C     C_R   0.843020 0.034884 0.192127 0.266569
C53   C     C_R   0.703736 0.533788 0.760031 0.026893
C54   C     C_R   0.296448 0.535463 0.236929 0.022159
C55   C     C_R   0.203741 0.034420 0.761097 0.026911
C56   C     C_R   0.796451 0.034857 0.238030 0.022143
C57   C     C_R   0.726650 0.501189 0.772058 -0.012383
C58   C     C_R   0.273404 0.502302 0.225799 -0.012247
C59   C     C_R   0.226667 0.002164 0.773727 -0.012046
C60   C     C_R   0.773417 0.001364 0.227529 -0.012563
C61   C     C_R   0.703043 0.469305 0.830599 -0.037030
C62   C     C_R   0.296882 0.469842 0.168112 -0.033503
C63   C     C_R   0.203079 0.970679 0.832971 -0.036063
C64   C     C_R   0.796911 0.968521 0.170570 -0.034612
C65   C     C_R   0.727904 0.565569 0.702452 -0.152800
C66   C     C_R   0.272398 0.567920 0.293401 -0.149445
C67   C     C_R   0.227908 0.065978 0.703103 -0.152922
C68   C     C_R   0.772400 0.067530 0.294069 -0.149327
C69   C     C_R   0.773954 0.565794 0.657230 0.246344
C70   C     C_R   0.226340 0.567996 0.338914 0.247300
C71   C     C_R   0.273962 0.066068 0.657617 0.246343
C72   C     C_R   0.726347 0.067735 0.339310 0.247319
C73   C     C_R   0.796908 0.533407 0.668403 0.074416
C74   C     C_R   0.203261 0.534796 0.329149 0.073743
C75   C     C_R   0.296920 0.033736 0.668887 0.074655
C76   C     C_R   0.703271 0.034478 0.329657 0.073502
C77   C     C_R   0.773173 0.500609 0.725627 0.007870
C78   C     C_R   0.226880 0.501519 0.272674 0.008313
C79   C     C_R   0.273184 0.001297 0.726782 0.007756
C80   C     C_R   0.726889 0.000851 0.273881 0.008467
C81   C     C_R   0.796066 0.467275 0.736200 -0.008414
C82   C     C_R   0.203874 0.467472 0.263347 -0.009516
C83   C     C_R   0.296071 0.968011 0.737471 -0.009252
C84   C     C_R   0.703878 0.966749 0.264690 -0.008665
C85   C     C_R   0.772343 0.435124 0.793910 0.192680
C86   C     C_R   0.227462 0.435125 0.205802 0.193064
C87   C     C_R   0.272372 0.936545 0.796419 0.194190
C88   C     C_R   0.727487 0.933736 0.208438 0.191544
C89   C     C_R   0.725859 0.436289 0.841325 0.255616
C90   C     C_R   0.273928 0.436565 0.157781 0.254140
C91   C     C_R   0.225919 0.938177 0.844615 0.253310
C92   C     C_R   0.773977 0.934740 0.161209 0.256613
C93   C     C_R   0.843079 0.532956 0.623735 -0.192982
C94   C     C_R   0.157079 0.533998 0.374491 -0.192242
C95   C     C_R   0.343093 0.033013 0.623718 -0.192740
C96   C     C_R   0.657093 0.033942 0.374483 -0.192471
C97   C     C_R   0.865400 0.499929 0.633723 -0.102691
C98   C     C_R   0.134640 0.500214 0.365866 -0.103449
C99   C     C_R   0.365401 0.999995 0.633768 -0.102294
C100  C     C_R   0.634640 0.000145 0.365928 -0.103778
C101  C     C_R   0.842345 0.466997 0.688457 -0.113258
C102  C     C_R   0.157609 0.466893 0.311741 -0.113876
C103  C     C_R   0.342333 0.967336 0.689036 -0.113701
C104  C     C_R   0.657598 0.966555 0.312365 -0.113335
H41   H     H_    0.637789 0.448072 0.924370 0.201801
H42   H     H_    0.362129 0.445975 0.078880 0.196609
H43   H     H_    0.137767 0.947685 0.923660 0.198744
H44   H     H_    0.862120 0.946343 0.078143 0.199702
H45   H     H_    0.711534 0.590903 0.691877 0.228160
H46   H     H_    0.288873 0.593772 0.303096 0.228217
H47   H     H_    0.211531 0.091148 0.692237 0.228097
H48   H     H_    0.788871 0.093543 0.303456 0.228297
H49   H     H_    0.862226 0.557637 0.579913 0.196309
H50   H     H_    0.138027 0.559020 0.417782 0.196878
H51   H     H_    0.362251 0.057481 0.579488 0.195914
H52   H     H_    0.638050 0.059173 0.417346 0.197265
H53   H     H_    0.861104 0.441971 0.694113 0.218065
H54   H     H_    0.138796 0.441261 0.307127 0.217621
H55   H     H_    0.361072 0.942222 0.694567 0.217545
H56   H     H_    0.638767 0.941005 0.307621 0.218067
O17   O     O_R   0.962660 0.566020 0.037320 -0.577195
O18   O     O_R   0.037340 0.566020 0.962680 -0.577179
O19   O     O_R   0.462660 0.066020 0.037320 -0.577206
O20   O     O_R   0.537340 0.066020 0.962680 -0.577166
C105  C     C_R   0.000034 0.586850 0.000029 0.953484
C106  C     C_R   0.500036 0.086850 0.000026 0.953450
O21   O     O_R   0.962680 0.499950 0.129900 -0.609875
O22   O     O_R   0.037320 0.499950 0.870100 -0.610408
O23   O     O_R   0.462680 0.999950 0.129900 -0.609809
O24   O     O_R   0.537320 0.999950 0.870100 -0.610541
O25   O     O_R   0.037280 0.499990 0.055330 -0.622359
O26   O     O_R   0.962720 0.499990 0.944670 -0.621681
O27   O     O_R   0.537280 0.999990 0.055330 -0.622592
O28   O     O_R   0.462720 0.999990 0.944670 -0.621308
C107  C     C_R   0.000076 0.500835 0.121259 0.892358
C108  C     C_R   0.999925 0.501038 0.878760 0.891624
C109  C     C_R   0.500078 0.000815 0.121258 0.892322
C110  C     C_R   0.499928 0.001071 0.878760 0.891634
Zn5   Zn    Zn3+2 0.950160 0.499940 0.049810 1.093710
Zn6   Zn    Zn3+2 0.049840 0.499940 0.950190 1.092590
Zn7   Zn    Zn3+2 0.450160 0.999940 0.049810 1.094238
Zn8   Zn    Zn3+2 0.549840 0.999940 0.950190 1.092099
O29   O     O_R   0.962680 0.433880 0.037290 -0.614429
O30   O     O_R   0.037320 0.433880 0.962710 -0.614652
O31   O     O_R   0.462680 0.933880 0.037290 -0.614141
O32   O     O_R   0.537320 0.933880 0.962710 -0.614976
C111  C     C_R   0.999948 0.413259 0.999747 0.958723
C112  C     C_R   0.499948 0.913259 0.999760 0.958764
O33   O     O_R   0.499930 0.433870 0.947760 -0.622807
O34   O     O_R   0.500070 0.433870 0.052240 -0.621670
O35   O     O_R   0.999930 0.933870 0.947760 -0.622671
O36   O     O_R   0.000070 0.933870 0.052240 -0.621930
C113  C     C_R   0.499978 0.413426 0.999934 0.854723
C114  C     C_R   0.999963 0.913426 0.999946 0.854620
O37   O     O_R   0.566010 0.499970 0.881660 -0.600713
O38   O     O_R   0.433990 0.499970 0.118340 -0.606370
O39   O     O_R   0.066010 0.999970 0.881660 -0.602252
O40   O     O_R   0.933990 0.999970 0.118340 -0.604744
O41   O     O_R   0.566080 0.499950 0.986150 -0.594894
O42   O     O_R   0.433920 0.499950 0.013850 -0.585199
O43   O     O_R   0.066080 0.999950 0.986150 -0.590173
O44   O     O_R   0.933920 0.999950 0.013850 -0.590059
C115  C     C_R   0.586602 0.501190 0.913254 0.912559
C116  C     C_R   0.413411 0.501040 0.086715 0.930529
C117  C     C_R   0.086605 0.001152 0.913271 0.909344
C118  C     C_R   0.913414 0.001077 0.086731 0.933975
Zn9   Zn    Zn3+2 0.499930 0.499950 0.930250 1.117414
Zn10  Zn    Zn3+2 0.500070 0.499950 0.069750 1.113590
Zn11  Zn    Zn3+2 0.999930 0.999950 0.930250 1.112232
Zn12  Zn    Zn3+2 0.000070 0.999950 0.069750 1.118638
O45   O     O_R   0.499950 0.566010 0.947790 -0.568714
O46   O     O_R   0.500050 0.566010 0.052210 -0.564865
O47   O     O_R   0.999950 0.066010 0.947790 -0.568762
O48   O     O_R   0.000050 0.066010 0.052210 -0.564855
C119  C     C_R   0.500542 0.586663 0.999706 0.989356
C120  C     C_R   0.000550 0.086663 0.999699 0.989515
C121  C     C_R   0.530774 0.343398 0.932600 -0.213647
C122  C     C_R   0.469030 0.343474 0.067095 -0.222891
C123  C     C_R   0.030722 0.843398 0.932601 -0.222848
C124  C     C_R   0.968981 0.843474 0.067098 -0.213621
C125  C     C_R   0.499900 0.365990 0.999841 -0.044034
C126  C     C_R   0.999865 0.865990 0.999854 -0.044216
C127  C     C_R   0.468338 0.297478 0.067265 0.119119
C128  C     C_R   0.531536 0.297404 0.932516 0.117409
C129  C     C_R   0.968277 0.797477 0.067256 0.117555
C130  C     C_R   0.031471 0.797404 0.932504 0.118879
C131  C     C_R   0.499958 0.274159 0.999917 0.112428
C132  C     C_R   0.999897 0.774158 0.999905 0.112356
C133  C     C_R   0.436625 0.274559 0.133541 -0.192085
C134  C     C_R   0.563337 0.274412 0.866329 -0.187830
C135  C     C_R   0.936561 0.774556 0.133526 -0.186828
C136  C     C_R   0.063265 0.774414 0.866308 -0.192902
C137  C     C_R   0.935728 0.728564 0.133210 -0.100609
C138  C     C_R   0.064253 0.728438 0.866774 -0.100660
C139  C     C_R   0.435784 0.228568 0.133226 -0.100431
C140  C     C_R   0.564317 0.228435 0.866796 -0.100719
C141  C     C_R   0.967052 0.704685 0.066662 -0.003335
C142  C     C_R   0.032990 0.704637 0.933383 -0.002479
C143  C     C_R   0.467097 0.204688 0.066674 -0.002898
C144  C     C_R   0.533041 0.204635 0.933399 -0.002902
C145  C     C_R   0.999969 0.727721 0.999975 -0.021275
C146  C     C_R   0.500023 0.227721 0.999989 -0.021268
C147  C     C_R   0.966434 0.658334 0.065908 0.237229
C148  C     C_R   0.033775 0.658306 0.934281 0.236494
C149  C     C_R   0.466460 0.158338 0.065912 0.236985
C150  C     C_R   0.533806 0.158303 0.934290 0.236734
C151  C     C_R   0.000099 0.635202 0.000077 -0.310551
C152  C     C_R   0.500114 0.135203 0.000076 -0.310538
H57   H     H_    0.554691 0.361722 0.881127 0.158063
H58   H     H_    0.445127 0.361855 0.118573 0.155465
H59   H     H_    0.054639 0.861722 0.881128 0.155919
H60   H     H_    0.945081 0.861855 0.118579 0.157849
H61   H     H_    0.412302 0.292208 0.185540 0.168771
H62   H     H_    0.587639 0.291996 0.814299 0.170228
H63   H     H_    0.912235 0.792203 0.185525 0.170487
H64   H     H_    0.087562 0.792000 0.814275 0.168657
H65   H     H_    0.910688 0.711988 0.185751 0.206152
H66   H     H_    0.089371 0.711800 0.814307 0.205799
H67   H     H_    0.410741 0.211993 0.185766 0.205979
H68   H     H_    0.589436 0.211796 0.814333 0.205954
C153  C     C_R   0.531462 0.657416 0.006128 0.253578
C154  C     C_R   0.466230 0.657223 0.002465 0.258833
C155  C     C_R   0.031472 0.157423 0.006106 0.253043
C156  C     C_R   0.966207 0.157217 0.002536 0.259438
C157  C     C_R   0.499408 0.634681 0.002548 -0.281719
C158  C     C_R   0.999409 0.134681 0.002557 -0.281806
C159  C     C_R   0.462967 0.703571 0.011069 -0.083008
C160  C     C_R   0.529923 0.703981 0.011544 -0.079478
C161  C     C_R   0.962952 0.203568 0.011100 -0.083141
C162  C     C_R   0.029907 0.203985 0.011577 -0.079255
C163  C     C_R   0.496624 0.726831 0.010651 -0.067743
C164  C     C_R   0.996612 0.226831 0.010668 -0.067772
C165  C     C_R   0.427509 0.727719 0.018879 0.329448
C166  C     C_R   0.561108 0.728786 0.016281 0.328876
C167  C     C_R   0.927499 0.227718 0.018891 0.329625
C168  C     C_R   0.061068 0.228791 0.016377 0.328691
C169  C     C_R   0.929402 0.273794 0.015088 -0.223799
C170  C     C_R   0.062562 0.274705 0.009489 -0.221969
C171  C     C_R   0.429400 0.773796 0.015116 -0.223746
C172  C     C_R   0.562591 0.774701 0.009422 -0.221997
C173  C     C_R   0.964127 0.296560 0.008809 0.059276
C174  C     C_R   0.031397 0.296958 0.004776 0.060214
C175  C     C_R   0.464123 0.796561 0.008842 0.059160
C176  C     C_R   0.531406 0.796957 0.004767 0.060298
C177  C     C_R   0.997322 0.273356 0.008248 0.107957
C178  C     C_R   0.497328 0.773355 0.008252 0.107952
C179  C     C_R   0.965253 0.342577 0.005790 -0.126161
C180  C     C_R   0.032803 0.342910 0.999749 -0.125591
C181  C     C_R   0.465242 0.842577 0.005843 -0.125630
C182  C     C_R   0.532806 0.842910 0.999759 -0.126078
C183  C     C_R   0.999654 0.365501 0.000779 -0.040993
C184  C     C_R   0.499651 0.865501 0.000810 -0.041044
H69   H     H_    0.902640 0.292012 0.019927 0.200520
H70   H     H_    0.087023 0.293281 0.011500 0.203776
H71   H     H_    0.402632 0.792014 0.019973 0.200544
H72   H     H_    0.587067 0.793274 0.011394 0.203687
H73   H     H_    0.939583 0.360619 0.006797 0.183990
H74   H     H_    0.058792 0.361235 0.997626 0.184230
H75   H     H_    0.439566 0.860619 0.006869 0.184203
H76   H     H_    0.558800 0.861235 0.997621 0.184087
N1    N     N_R   0.002578 0.416607 0.181763 0.202297
O49   O     O_R   0.043955 0.407167 0.151557 -0.352083
O50   O     O_R   0.979157 0.389590 0.171105 -0.397859
N2    N     N_R   0.995721 0.416964 0.819247 0.203564
O51   O     O_R   0.954208 0.408142 0.849287 -0.346425
O52   O     O_R   0.018489 0.389723 0.830712 -0.396053
N3    N     N_R   0.502291 0.916577 0.182078 0.202247
O53   O     O_R   0.543625 0.906983 0.151962 -0.352335
O54   O     O_R   0.478796 0.889657 0.171444 -0.397680
N4    N     N_R   0.495225 0.917022 0.819789 0.203686
O55   O     O_R   0.453648 0.908461 0.849964 -0.346083
O56   O     O_R   0.517857 0.889625 0.831319 -0.396382
Br1   Br    Br    0.092274 0.470628 0.229106 -0.433974
Br2   Br    Br    0.907164 0.472250 0.771314 -0.436146
Br3   Br    Br    0.592160 0.970234 0.229237 -0.434686
Br4   Br    Br    0.406977 0.972925 0.771516 -0.435689
Br5   Br    Br    0.624303 0.577059 0.790635 -0.391699
Br6   Br    Br    0.376123 0.579804 0.204395 -0.384014
Br7   Br    Br    0.124291 0.077201 0.790894 -0.392150
Br8   Br    Br    0.876108 0.079645 0.204708 -0.383469
Br9   Br    Br    0.803285 0.611279 0.580652 -0.430816
Br10  Br    Br    0.197176 0.614348 0.414086 -0.428207
Br11  Br    Br    0.303295 0.111178 0.580339 -0.431279
Br12  Br    Br    0.697187 0.114452 0.413750 -0.427647
Br13  Br    Br    0.802274 0.388232 0.808446 -0.288605
Br14  Br    Br    0.197267 0.389666 0.188425 -0.284511
Br15  Br    Br    0.302409 0.892141 0.815493 -0.283657
Br16  Br    Br    0.697384 0.885861 0.195774 -0.289540
N5    N     N_R   0.701920 0.403283 0.899491 0.228219
O57   O     O_R   0.678495 0.373547 0.893633 -0.357495
O58   O     O_R   0.704298 0.402326 0.957499 -0.284706
N6    N     N_R   0.297693 0.404122 0.098368 0.225803
O59   O     O_R   0.319098 0.415831 0.027129 -0.322099
O60   O     O_R   0.297490 0.362761 0.115437 -0.311989
N7    N     N_R   0.202051 0.906705 0.905514 0.225678
O61   O     O_R   0.180912 0.919695 0.976164 -0.321031
O62   O     O_R   0.201902 0.864957 0.890388 -0.311613
N8    N     N_R   0.797798 0.900828 0.104622 0.228367
O63   O     O_R   0.820941 0.871749 0.112059 -0.358421
O64   O     O_R   0.795599 0.898398 0.046487 -0.285393
N9    N     N_R   0.932206 0.634769 0.132618 0.218738
O65   O     O_R   0.941656 0.612651 0.173200 -0.424357
O66   O     O_R   0.891404 0.636171 0.153612 -0.341314
N10   N     N_R   0.068247 0.634734 0.867805 0.218848
O67   O     O_R   0.059212 0.612518 0.826521 -0.425093
O68   O     O_R   0.108930 0.636518 0.847387 -0.342087
N11   N     N_R   0.432227 0.134776 0.132620 0.218728
O69   O     O_R   0.441672 0.112656 0.173209 -0.424247
O70   O     O_R   0.391425 0.136191 0.153616 -0.341811
N12   N     N_R   0.568281 0.134729 0.867819 0.218863
O71   O     O_R   0.559250 0.112509 0.826535 -0.425167
O72   O     O_R   0.608960 0.136505 0.847420 -0.341553
N13   N     N_R   0.569340 0.633538 0.991253 0.217459
O73   O     O_R   0.565846 0.607781 0.042898 -0.288833
O74   O     O_R   0.608097 0.639680 0.927319 -0.315002
N14   N     N_R   0.439444 0.633422 0.984919 0.243208
O75   O     O_R   0.413142 0.601729 0.029127 -0.327713
O76   O     O_R   0.443478 0.641731 0.921822 -0.299511
N15   N     N_R   0.069387 0.133567 0.991125 0.217618
O77   O     O_R   0.065930 0.107716 0.042640 -0.286808
O78   O     O_R   0.108153 0.139878 0.927290 -0.314277
N16   N     N_R   0.939375 0.133396 0.985112 0.243015
O79   O     O_R   0.913074 0.101728 0.029412 -0.329574
O80   O     O_R   0.943383 0.141640 0.922020 -0.300621
N17   N     N_R   0.387436 0.706691 0.037880 0.244621
O81   O     O_R   0.364607 0.682466 0.099121 -0.293347
O82   O     O_R   0.369106 0.719102 0.004287 -0.290851
N18   N     N_R   0.588956 0.708790 0.034558 0.250723
O83   O     O_R   0.630840 0.719244 0.995491 -0.291898
O84   O     O_R   0.570744 0.688998 0.099976 -0.281924
N19   N     N_R   0.887420 0.206696 0.037909 0.244562
O85   O     O_R   0.864573 0.182508 0.099194 -0.293505
O86   O     O_R   0.869101 0.219091 0.004290 -0.291343
N20   N     N_R   0.088859 0.208797 0.034782 0.250833
O87   O     O_R   0.130721 0.219319 0.995927 -0.291429
O88   O     O_R   0.070591 0.188900 0.100127 -0.281376

loop_
_geom_bond_atom_site_label_1
_geom_bond_atom_site_label_2
_geom_bond_distance
_ccdc_geom_bond_type
O1    Zn1   2.025283 S    
C73   C77   1.418836 A    
C82   C86   1.410577 A    
C44   C48   1.390110 A    
C76   C80   1.418800 A    
C20   C28   1.553938 S    
C43   C63   1.391624 A    
C3    C99   1.441745 S    
C147  C151  1.412431 A    
C89   N5    1.434399 S    
C141  C145  1.413047 A    
C94   C98   1.390888 A    
C93   H49   1.082056 S    
C10   H6    1.113481 S    
C170  C174  1.389540 A    
C122  H58   1.085330 S    
C86   C90   1.400695 A    
C18   Br2   1.956915 S    
O44   Zn11  2.024487 S    
N2    O51   1.301166 A    
C160  C166  1.425279 A    
C31   C109  1.467105 S    
C65   H45   1.080117 S    
C150  N12   1.434888 S    
C180  C183  1.393610 A    
C81   C85   1.410602 A    
C84   C104  1.394415 A    
C70   C74   1.406299 A    
O48   C120  1.282199 A    
C83   C103  1.394522 A    
C156  N16   1.437794 S    
C9    C25   1.555321 S    
C51   Br7   1.940358 S    
C182  C184  1.393606 A    
C21   H29   1.113739 S    
N4    O55   1.301163 A    
O19   Zn7   2.028680 S    
C160  C163  1.423261 A    
C23   H31   1.113736 S    
C12   C28   1.554462 S    
C94   H50   1.082012 S    
O16   Zn4   2.025921 S    
O28   Zn7   2.026941 S    
O33   C113  1.283008 A    
O7    Zn4   2.027754 S    
O42   Zn9   2.024487 S    
O18   C105  1.288431 A    
C176  C182  1.389683 A    
O38   C116  1.282154 A    
O6    C2    1.285924 A    
O4    Zn2   2.026452 S    
N7    O61   1.300966 A    
C173  C177  1.409299 A    
C24   C28   1.559747 S    
N6    O59   1.300970 A    
O9    C5    1.285876 A    
C50   Br6   1.940614 S    
C17   C33   1.537449 S    
C69   C73   1.406101 A    
C19   C27   1.553840 S    
C133  C139  1.388163 A    
C124  C129  1.388127 A    
O8    Zn4   2.026577 S    
C144  C150  1.398898 A    
C62   C90   1.410844 A    
C85   Br13  1.933881 S    
O23   C109  1.284515 A    
C121  C128  1.388270 A    
C141  C147  1.398981 A    
O34   Zn10  2.028065 S    
O3    Zn2   2.025283 S    
C142  C148  1.398897 A    
C32   C36   1.560532 S    
C159  C163  1.422632 A    
C59   C63   1.413991 A    
C31   C39   1.559893 S    
C128  C131  1.411921 A    
C114  C126  1.431432 S    
C20   Br4   1.956628 S    
C22   C26   1.559737 S    
C172  H72   1.084722 S    
C24   C40   1.539311 S    
H21   C33   1.113769 S    
Zn12  O48   2.030074 S    
C134  H62   1.083941 S    
H23   C35   1.113771 S    
O3    C3    1.285930 A    
N20   O87   1.301284 A    
C159  C165  1.424365 A    
N1    O49   1.301153 A    
C129  C132  1.411817 A    
C13   H9    1.113045 S    
C43   C47   1.390542 A    
C58   C78   1.401579 A    
C15   H11   1.113053 S    
O40   C118  1.281763 A    
C164  C177  1.404642 A    
C16   H12   1.113012 S    
N17   O82   1.301330 A    
C149  N11   1.435026 S    
Zn9   O45   2.027661 S    
C43   H43   1.083596 S    
N5    O57   1.301055 A    
C72   Br12  1.924631 S    
C174  C180  1.389673 A    
C15   C31   1.551216 S    
C179  H73   1.085206 S    
Zn8   O32   2.028193 S    
C154  N14   1.437818 S    
C39   N3    1.469852 S    
N12   O71   1.299295 A    
H24   C36   1.113755 S    
C167  C169  1.392217 A    
C18   C34   1.537624 S    
C18   C26   1.553919 S    
C161  C167  1.424389 A    
C11   C15   1.536619 S    
C123  C130  1.388241 A    
C162  C168  1.425259 A    
C12   H4    1.113039 S    
C54   C66   1.403315 A    
C173  C179  1.389693 A    
C67   H47   1.080128 S    
C22   H26   1.111763 S    
C40   H36   1.115837 S    
N10   O67   1.299298 A    
C58   C62   1.414071 A    
O5    Zn3   2.027754 S    
H17   C17   1.113681 S    
C9    H1    1.113029 S    
N10   O68   1.301011 A    
N18   O83   1.301276 A    
C168  N20   1.433468 S    
O43   Zn12  2.024490 S    
H20   C20   1.113658 S    
C60   C80   1.401547 A    
O41   Zn10  2.024490 S    
C50   C54   1.402979 A    
C179  C183  1.394578 A    
O8    C4    1.285804 A    
C175  C181  1.389670 A    
C16   H16   1.112175 S    
C153  C160  1.408189 A    
C176  C178  1.409456 A    
C154  C159  1.406522 A    
C42   H42   1.083645 S    
C155  C158  1.408046 A    
H22   C34   1.113759 S    
N14   O76   1.301181 A    
C67   C71   1.387286 A    
C155  C162  1.408169 A    
C134  C140  1.388212 A    
C10   H2    1.113038 S    
C95   C99   1.390574 A    
O13   Zn3   2.028336 S    
C96   C100  1.390781 A    
C33   H37   1.108819 S    
O25   Zn6   2.026931 S    
O19   C106  1.288554 A    
N3    O54   1.300876 A    
C155  N15   1.438458 S    
O24   Zn8   2.026358 S    
C122  C127  1.388095 A    
C56   C60   1.419372 A    
C5    C25   1.465943 S    
C87   C91   1.400738 A    
O5    C1    1.285570 A    
C66   H46   1.080164 S    
C65   C69   1.387193 A    
C29   C107  1.467087 S    
C72   C76   1.406248 A    
C163  C178  1.404642 A    
C19   Br3   1.957329 S    
N8    O64   1.300829 A    
O15   Zn4   2.028336 S    
C136  H64   1.083940 S    
C137  H65   1.081997 S    
C14   H14   1.112224 S    
C53   C57   1.419204 A    
N7    O62   1.300851 A    
C55   C59   1.419310 A    
C103  H55   1.080938 S    
O4    C4    1.286215 A    
O17   Zn5   2.028680 S    
C52   C56   1.402795 A    
C8    C28   1.466175 S    
C106  C152  1.459074 S    
N19   O86   1.301326 A    
C45   C49   1.403791 A    
C9    C13   1.536667 S    
O14   C6    1.281285 A    
C47   C51   1.403650 A    
C61   C89   1.410904 A    
C88   C92   1.400769 A    
C153  N13   1.438403 S    
C148  N10   1.434883 S    
C24   H28   1.111769 S    
O34   C113  1.282814 A    
C21   C37   1.540024 S    
C121  C125  1.393438 A    
O10   C6    1.286619 A    
C156  C158  1.405877 A    
C29   C37   1.559891 S    
O28   C110  1.280620 A    
C90   N6    1.434317 S    
C148  C151  1.412380 A    
C47   C117  1.440067 S    
C165  N17   1.435008 S    
C99   C103  1.391792 A    
C112  C184  1.441293 S    
C37   H33   1.115821 S    
O47   C120  1.288038 A    
O25   C107  1.280573 A    
C102  H54   1.080971 S    
C39   H35   1.115817 S    
C137  C141  1.408427 A    
O35   C114  1.282963 A    
C23   H27   1.111734 S    
C154  C157  1.405864 A    
N2    O52   1.300894 A    
C169  C173  1.390471 A    
O45   C119  1.287996 A    
C32   C40   1.559200 S    
C6    C26   1.466150 S    
C29   C33   1.560648 S    
O39   C117  1.282260 A    
C31   C35   1.560725 S    
N16   O79   1.300534 A    
C127  C133  1.395121 A    
C21   H25   1.111737 S    
C170  H70   1.084717 S    
N15   O77   1.300984 A    
C22   C38   1.539367 S    
N9    O66   1.301027 A    
C122  C125  1.393484 A    
C105  C151  1.459071 S    
N4    O56   1.300886 A    
C100  C104  1.392074 A    
N13   O74   1.300782 A    
O32   C112  1.285395 A    
O31   C112  1.284369 A    
C87   Br15  1.933844 S    
C66   C70   1.387383 A    
C161  C164  1.422631 A    
C14   H10   1.113019 S    
C13   H13   1.112404 S    
O40   Zn12  2.025176 S    
N6    O60   1.300854 A    
N16   O80   1.301177 A    
C30   C108  1.466955 S    
C104  H56   1.080956 S    
O21   C107  1.284471 A    
C168  C170  1.391391 A    
C129  C135  1.395116 A    
Zn5   O29   2.029363 S    
C52   Br8   1.940773 S    
C10   C26   1.554549 S    
C38   H34   1.115831 S    
C175  C178  1.409304 A    
O12   Zn2   2.027910 S    
C22   H30   1.113777 S    
C63   C91   1.410893 A    
C7    C27   1.465922 S    
O1    C1    1.286046 A    
C78   C82   1.418084 A    
C167  N19   1.434998 S    
H18   C18   1.113659 S    
C32   C110  1.466936 S    
C45   C115  1.439941 S    
C41   C61   1.391772 A    
O27   Zn8   2.026931 S    
C48   C52   1.403435 A    
O43   C117  1.285703 A    
O21   Zn5   2.026351 S    
C166  N18   1.433419 S    
O7    C3    1.285679 A    
O26   C108  1.280554 A    
O30   C111  1.285386 A    
C1    C97   1.441769 S    
C13   C29   1.551305 S    
C23   C39   1.540063 S    
O18   Zn6   2.029851 S    
N11   O70   1.301027 A    
O38   Zn10  2.025176 S    
C4    C100  1.442537 S    
C41   H41   1.083548 S    
C36   H40   1.108800 S    
N20   O88   1.300961 A    
C44   C64   1.391664 A    
O36   C114  1.282863 A    
C156  C161  1.406568 A    
C127  C131  1.411795 A    
C11   H3    1.113029 S    
C120  C158  1.449807 S    
C71   Br11  1.924647 S    
C86   Br14  1.933893 S    
C97   C101  1.391876 A    
Zn10  O46   2.030074 S    
O24   C110  1.284478 A    
C136  C138  1.388200 A    
C132  C145  1.401316 A    
C95   H51   1.082075 S    
C77   C81   1.417998 A    
C96   H52   1.081989 S    
O35   Zn11  2.030468 S    
N17   O81   1.301304 A    
C80   C84   1.418003 A    
C17   Br1   1.957087 S    
C16   C32   1.551940 S    
C82   C102  1.394490 A    
N12   O72   1.301014 A    
C139  C143  1.408411 A    
C75   C79   1.418729 A    
C71   C75   1.406149 A    
C30   C38   1.559215 S    
C59   C79   1.401526 A    
C113  C125  1.431429 S    
C49   Br5   1.940517 S    
N3    O53   1.301151 A    
C30   C34   1.560626 S    
C138  H66   1.082037 S    
C15   H15   1.112432 S    
C74   C94   1.391329 A    
C182  H76   1.085206 S    
C21   C25   1.559043 S    
O20   C106  1.288377 A    
O2    Zn1   2.026452 S    
C23   C27   1.559046 S    
O10   Zn1   2.027910 S    
C93   C97   1.390476 A    
C34   H38   1.108804 S    
O13   C5    1.281995 A    
C135  C137  1.388177 A    
O41   C115  1.286067 A    
N18   O84   1.300955 A    
C9    H5    1.113501 S    
O44   C118  1.285622 A    
C10   C14   1.537092 S    
C121  H57   1.085316 S    
O33   Zn9   2.030468 S    
C42   C62   1.391550 A    
C171  C175  1.390464 A    
C20   C36   1.537588 S    
C85   C89   1.400843 A    
C172  C176  1.389531 A    
C24   H32   1.113778 S    
C81   C101  1.394454 A    
O15   C7    1.281988 A    
N11   O69   1.299419 A    
C14   C30   1.551797 S    
C84   C88   1.410630 A    
C143  C146  1.413064 A    
C55   C67   1.403429 A    
N19   O85   1.301304 A    
C130  C136  1.395127 A    
C83   C87   1.410558 A    
C174  C177  1.409463 A    
C128  C134  1.395120 A    
C73   C93   1.391162 A    
C135  H63   1.083944 S    
C70   Br10  1.924607 S    
C92   N8    1.434401 S    
C76   C96   1.391306 A    
N15   O78   1.300789 A    
C53   C65   1.403417 A    
C138  C142  1.408423 A    
C140  C144  1.408440 A    
C75   C95   1.391183 A    
O26   Zn5   2.026941 S    
C57   C61   1.414058 A    
O39   Zn11  2.025169 S    
C46   C116  1.439188 S    
O16   C8    1.281290 A    
C111  C183  1.441294 S    
N1    O50   1.300870 A    
C91   N7    1.434291 S    
C147  N9    1.435031 S    
O37   Zn9   2.025169 S    
O22   Zn6   2.026358 S    
C49   C53   1.402739 A    
O11   C7    1.285885 A    
C64   C92   1.410837 A    
O12   C8    1.286607 A    
Zn11  O47   2.027661 S    
C88   Br16  1.933918 S    
O9    Zn1   2.025502 S    
C79   C83   1.418087 A    
C68   C72   1.387282 A    
C35   H39   1.108818 S    
C41   C45   1.390485 A    
C130  C132  1.411899 A    
O20   Zn8   2.029851 S    
C144  C146  1.412959 A    
O17   C105  1.288497 A    
O11   Zn2   2.025502 S    
O23   Zn7   2.026351 S    
O29   C111  1.284382 A    
O46   C119  1.282229 A    
H19   C19   1.113684 S    
C165  C171  1.392199 A    
C139  H67   1.081999 S    
C166  C172  1.391380 A    
C143  C149  1.398981 A    
Zn6   O30   2.028193 S    
C44   H44   1.083597 S    
O36   Zn12  2.028065 S    
O6    Zn3   2.026577 S    
C124  C126  1.393484 A    
C12   C16   1.537148 S    
C54   C58   1.419463 A    
C68   H48   1.080152 S    
C69   Br9   1.924671 S    
C133  H61   1.083943 S    
C142  C145  1.412982 A    
O2    C2    1.286091 A    
O42   C116  1.285270 A    
C38   N2    1.470025 S    
N14   O75   1.300530 A    
C46   C50   1.403326 A    
C181  C184  1.394577 A    
C17   C25   1.553850 S    
C2    C98   1.442519 S    
Zn7   O31   2.029363 S    
C19   C35   1.537488 S    
C140  H68   1.082034 S    
C57   C77   1.401501 A    
O14   Zn3   2.025921 S    
O37   C115  1.281890 A    
C74   C78   1.418693 A    
C171  H71   1.084615 S    
N9    O65   1.299414 A    
C123  H59   1.085317 S    
C37   N1    1.469836 S    
C124  H60   1.085330 S    
C169  H69   1.084615 S    
C180  H74   1.085210 S    
N13   O73   1.300987 A    
C181  H75   1.085206 S    
C48   C118  1.439011 S    
O27   C109  1.280527 A    
C11   C27   1.555370 S    
C119  C157  1.449795 S    
C11   H7    1.113500 S    
C42   C46   1.390190 A    
C123  C126  1.393441 A    
C162  C164  1.423235 A    
C12   H8    1.113481 S    
N8    O63   1.301057 A    
C149  C152  1.412394 A    
C131  C146  1.401315 A    
C150  C152  1.412423 A    
C98   C102  1.391979 A    
C40   N4    1.470008 S    
O22   C108  1.284530 A    
N5    O58   1.300834 A    
C56   C68   1.403304 A    
C51   C55   1.402924 A    
C101  H53   1.080919 S    
C60   C64   1.414149 A    
C153  C157  1.408018 A    
