data_mof_unit_67957.cif
_audit_creation_date              2013-03-05T16:43:30-0500
_audit_creation_method            fapswitch 2.2
_symmetry_space_group_name_H-M    P1
_symmetry_Int_Tables_number       1
_space_group_crystal_system       triclinic
_cell_length_a                    10.780081
_cell_length_b                    11.016336
_cell_length_c                    9.977712
_cell_angle_alpha                 89.496505
_cell_angle_beta                  89.802556
_cell_angle_gamma                 87.621336
_cell_volume                      1183.85076262

loop_
_atom_site_label
_atom_site_type_symbol
_atom_site_description
_atom_site_fract_x
_atom_site_fract_y
_atom_site_fract_z
_atom_type_partial_charge
O1    O     O_R   0.500020 0.316790 0.614690 -0.607745
O2    O     O_R   0.500000 0.316760 0.385350 -0.640182
C1    C     C_R   0.499864 0.260788 0.500871 0.856779
O3    O     O_R   0.313960 0.499990 0.614650 -0.629167
O4    O     O_R   0.313940 0.499950 0.385310 -0.622160
C2    C     C_R   0.257246 0.498767 0.499468 0.817003
Zn1   Zn    Zn3+2 0.500010 0.500020 0.653130 0.940768
Zn2   Zn    Zn3+2 0.499990 0.499980 0.346870 0.945385
O5    O     O_R   0.500000 0.683240 0.614650 -0.634350
O6    O     O_R   0.499980 0.683210 0.385310 -0.599008
O7    O     O_R   0.686060 0.500050 0.614690 -0.623703
O8    O     O_R   0.686040 0.500010 0.385350 -0.635998
C3    C     C_R   0.498005 0.739996 0.499142 0.842703
C4    C     C_R   0.742502 0.496405 0.499599 0.858221
C5    C     C_3   0.042414 0.469015 0.620116 -0.229925
C6    C     C_3   0.965838 0.383965 0.533064 0.013841
C7    C     C_3   0.877499 0.491960 0.497803 -0.043410
C8    C     C_3   0.952000 0.577871 0.583008 -0.210596
C9    C     C_3   0.032539 0.605357 0.459124 0.045415
C10   C     C_3   0.955158 0.521404 0.373630 -0.239955
C11   C     C_3   0.045024 0.413140 0.409735 0.019927
C12   C     C_3   0.121673 0.498007 0.495628 -0.065329
H1    H     H_    0.907226 0.645158 0.651943 0.127537
H2    H     H_    0.917274 0.546726 0.273398 0.139905
C13   C     C_R   0.470183 0.061485 0.614039 0.078308
C14   C     C_R   0.494609 0.130134 0.500580 -0.122875
C15   C     C_R   0.511055 0.067542 0.380022 -0.312957
H3    H     H_    0.532378 0.116234 0.289104 0.175370
C16   C     C_R   0.509085 0.940657 0.376088 -0.036911
C17   C     C_R   0.487011 0.872670 0.495262 -0.180741
C18   C     C_R   0.452967 0.940015 0.608327 0.022353
C19   C     C_3   0.437731 0.927852 0.756753 -0.225880
C20   C     C_3   0.453396 0.067071 0.762192 -0.237775
H4    H     H_    0.515873 0.870925 0.796748 0.164105
C21   C     C_R   0.399428 0.543019 0.070134 0.208703
N1    N     N_R   0.499140 0.499140 0.142800 -0.108931
C22   C     C_R   0.605968 0.473665 0.071509 -0.133255
C23   C     C_R   0.605851 0.472982 0.928204 -0.132478
N2    N     N_R   0.499140 0.499180 0.857150 -0.119237
C24   C     C_R   0.397984 0.537894 0.929317 0.211374
C25   C     C_3   0.271419 0.489521 0.928208 -0.507781
C26   C     C_3   0.269668 0.505347 0.079316 -0.482888
H5    H     H_    0.202873 0.550242 0.876666 0.212911
H6    H     H_    0.271971 0.393037 0.896307 0.202609
H7    H     H_    0.205412 0.580438 0.113846 0.209453
H8    H     H_    0.265060 0.421244 0.136078 0.256395
C27   C     C_R   0.942118 0.254634 0.568395 0.118983
C28   C     C_R   0.031352 0.186573 0.642573 -0.180476
C29   C     C_R   0.018967 0.062417 0.662542 -0.132683
C30   C     C_R   0.917967 0.004827 0.608675 -0.087808
C31   C     C_R   0.829177 0.071903 0.534027 -0.151087
C32   C     C_R   0.841489 0.196321 0.512753 -0.143509
H9    H     H_    0.112415 0.228609 0.682080 0.117675
H10   H     H_    0.088629 0.011127 0.718467 0.169252
H11   H     H_    0.908732 0.908240 0.624247 0.125726
H12   H     H_    0.751405 0.026986 0.492111 0.137896
H13   H     H_    0.774489 0.246013 0.450611 0.115338
H14   H     H_    0.367471 0.122105 0.786822 0.136163
C33   C     C_R   0.565123 0.098113 0.845061 0.190254
C34   C     C_R   0.682768 0.041464 0.822958 -0.113445
C35   C     C_R   0.780205 0.057945 0.912185 -0.122623
C36   C     C_R   0.760729 0.129204 0.025596 -0.144467
C37   C     C_R   0.644610 0.185407 0.048843 -0.159178
C38   C     C_R   0.547462 0.171351 0.958567 -0.137960
H15   H     H_    0.696918 0.979422 0.740623 0.116703
H16   H     H_    0.869439 0.011712 0.896430 0.134796
H17   H     H_    0.834599 0.138670 0.097154 0.129673
H18   H     H_    0.629617 0.238438 0.138329 0.144883
H19   H     H_    0.457488 0.214312 0.979786 0.115182
H20   H     H_    0.691186 0.450459 0.124368 0.138864
H21   H     H_    0.690865 0.448715 0.875276 0.160921
H22   H     H_    0.076967 0.447765 0.722499 0.143840
C39   C     C_R   0.056805 0.730911 0.408502 0.113079
C40   C     C_R   0.960410 0.798129 0.345695 -0.182806
C41   C     C_R   0.978116 0.917094 0.302439 -0.164555
C42   C     C_R   0.086726 0.972232 0.332817 -0.101126
C43   C     C_R   0.184829 0.905673 0.390121 -0.159711
C44   C     C_R   0.172232 0.783064 0.421564 -0.149037
H23   H     H_    0.872783 0.756801 0.330391 0.136181
H24   H     H_    0.909136 0.970230 0.247597 0.127248
H25   H     H_    0.093442 0.066059 0.309113 0.172073
H26   H     H_    0.269371 0.950265 0.408775 0.157545
H27   H     H_    0.251294 0.730447 0.456673 0.116740
C45   C     C_R   0.085821 0.326795 0.300048 0.108014
C46   C     C_R   0.200968 0.262452 0.305607 -0.140247
C47   C     C_R   0.246911 0.201547 0.191470 -0.191766
C48   C     C_R   0.177832 0.205500 0.072833 -0.168792
C49   C     C_R   0.059459 0.260353 0.070441 -0.151113
C50   C     C_R   0.012511 0.318741 0.184048 -0.171316
H28   H     H_    0.255868 0.262058 0.395938 0.136712
H29   H     H_    0.337327 0.155887 0.192908 0.149087
H30   H     H_    0.216184 0.170143 0.980841 0.126888
H31   H     H_    0.005554 0.260908 0.979055 0.143086
H32   H     H_    0.920513 0.361380 0.178648 0.119020
C51   C     C_R   0.549679 0.884809 0.250414 0.177845
C52   C     C_R   0.675845 0.875719 0.224505 -0.146704
C53   C     C_R   0.721735 0.821611 0.107633 -0.133117
C54   C     C_R   0.639088 0.777901 0.014854 -0.120475
C55   C     C_R   0.511697 0.788934 0.040377 -0.137213
C56   C     C_R   0.466164 0.841846 0.157915 -0.114678
H33   H     H_    0.735393 0.910341 0.298984 0.109861
H34   H     H_    0.820370 0.814142 0.088865 0.115582
H35   H     H_    0.673307 0.736387 0.923262 0.123705
H36   H     H_    0.447788 0.756291 0.968746 0.137394
H37   H     H_    0.367328 0.847749 0.177541 0.134211
C57   C     C_R   0.312171 0.891650 0.808145 0.138817
C58   C     C_R   0.246563 0.800548 0.747188 -0.114249
C59   C     C_R   0.132315 0.767143 0.798337 -0.196530
C60   C     C_R   0.084498 0.820041 0.914693 -0.145605
C61   C     C_R   0.152541 0.905566 0.981073 -0.150656
C62   C     C_R   0.266992 0.938807 0.929874 -0.207613
H38   H     H_    0.285296 0.752577 0.663590 0.151907
H39   H     H_    0.083418 0.696918 0.750594 0.142656
H40   H     H_    0.996631 0.792604 0.954595 0.121600
H41   H     H_    0.117429 0.945485 0.072265 0.162248
H42   H     H_    0.323016 0.998580 0.987047 0.137069

loop_
_geom_bond_atom_site_label_1
_geom_bond_atom_site_label_2
_geom_bond_distance
_ccdc_geom_bond_type
C13   C18   1.360297 A    
C5    C8    1.556532 S    
C48   C49   1.389260 A    
C25   C26   1.519238 S    
C6    C11   1.534540 S    
C15   C16   1.399747 A    
C58   H38   1.066020 S    
C51   C52   1.383255 A    
C53   C54   1.389868 A    
C52   H33   1.066951 S    
C43   C44   1.395978 A    
Zn1   O7    2.040691 S    
C5    H22   1.108288 S    
C56   H37   1.082043 S    
C20   H14   1.113728 S    
C36   H17   1.080228 S    
N1    C22   1.371862 A    
C22   C23   1.429940 A    
C31   H12   1.078501 S    
C47   H29   1.078199 S    
Zn2   N1    2.036308 S    
C17   C18   1.395353 A    
O7    C4    1.297880 A    
C57   C58   1.396417 A    
C29   H10   1.075506 S    
C2    C12   1.462500 S    
C7    C10   1.532790 S    
C59   C60   1.391394 A    
C8    C9    1.543116 S    
C26   H8    1.084452 S    
C50   H32   1.080903 S    
C21   C26   1.477831 S    
O5    C3    1.306155 A    
C61   C62   1.395412 A    
O1    Zn1   2.057943 S    
C49   H31   1.082772 S    
C35   H16   1.081274 S    
C5    C12   1.543771 S    
C27   C28   1.403783 A    
C6    C7    1.531985 S    
C54   H35   1.082328 S    
C58   C59   1.393811 A    
C62   H42   1.079702 S    
C41   H24   1.075207 S    
C53   H34   1.078921 S    
Zn2   O8    2.043367 S    
C55   H36   1.069223 S    
C33   C34   1.407575 A    
C20   C33   1.515674 S    
C19   C57   1.513447 S    
C22   H20   1.081166 S    
C25   H5    1.101588 S    
C4    C7    1.454122 S    
O3    Zn1   2.043366 S    
C44   H27   1.068920 S    
C6    C27   1.496786 S    
C7    C8    1.531485 S    
C57   C62   1.402957 A    
C1    C14   1.442812 S    
C39   C40   1.397618 A    
C28   H9    1.082891 S    
C40   C41   1.396612 A    
C8    H1    1.110173 S    
C10   H2    1.110501 S    
C3    C17   1.461657 S    
C9    C39   1.501157 S    
C9    C12   1.534598 S    
C23   N2    1.372481 A    
C45   C46   1.404658 A    
O3    C2    1.304055 A    
N2    C24   1.360473 A    
C16   C51   1.459387 S    
C51   C56   1.391086 A    
C13   C14   1.386455 A    
C46   C47   1.405112 A    
C31   C32   1.396810 A    
C34   C35   1.397849 A    
O1    C1    1.297204 A    
C26   H7    1.112936 S    
C19   H4    1.102814 S    
C59   H39   1.070199 S    
C41   C42   1.377091 A    
C16   C17   1.424317 A    
C55   C56   1.392978 A    
C11   C45   1.508721 S    
C39   C44   1.398987 A    
C52   C53   1.394133 A    
C10   C11   1.545864 S    
C36   C37   1.392947 A    
C30   C31   1.397658 A    
C14   C15   1.398852 A    
C38   H19   1.082503 S    
C42   C43   1.383979 A    
C60   H40   1.079875 S    
C28   C29   1.392268 A    
O8    C4    1.293635 A    
C34   H15   1.079652 S    
C54   C55   1.396360 A    
C40   H23   1.077425 S    
C25   H6    1.111989 S    
C45   C50   1.409249 A    
C48   H30   1.074905 S    
Zn1   O5    2.051283 S    
C23   H21   1.081232 S    
C24   C25   1.485322 S    
C47   C48   1.400047 A    
C18   C19   1.494930 S    
O2    Zn2   2.051283 S    
O6    C3    1.301159 A    
C42   H25   1.063660 S    
O4    Zn2   2.040691 S    
C46   H28   1.079821 S    
C27   C32   1.402111 A    
C37   H18   1.079335 S    
C30   H11   1.082586 S    
C19   C20   1.551349 S    
C9    C10   1.536782 S    
O2    C1    1.302441 A    
C60   C61   1.391428 A    
O4    C2    1.291004 A    
C43   H26   1.070744 S    
C21   C24   1.406829 A    
C35   C36   1.393236 A    
C32   H13   1.081709 S    
C37   C38   1.398033 A    
C33   C38   1.404163 A    
C49   C50   1.391621 A    
Zn2   O6    2.057943 S    
C29   C30   1.394352 A    
C15   H3    1.078767 S    
Zn1   N2    2.035585 S    
C21   N1    1.367782 A    
C11   C12   1.540897 S    
C61   H41   1.074892 S    
C5    C6    1.548280 S    
C13   C20   1.490139 S    
