data_mof_unit_53093.cif
_audit_creation_date              2012-12-10T19:44:59-0500
_audit_creation_method            fapswitch 2.2
_symmetry_space_group_name_H-M    P1
_symmetry_Int_Tables_number       1
_space_group_crystal_system       triclinic
_cell_length_a                    15.059332
_cell_length_b                    10.803517
_cell_length_c                    13.683949
_cell_angle_alpha                 90.012115
_cell_angle_beta                  89.519622
_cell_angle_gamma                 89.655557
_cell_volume                      2226.17441606

loop_
_atom_site_label
_atom_site_type_symbol
_atom_type_description
_atom_site_fract_x
_atom_site_fract_y
_atom_site_fract_z
_atom_type_partial_charge
Br1   Br    Br    0.751557 0.695033 0.346436 -0.492911
Br2   Br    Br    0.248443 0.304962 0.653561 -0.492913
Br3   Br    Br    0.319445 0.792324 0.887987 -0.450577
Br4   Br    Br    0.680715 0.207884 0.112016 -0.450592
Br5   Br    Br    0.412064 0.133185 0.037451 -0.420216
Br6   Br    Br    0.588029 0.866857 0.962547 -0.420193
C1    C     C_R   0.497700 0.262201 0.499904 0.805599
C2    C     C_R   0.595875 0.877965 0.655947 0.050238
C3    C     C_R   0.427920 0.102658 0.245632 -0.175593
C4    C     C_R   0.572119 0.897358 0.754366 -0.175579
C5    C     C_R   0.380350 0.161197 0.171120 0.316674
C6    C     C_R   0.619707 0.838827 0.828868 0.316689
C7    C     C_R   0.309045 0.239614 0.194465 -0.151382
C8    C     C_R   0.691006 0.760405 0.805509 -0.151397
C9    C     C_R   0.461317 0.933421 0.424110 -0.202764
C10   C     C_R   0.538682 0.066578 0.575891 -0.202749
C11   C     C_R   0.504403 0.871650 0.500232 -0.060216
C12   C     C_R   0.502299 0.737798 0.500096 0.805590
C13   C     C_R   0.495596 0.128349 0.499769 -0.060216
C14   C     C_R   0.544532 0.938366 0.576743 0.031773
C15   C     C_R   0.455468 0.061632 0.423258 0.031757
C16   C     C_R   0.328753 0.496114 0.500466 0.847830
C17   C     C_R   0.671247 0.503885 0.499534 0.847827
C18   C     C_R   0.552467 0.417785 0.792784 0.066896
C19   C     C_R   0.447537 0.582223 0.207217 0.066878
C20   C     C_R   0.447656 0.582722 0.793422 0.087801
C21   C     C_R   0.552358 0.417299 0.206577 0.087820
C22   C     C_R   0.446115 0.585600 0.896823 -0.059503
C23   C     C_R   0.041299 0.349807 0.634669 -0.140038
C24   C     C_R   0.553905 0.414435 0.103176 -0.059465
C25   C     C_R   0.499856 0.500379 0.948135 0.061118
C26   C     C_R   0.500148 0.499638 0.051864 0.061109
C27   C     C_R   0.553451 0.415830 0.895705 -0.036880
C28   C     C_R   0.446559 0.584193 0.104296 -0.036911
C29   C     C_R   0.392983 0.670498 0.950454 0.291136
C30   C     C_R   0.607074 0.329582 0.049546 0.291151
C31   C     C_R   0.393490 0.668996 0.053124 -0.172543
C32   C     C_R   0.606554 0.331069 0.946877 -0.172530
C33   C     C_R   0.814950 0.582672 0.431934 0.185628
C34   C     C_R   0.958701 0.650191 0.365331 -0.140028
C35   C     C_R   0.185050 0.417325 0.568064 0.185618
C36   C     C_R   0.767785 0.507610 0.498676 -0.128877
C37   C     C_R   0.232215 0.492389 0.501323 -0.128875
C38   C     C_R   0.812652 0.433831 0.566197 -0.292084
C39   C     C_R   0.187348 0.566168 0.433803 -0.292083
C40   C     C_R   0.904809 0.430308 0.567003 0.113378
C41   C     C_R   0.095191 0.569691 0.432997 0.113378
C42   C     C_R   0.953273 0.502340 0.499591 0.038361
C43   C     C_R   0.046727 0.497659 0.500409 0.038363
C44   C     C_R   0.908504 0.579183 0.431675 0.053963
C45   C     C_R   0.284297 0.258043 0.292048 -0.162636
C46   C     C_R   0.091496 0.420815 0.568325 0.053960
C47   C     C_R   0.949023 0.354741 0.633964 -0.197861
C48   C     C_R   0.050977 0.645258 0.366037 -0.197864
C49   C     C_R   0.715727 0.741959 0.707920 -0.162647
C50   C     C_R   0.331097 0.198810 0.366583 -0.100165
C51   C     C_R   0.668909 0.801182 0.633394 -0.100152
C52   C     C_R   0.404138 0.122035 0.344045 0.050249
Cu1   Cu    Cu3+1 0.500010 0.499980 0.597420 0.985637
Cu2   Cu    Cu3+1 0.499990 0.500020 0.402580 0.985633
H1    H     H_    0.429103 0.881295 0.366773 0.150053
H2    H     H_    0.927750 0.709710 0.311905 0.204517
H3    H     H_    0.272466 0.285591 0.137053 0.170191
H4    H     H_    0.727599 0.714437 0.862914 0.170197
H5    H     H_    0.483676 0.043139 0.226983 0.195613
H6    H     H_    0.516371 0.956883 0.773028 0.195641
H7    H     H_    0.593508 0.353538 0.751457 0.116225
H8    H     H_    0.406498 0.646473 0.248544 0.116228
H9    H     H_    0.775347 0.377117 0.617335 0.156957
H10   H     H_    0.224653 0.622884 0.382666 0.156956
H11   H     H_    0.228745 0.318150 0.309978 0.159560
H12   H     H_    0.570897 0.118705 0.633227 0.150052
H13   H     H_    0.771273 0.681846 0.689978 0.159562
H14   H     H_    0.310992 0.213518 0.441855 0.148158
H15   H     H_    0.688994 0.786462 0.558117 0.148154
H16   H     H_    0.407359 0.646185 0.751597 0.172610
H17   H     H_    0.592662 0.353846 0.248402 0.172618
H18   H     H_    0.352480 0.734884 0.092986 0.170644
H19   H     H_    0.647595 0.265221 0.907013 0.170628
H20   H     H_    0.912104 0.299067 0.685992 0.156177
H21   H     H_    0.087896 0.700932 0.314008 0.156175
H22   H     H_    0.072250 0.290288 0.688094 0.204516
N1    N     N_R   0.499960 0.499900 0.743810 -0.191503
N2    N     N_R   0.500040 0.500100 0.256190 -0.191510
O1    O     O_R   0.500000 0.319630 0.582270 -0.573483
O2    O     O_R   0.500000 0.680370 0.417730 -0.573489
O3    O     O_R   0.499990 0.319660 0.417730 -0.586138
O4    O     O_R   0.500010 0.680340 0.582270 -0.586139
O5    O     O_R   0.370260 0.499960 0.582280 -0.538181
O6    O     O_R   0.629740 0.500040 0.417720 -0.538179
O7    O     O_R   0.370250 0.499990 0.417740 -0.603208
O8    O     O_R   0.629750 0.500010 0.582260 -0.603212

loop_
_geom_bond_atom_site_label_1
_geom_bond_atom_site_label_2
_ccdc_geom_bond_type
Br4   C30   S    
C20   N1    A    
C28   C31   A    
Cu2   N2    S    
C10   H12   S    
C41   C43   A    
C12   O2    A    
C17   C36   S    
C36   C38   A    
C21   N2    A    
C13   C15   A    
C18   N1    A    
Cu1   N1    S    
Br5   C5    S    
Br6   C6    S    
C32   H19   S    
Br2   C35   S    
C11   C14   A    
C34   H2    S    
C3    C52   A    
Cu1   O5    S    
Cu1   O4    S    
C18   H7    S    
C7    C45   A    
C1    O3    A    
C25   C26   A    
C22   C29   A    
C19   N2    A    
C20   H16   S    
C16   O7    A    
C25   C27   A    
C35   C46   A    
C19   C28   A    
C39   C41   A    
C8    C49   A    
Cu1   Cu2   S    
C21   C24   A    
C35   C37   A    
C19   H8    S    
C45   H11   S    
Cu2   O3    S    
C38   C40   A    
C33   C36   A    
C4    H6    S    
C40   C42   A    
C50   H14   S    
C47   H20   S    
Cu2   O2    S    
C12   O4    A    
C26   C28   A    
Cu1   O1    S    
C2    C51   A    
C37   C39   A    
C16   C37   S    
C7    H3    S    
Br3   C29   S    
C10   C14   A    
C43   C46   A    
C8    H4    S    
C11   C12   S    
C9    H1    S    
C17   O6    A    
C38   H9    S    
C2    C14   S    
C3    C5    A    
C4    C6    A    
C41   C48   A    
C42   C43   A    
C6    C8    A    
C1    C13   S    
C49   C51   A    
Cu2   O7    S    
C9    C11   A    
C29   C31   A    
C39   H10   S    
C20   C22   A    
C22   C25   A    
C45   C50   A    
C21   H17   S    
Cu2   O6    S    
C31   H18   S    
C34   C48   A    
C18   C27   A    
C24   C30   A    
C51   H15   S    
C30   C32   A    
C15   C52   S    
C24   C26   A    
C5    C7    A    
C1    O1    A    
C23   C47   A    
C10   C13   A    
C34   C44   A    
C40   C47   A    
C42   C44   A    
C16   O5    A    
C50   C52   A    
Cu1   O8    S    
C3    H5    S    
Br1   C33   S    
C49   H13   S    
C9    C15   A    
C33   C44   A    
C23   H22   S    
C2    C4    A    
C17   O8    A    
C27   C32   A    
C48   H21   S    
C23   C46   A    
