data_mof_unit_47648.cif
_audit_creation_date              2012-12-10T17:30:45-0500
_audit_creation_method            fapswitch 2.2
_symmetry_space_group_name_H-M    P1
_symmetry_Int_Tables_number       1
_space_group_crystal_system       triclinic
_cell_length_a                    21.856768
_cell_length_b                    21.89249
_cell_length_c                    55.541758
_cell_angle_alpha                 88.426631
_cell_angle_beta                  90.057441
_cell_angle_gamma                 89.110405
_cell_volume                      26563.4307504

loop_
_atom_site_label
_atom_site_type_symbol
_atom_type_description
_atom_site_fract_x
_atom_site_fract_y
_atom_site_fract_z
_atom_type_partial_charge
C1    C     C_R   0.380214 0.499974 0.999977 0.864933
C2    C     C_R   0.500194 0.379962 0.000234 0.864597
C3    C     C_R   0.619743 0.501236 0.000093 0.868316
C4    C     C_R   0.499989 0.619822 0.999675 0.862008
C5    C     C_R   0.880198 0.000587 0.499933 0.860389
C6    C     C_R   0.992909 0.880415 0.500359 0.878874
C7    C     C_R   0.120474 0.992283 0.500375 0.888521
C8    C     C_R   0.000895 0.120065 0.499761 0.877162
C9    C     C_R   0.633142 0.200181 0.035242 0.209251
C10   C     C_R   0.770440 0.649635 0.033500 0.194979
C11   C     C_R   0.352770 0.772743 0.034258 0.198325
C12   C     C_R   0.230118 0.347545 0.033669 0.193101
C13   C     C_R   0.650224 0.771974 0.965014 0.195971
C14   C     C_R   0.773681 0.346579 0.972068 0.192022
C15   C     C_R   0.348428 0.233762 0.963552 0.196002
C16   C     C_R   0.224982 0.649345 0.964472 0.198510
C17   C     C_R   0.143973 0.730228 0.529419 0.191684
C18   C     C_R   0.280599 0.081542 0.554582 0.143746
C19   C     C_R   0.850262 0.270708 0.536880 0.198389
C20   C     C_R   0.730765 0.842579 0.528860 0.189921
C21   C     C_R   0.132282 0.297045 0.464318 0.199591
C22   C     C_R   0.282074 0.931656 0.437963 0.191793
C23   C     C_R   0.858246 0.711109 0.463303 0.209317
C24   C     C_R   0.724935 0.153331 0.466852 0.195149
C25   C     C_R   0.573001 0.181271 0.031221 0.174020
C26   C     C_R   0.806840 0.596547 0.028300 0.129918
C27   C     C_R   0.406698 0.807051 0.029029 0.134693
C28   C     C_R   0.193737 0.401365 0.028374 0.131097
C29   C     C_R   0.597624 0.808400 0.971044 0.125217
C30   C     C_R   0.808015 0.401453 0.974626 0.137276
C31   C     C_R   0.400731 0.196339 0.969681 0.126854
C32   C     C_R   0.190533 0.595768 0.970276 0.131008
C33   C     C_R   0.094417 0.690751 0.525336 0.142709
C34   C     C_R   0.300229 0.081050 0.530256 0.164903
C35   C     C_R   0.902836 0.306216 0.531005 0.128324
C36   C     C_R   0.694414 0.897480 0.525635 0.136218
C37   C     C_R   0.072518 0.317461 0.468973 0.169819
C38   C     C_R   0.307659 0.973880 0.453888 0.161307
C39   C     C_R   0.917568 0.687575 0.467835 0.160266
C40   C     C_R   0.690495 0.099090 0.471617 0.132967
C41   C     C_R   0.536609 0.215139 0.014035 0.002119
C42   C     C_R   0.780794 0.549463 0.012858 -0.008803
C43   C     C_R   0.452826 0.781174 0.012542 -0.009527
C44   C     C_R   0.219493 0.449722 0.012464 -0.012099
C45   C     C_R   0.549700 0.781369 0.986638 -0.011473
C46   C     C_R   0.781634 0.450625 0.989321 -0.011329
C47   C     C_R   0.447716 0.220997 0.985576 -0.007264
C48   C     C_R   0.217857 0.548300 0.986604 -0.009098
C49   C     C_R   0.041769 0.718234 0.513483 -0.039203
C50   C     C_R   0.278646 0.033463 0.515400 0.022188
C51   C     C_R   0.949281 0.280452 0.514862 -0.003943
C52   C     C_R   0.719642 0.948183 0.510815 -0.013007
C53   C     C_R   0.037474 0.284142 0.486342 0.003350
C54   C     C_R   0.281534 0.980102 0.477281 -0.001433
C55   C     C_R   0.954935 0.718011 0.484752 0.008228
C56   C     C_R   0.717755 0.049981 0.487159 -0.006980
C57   C     C_R   0.543640 0.278661 0.012840 0.001541
C58   C     C_R   0.716035 0.550967 0.010738 -0.000767
C59   C     C_R   0.449947 0.717127 0.009711 0.004115
C60   C     C_R   0.284163 0.448697 0.010389 0.000592
C61   C     C_R   0.549839 0.716443 0.988080 0.001207
C62   C     C_R   0.717322 0.449143 0.992030 0.007615
C63   C     C_R   0.448085 0.285787 0.987865 0.006655
C64   C     C_R   0.282407 0.550228 0.988996 0.002531
C65   C     C_R   0.031730 0.781067 0.516335 0.009281
C66   C     C_R   0.221922 0.007389 0.520845 -0.013848
C67   C     C_R   0.948762 0.215865 0.512006 0.005456
C68   C     C_R   0.784120 0.947563 0.508475 0.007905
C69   C     C_R   0.044760 0.220420 0.487418 0.008134
C70   C     C_R   0.220858 0.960421 0.481275 0.015978
C71   C     C_R   0.947452 0.782095 0.486414 0.000781
C72   C     C_R   0.782280 0.051752 0.489685 0.000647
C73   C     C_R   0.494233 0.186402 0.998789 -0.182743
C74   C     C_R   0.813465 0.500589 0.000584 -0.181496
C75   C     C_R   0.501488 0.813434 0.999797 -0.178992
C76   C     C_R   0.186494 0.499024 0.999591 -0.179092
C77   C     C_R   0.999922 0.686339 0.499059 -0.175630
C78   C     C_R   0.312456 0.008504 0.496250 -0.163746
C79   C     C_R   0.995878 0.313811 0.501848 -0.178533
C80   C     C_R   0.686452 0.999175 0.499215 -0.180428
C81   C     C_R   0.497459 0.313982 0.000432 -0.152606
C82   C     C_R   0.685617 0.500863 0.000650 -0.140677
C83   C     C_R   0.499675 0.685722 0.998934 -0.144056
C84   C     C_R   0.314348 0.499742 0.999870 -0.144096
C85   C     C_R   0.988769 0.813807 0.501439 -0.141608
C86   C     C_R   0.188257 0.981680 0.501680 -0.197553
C87   C     C_R   0.998301 0.186208 0.499564 -0.159497
C88   C     C_R   0.814268 0.000242 0.499594 -0.136348
C89   C     C_R   0.556097 0.896011 0.802154 0.164576
C90   C     C_R   0.084632 0.574701 0.799713 0.164531
C91   C     C_R   0.433001 0.087683 0.798783 0.164398
C92   C     C_R   0.894309 0.455535 0.800834 0.165658
C93   C     C_R   0.560757 0.101787 0.197929 0.164796
C94   C     C_R   0.099876 0.423618 0.200890 0.163852
C95   C     C_R   0.426376 0.921991 0.200807 0.164568
C96   C     C_R   0.941440 0.584987 0.198284 0.170421
C97   C     C_R   0.063728 0.391817 0.301895 0.165176
C98   C     C_R   0.591277 0.072834 0.299246 0.164483
C99   C     C_R   0.910045 0.557404 0.299648 0.170480
C100  C     C_R   0.400496 0.954176 0.301461 0.167272
C101  C     C_R   0.062158 0.595628 0.697774 0.164021
C102  C     C_R   0.582191 0.917425 0.700472 0.164068
C103  C     C_R   0.929818 0.414330 0.701225 0.165046
C104  C     C_R   0.399059 0.052992 0.698697 0.166800
C105  C     C_R   0.446321 0.981055 0.889449 0.038397
C106  C     C_R   0.015649 0.454429 0.888657 0.042650
C107  C     C_R   0.551704 0.016021 0.888626 0.042046
C108  C     C_R   0.974094 0.558370 0.889418 0.041190
C109  C     C_R   0.447002 0.025191 0.110182 0.032688
C110  C     C_R   0.033779 0.547026 0.110037 0.041197
C111  C     C_R   0.550825 0.982769 0.111512 0.046052
C112  C     C_R   0.987441 0.446400 0.111815 0.043150
C113  C     C_R   0.946879 0.468963 0.390276 0.031923
C114  C     C_R   0.520203 0.952388 0.388994 0.042752
C115  C     C_R   0.049095 0.511801 0.388101 0.039853
C116  C     C_R   0.486622 0.059124 0.389024 0.044010
C117  C     C_R   0.949347 0.525515 0.610441 0.040157
C118  C     C_R   0.520024 0.044223 0.611220 0.041867
C119  C     C_R   0.048086 0.472049 0.611326 0.048953
C120  C     C_R   0.475174 0.942963 0.610565 0.034997
C121  C     C_R   0.446806 0.982515 0.914477 -0.268994
C122  C     C_R   0.017048 0.452215 0.913745 -0.274545
C123  C     C_R   0.551960 0.016690 0.913698 -0.273725
C124  C     C_R   0.976271 0.555941 0.914472 -0.273218
C125  C     C_R   0.447507 0.022468 0.085196 -0.273576
C126  C     C_R   0.029265 0.547720 0.085034 -0.269537
C127  C     C_R   0.551190 0.981029 0.086457 -0.278251
C128  C     C_R   0.984166 0.447096 0.086717 -0.276854
C129  C     C_R   0.947670 0.474219 0.415176 -0.264589
C130  C     C_R   0.520079 0.950755 0.414080 -0.279458
C131  C     C_R   0.049909 0.515719 0.413130 -0.282457
C132  C     C_R   0.487433 0.057269 0.414062 -0.278380
C133  C     C_R   0.949819 0.525053 0.585388 -0.267822
C134  C     C_R   0.521095 0.046248 0.586137 -0.284235
C135  C     C_R   0.048415 0.472387 0.586240 -0.292957
C136  C     C_R   0.477062 0.945135 0.585521 -0.272795
C137  C     C_R   0.499587 0.000037 0.926691 -0.064790
C138  C     C_R   0.997653 0.502966 0.926711 -0.063135
C139  C     C_R   0.499496 0.000513 0.073261 -0.065237
C140  C     C_R   0.004438 0.497951 0.073291 -0.063731
C141  C     C_R   0.999126 0.497317 0.426707 -0.067550
C142  C     C_R   0.503395 0.002998 0.426692 -0.078867
C143  C     C_R   0.999517 0.499099 0.573239 -0.061345
C144  C     C_R   0.499552 0.996843 0.573242 -0.069689
C145  C     C_R   0.493545 0.990133 0.775477 0.085736
C146  C     C_R   0.991336 0.512182 0.775295 0.085855
C147  C     C_R   0.494263 0.012261 0.224400 0.085574
C148  C     C_R   0.009859 0.494809 0.224796 0.082908
C149  C     C_R   0.997388 0.484158 0.275507 0.083084
C150  C     C_R   0.495360 0.012972 0.275321 0.085496
C151  C     C_R   0.994275 0.507603 0.724447 0.085821
C152  C     C_R   0.491787 0.987161 0.724589 0.085793
C153  C     C_R   0.498829 0.997947 0.876428 0.256674
C154  C     C_R   0.993994 0.507595 0.876417 0.256364
C155  C     C_R   0.498635 0.005019 0.123446 0.255321
C156  C     C_R   0.012281 0.496537 0.123585 0.249908
C157  C     C_R   0.997502 0.488154 0.376579 0.250245
C158  C     C_R   0.503004 0.006584 0.376393 0.258465
C159  C     C_R   0.998611 0.499013 0.623498 0.256441
C160  C     C_R   0.496747 0.992565 0.623504 0.256560
C161  C     C_R   0.499914 0.000552 0.952977 0.872595
C162  C     C_R   0.999303 0.500797 0.952998 0.883421
C163  C     C_R   0.499953 0.999363 0.047004 0.871911
C164  C     C_R   0.000730 0.499271 0.047014 0.879920
C165  C     C_R   0.999893 0.500292 0.452971 0.853977
C166  C     C_R   0.501008 0.000773 0.452995 0.863071
C167  C     C_R   0.999965 0.499760 0.546990 0.872021
C168  C     C_R   0.499829 0.999183 0.546983 0.896269
C169  C     C_R   0.498673 0.120019 0.998396 0.871619
C170  C     C_R   0.879821 0.500333 0.000088 0.885528
C171  C     C_R   0.500512 0.879788 0.999841 0.882215
C172  C     C_R   0.120166 0.499625 0.999898 0.884280
C173  C     C_R   0.999923 0.619995 0.500042 0.867771
C174  C     C_R   0.379508 0.001649 0.498988 0.879300
C175  C     C_R   0.999385 0.380116 0.502049 0.862760
C176  C     C_R   0.620147 0.999662 0.499789 0.880182
C177  C     C_R   0.555812 0.897745 0.776923 -0.211026
C178  C     C_R   0.082009 0.574284 0.774515 -0.210484
C179  C     C_R   0.430370 0.081952 0.773751 -0.210394
C180  C     C_R   0.899223 0.452275 0.775753 -0.211727
C181  C     C_R   0.561683 0.098904 0.223159 -0.211472
C182  C     C_R   0.093863 0.421464 0.226036 -0.208631
C183  C     C_R   0.425309 0.926765 0.225894 -0.210504
C184  C     C_R   0.938558 0.580724 0.223432 -0.211266
C185  C     C_R   0.066460 0.396694 0.276684 -0.209355
C186  C     C_R   0.586459 0.074479 0.274089 -0.210313
C187  C     C_R   0.914509 0.558966 0.274511 -0.211708
C188  C     C_R   0.403156 0.953202 0.276272 -0.212159
C189  C     C_R   0.061647 0.594283 0.723007 -0.210873
C190  C     C_R   0.578744 0.917303 0.725653 -0.210217
C191  C     C_R   0.926511 0.421204 0.726195 -0.210880
C192  C     C_R   0.403327 0.055010 0.723832 -0.212041
C193  C     C_R   0.526309 0.944833 0.814447 -0.075827
C194  C     C_R   0.038415 0.543139 0.813165 -0.075936
C195  C     C_R   0.465388 0.041611 0.812723 -0.075886
C196  C     C_R   0.942808 0.483317 0.813741 -0.075926
C197  C     C_R   0.528296 0.055809 0.185514 -0.074928
C198  C     C_R   0.057439 0.460613 0.187126 -0.076588
C199  C     C_R   0.461964 0.964696 0.187018 -0.076146
C200  C     C_R   0.975553 0.539568 0.186023 -0.073089
C201  C     C_R   0.029437 0.437019 0.314421 -0.076100
C202  C     C_R   0.545805 0.040800 0.312914 -0.075914
C203  C     C_R   0.954155 0.522213 0.313073 -0.073340
C204  C     C_R   0.449283 0.982399 0.314060 -0.074374
C205  C     C_R   0.030467 0.548858 0.685505 -0.075711
C206  C     C_R   0.538266 0.953283 0.686881 -0.076345
C207  C     C_R   0.963182 0.458433 0.687213 -0.075706
C208  C     C_R   0.446015 0.020989 0.685967 -0.074758
C209  C     C_R   0.495071 0.992187 0.800919 -0.090884
C210  C     C_R   0.990807 0.512985 0.800769 -0.091013
C211  C     C_R   0.494794 0.010957 0.198941 -0.091209
C212  C     C_R   0.014448 0.498377 0.199314 -0.090222
C213  C     C_R   0.993570 0.480942 0.301004 -0.090747
C214  C     C_R   0.496785 0.012111 0.300801 -0.091670
C215  C     C_R   0.995994 0.504953 0.699017 -0.090843
C216  C     C_R   0.491972 0.987056 0.699109 -0.091388
C217  C     C_R   0.525400 0.948037 0.839831 0.511919
C218  C     C_R   0.038206 0.539282 0.838617 0.511959
C219  C     C_R   0.470036 0.042954 0.838085 0.512365
C220  C     C_R   0.945370 0.483153 0.839168 0.511703
C221  C     C_R   0.527051 0.052992 0.160117 0.510946
C222  C     C_R   0.056521 0.462625 0.161582 0.512906
C223  C     C_R   0.466957 0.962811 0.161692 0.513037
C224  C     C_R   0.973025 0.534051 0.160851 0.508761
C225  C     C_R   0.028376 0.439946 0.339886 0.512071
C226  C     C_R   0.547499 0.035351 0.338313 0.513174
C227  C     C_R   0.960145 0.526037 0.338224 0.509432
C228  C     C_R   0.452453 0.983017 0.339471 0.511031
C229  C     C_R   0.030744 0.544556 0.660155 0.511481
C230  C     C_R   0.539087 0.957836 0.661454 0.513170
C231  C     C_R   0.965663 0.457918 0.661787 0.511454
C232  C     C_R   0.448899 0.020870 0.660549 0.511036
C233  C     C_R   0.528036 0.945596 0.763409 0.009277
C234  C     C_R   0.034878 0.545893 0.762077 0.009267
C235  C     C_R   0.457538 0.032606 0.762005 0.009282
C236  C     C_R   0.948709 0.476977 0.762964 0.009329
C237  C     C_R   0.531964 0.052950 0.236531 0.009198
C238  C     C_R   0.046744 0.452597 0.238113 0.010400
C239  C     C_R   0.456332 0.972670 0.237826 0.009546
C240  C     C_R   0.968375 0.533548 0.236862 0.012110
C241  C     C_R   0.038003 0.444898 0.263401 0.010317
C242  C     C_R   0.537987 0.047486 0.261951 0.009576
C243  C     C_R   0.960644 0.526784 0.262226 0.012233
C244  C     C_R   0.451502 0.978969 0.263119 0.008939
C245  C     C_R   0.030994 0.549273 0.736544 0.009396
C246  C     C_R   0.532881 0.949334 0.737920 0.009581
C247  C     C_R   0.955657 0.468723 0.737868 0.009080
C248  C     C_R   0.450878 0.025659 0.736821 0.009094
C249  C     C_R   0.597752 0.301794 0.024231 -0.068142
C250  C     C_R   0.683380 0.603734 0.018880 -0.076251
C251  C     C_R   0.395548 0.686509 0.017482 -0.073510
C252  C     C_R   0.316925 0.395011 0.018715 -0.073727
C253  C     C_R   0.601972 0.683934 0.978926 -0.072289
C254  C     C_R   0.686442 0.394244 0.986383 -0.071877
C255  C     C_R   0.396850 0.320022 0.978122 -0.071397
C256  C     C_R   0.313071 0.604256 0.980630 -0.072839
C257  C     C_R   0.069085 0.809870 0.533366 -0.019668
C258  C     C_R   0.203799 0.006597 0.545427 0.013983
C259  C     C_R   0.896523 0.183584 0.521051 -0.070091
C260  C     C_R   0.817084 0.893027 0.515179 -0.080662
C261  C     C_R   0.099185 0.196213 0.476127 -0.052153
C262  C     C_R   0.197014 0.916903 0.465488 0.005976
C263  C     C_R   0.896283 0.809656 0.473750 -0.073788
C264  C     C_R   0.813109 0.106220 0.482163 -0.074239
C265  C     C_R   0.645185 0.261572 0.031186 -0.258152
C266  C     C_R   0.714612 0.656691 0.022253 -0.246407
C267  C     C_R   0.343548 0.720670 0.021528 -0.251899
C268  C     C_R   0.285621 0.341634 0.022198 -0.241806
C269  C     C_R   0.655662 0.714235 0.975150 -0.250119
C270  C     C_R   0.720319 0.341042 0.985156 -0.240434
C271  C     C_R   0.343192 0.290508 0.973551 -0.252162
C272  C     C_R   0.279502 0.656891 0.976290 -0.253255
C273  C     C_R   0.129386 0.789815 0.535747 -0.247856
C274  C     C_R   0.234401 0.042006 0.561972 -0.261166
C275  C     C_R   0.843503 0.215629 0.525834 -0.254881
C276  C     C_R   0.785810 0.839112 0.516719 -0.228613
C277  C     C_R   0.145867 0.235714 0.468894 -0.258288
C278  C     C_R   0.228264 0.902241 0.444507 -0.261595
C279  C     C_R   0.848444 0.773220 0.466281 -0.246039
C280  C     C_R   0.779710 0.159349 0.478739 -0.245923
H1    H     H_    0.302538 0.318068 0.969375 0.167476
H2    H     H_    0.695915 0.298312 0.984444 0.170007
H3    H     H_    0.696653 0.687508 0.971258 0.168331
H4    H     H_    0.303916 0.699149 0.972903 0.168693
H5    H     H_    0.300774 0.696817 0.024301 0.168602
H6    H     H_    0.688269 0.698274 0.025329 0.168838
H7    H     H_    0.688326 0.279223 0.037514 0.163319
H8    H     H_    0.311951 0.299607 0.025256 0.168245
H9    H     H_    0.806703 0.794334 0.459138 0.162627
H10   H     H_    0.210299 0.867311 0.433069 0.151993
H11   H     H_    0.189479 0.217496 0.462776 0.154093
H12   H     H_    0.804360 0.201733 0.476073 0.168578
H13   H     H_    0.802173 0.190034 0.529559 0.167973
H14   H     H_    0.221545 0.039147 0.580834 0.157152
H15   H     H_    0.162663 0.817500 0.544639 0.176114
H16   H     H_    0.812357 0.796838 0.518182 0.168441
H17   H     H_    0.406268 0.969139 0.924418 0.164857
H18   H     H_    0.033993 0.411275 0.923128 0.160974
H19   H     H_    0.592741 0.030798 0.923038 0.162313
H20   H     H_    0.960492 0.595085 0.924419 0.160996
H21   H     H_    0.407766 0.038608 0.075045 0.164003
H22   H     H_    0.045854 0.586826 0.074712 0.162917
H23   H     H_    0.591462 0.963951 0.077273 0.163731
H24   H     H_    0.964790 0.408578 0.077687 0.160769
H25   H     H_    0.908585 0.458999 0.425611 0.169368
H26   H     H_    0.532829 0.908753 0.423738 0.170083
H27   H     H_    0.089722 0.533764 0.421984 0.167000
H28   H     H_    0.473487 0.097581 0.423676 0.164920
H29   H     H_    0.911972 0.545876 0.575349 0.159956
H30   H     H_    0.538879 0.086160 0.576686 0.167780
H31   H     H_    0.086503 0.451504 0.576850 0.160592
H32   H     H_    0.459956 0.906961 0.575605 0.165400
H33   H     H_    0.575067 0.859710 0.767587 0.162735
H34   H     H_    0.119105 0.593707 0.764397 0.162656
H35   H     H_    0.409380 0.118114 0.763040 0.163117
H36   H     H_    0.862601 0.432557 0.765822 0.162788
H37   H     H_    0.583578 0.134655 0.232648 0.162834
H38   H     H_    0.128020 0.396857 0.236387 0.161560
H39   H     H_    0.402445 0.892215 0.236446 0.162928
H40   H     H_    0.914163 0.616083 0.232501 0.160089
H41   H     H_    0.089394 0.360978 0.267251 0.161417
H42   H     H_    0.622807 0.094455 0.263700 0.162788
H43   H     H_    0.880158 0.584329 0.264561 0.159945
H44   H     H_    0.365551 0.934510 0.266601 0.163018
H45   H     H_    0.082998 0.630651 0.732309 0.162631
H46   H     H_    0.614333 0.894410 0.735919 0.162711
H47   H     H_    0.903335 0.387261 0.736951 0.163186
H48   H     H_    0.367558 0.077533 0.733625 0.162996
N1    N     N_R   0.498396 0.996444 0.850648 -0.336240
N2    N     N_R   0.992419 0.510154 0.850609 -0.336604
N3    N     N_R   0.497783 0.006861 0.149213 -0.336030
N4    N     N_R   0.013785 0.497341 0.149418 -0.336703
N5    N     N_R   0.995720 0.484833 0.350817 -0.336103
N6    N     N_R   0.501092 0.008099 0.350599 -0.335954
N7    N     N_R   0.998651 0.500272 0.649283 -0.337088
N8    N     N_R   0.494891 0.990422 0.649297 -0.335892
O1    O     O_R   0.408450 0.500000 0.979840 -0.616871
O2    O     O_R   0.500000 0.408450 0.979840 -0.613101
O3    O     O_R   0.591550 0.500000 0.979840 -0.614193
O4    O     O_R   0.500000 0.591550 0.979840 -0.614878
O5    O     O_R   0.408450 0.500000 0.020160 -0.612343
O6    O     O_R   0.500000 0.591550 0.020160 -0.614666
O7    O     O_R   0.591550 0.500000 0.020160 -0.610945
O8    O     O_R   0.500000 0.408450 0.020160 -0.612042
O9    O     O_R   0.908450 1.000000 0.479840 -0.614724
O10   O     O_R   1.000000 0.908450 0.479840 -0.608778
O11   O     O_R   0.091550 1.000000 0.479840 -0.598760
O12   O     O_R   0.000000 0.091550 0.479840 -0.607927
O13   O     O_R   0.908450 0.000000 0.520160 -0.614760
O14   O     O_R   1.000000 0.091550 0.520160 -0.620393
O15   O     O_R   0.091550 0.000000 0.520160 -0.618579
O16   O     O_R   1.000000 0.908450 0.520160 -0.622326
O17   O     O_R   0.448330 0.999980 0.964340 -0.636150
O18   O     O_R   0.000020 0.448330 0.964340 -0.636817
O19   O     O_R   0.551670 0.000020 0.964340 -0.635073
O20   O     O_R   0.999980 0.551670 0.964340 -0.635575
O21   O     O_R   0.448330 0.000020 0.035660 -0.633908
O22   O     O_R   0.000020 0.551670 0.035660 -0.635459
O23   O     O_R   0.551670 0.999980 0.035660 -0.634299
O24   O     O_R   0.999980 0.448330 0.035660 -0.634005
O25   O     O_R   0.948330 0.499980 0.464340 -0.637246
O26   O     O_R   0.500020 0.948330 0.464340 -0.624903
O27   O     O_R   0.051670 0.500020 0.464340 -0.627119
O28   O     O_R   0.499980 0.051670 0.464340 -0.640368
O29   O     O_R   0.948330 0.500020 0.535660 -0.634783
O30   O     O_R   0.500020 0.051670 0.535660 -0.635463
O31   O     O_R   0.051670 0.499980 0.535660 -0.628726
O32   O     O_R   0.499980 0.948330 0.535660 -0.633900
O33   O     O_2   0.550880 0.903647 0.854013 -0.603601
O34   O     O_2   0.083346 0.563373 0.851701 -0.602568
O35   O     O_2   0.446816 0.089895 0.850536 -0.602161
O36   O     O_2   0.902258 0.455633 0.852768 -0.601670
O37   O     O_2   0.554680 0.095331 0.146019 -0.606939
O38   O     O_2   0.096817 0.429903 0.148653 -0.601858
O39   O     O_2   0.441999 0.917497 0.149214 -0.600936
O40   O     O_2   0.929251 0.563435 0.147670 -0.595276
O41   O     O_2   0.060243 0.399618 0.353928 -0.605413
O42   O     O_2   0.594902 0.056306 0.351053 -0.600490
O43   O     O_2   0.932500 0.571521 0.350216 -0.596298
O44   O     O_2   0.407996 0.958829 0.353375 -0.616394
O45   O     O_2   0.062534 0.583769 0.646059 -0.601057
O46   O     O_2   0.583647 0.930924 0.648557 -0.600185
O47   O     O_2   0.935269 0.416228 0.649208 -0.602640
O48   O     O_2   0.407067 0.051245 0.646768 -0.609965
O49   O     O_R   0.448330 0.091630 0.999960 -0.622860
O50   O     O_R   0.908370 0.448330 0.999960 -0.620893
O51   O     O_R   0.551670 0.908370 0.999960 -0.621319
O52   O     O_R   0.091630 0.551670 0.999960 -0.621338
O53   O     O_R   0.448330 0.908370 0.000040 -0.620406
O54   O     O_R   0.908370 0.551670 0.000040 -0.621942
O55   O     O_R   0.551670 0.091630 0.000040 -0.616278
O56   O     O_R   0.091630 0.448330 0.000040 -0.621227
O57   O     O_R   0.948330 0.591630 0.499960 -0.621902
O58   O     O_R   0.408370 0.948330 0.499960 -0.606966
O59   O     O_R   0.051670 0.408370 0.499960 -0.621670
O60   O     O_R   0.591630 0.051670 0.499960 -0.620949
O61   O     O_R   0.948330 0.408370 0.500040 -0.620795
O62   O     O_R   0.408370 0.051670 0.500040 -0.635813
O63   O     O_R   0.051670 0.591630 0.500040 -0.612518
O64   O     O_R   0.591630 0.948330 0.500040 -0.621060
Zn1   Zn    Zn3+2 0.500000 0.500000 0.973090 1.018493
Zn2   Zn    Zn3+2 0.500000 0.500000 0.026910 1.018965
Zn3   Zn    Zn3+2 1.000000 0.000000 0.473090 1.015205
Zn4   Zn    Zn3+2 1.000000 0.000000 0.526910 1.012276
Zn5   Zn    Zn3+2 0.430980 0.000000 0.000000 0.876159
Zn6   Zn    Zn3+2 0.000000 0.430980 0.000000 0.875087
Zn7   Zn    Zn3+2 0.569020 0.000000 0.000000 0.901809
Zn8   Zn    Zn3+2 1.000000 0.569020 0.000000 0.873399
Zn9   Zn    Zn3+2 0.930980 0.500000 0.500000 0.902324
Zn10  Zn    Zn3+2 0.500000 0.930980 0.500000 0.915766
Zn11  Zn    Zn3+2 0.069020 0.500000 0.500000 0.913758
Zn12  Zn    Zn3+2 0.500000 0.069020 0.500000 0.887109
C281  C     C_1   0.602744 0.358969 0.036061 0.216913
N9    N     N_1   0.608530 0.402609 0.047039 -0.157656
C282  C     C_1   0.633856 0.600050 0.036031 0.239289
N10   N     N_1   0.596031 0.598340 0.050604 -0.166476
C283  C     C_1   0.396328 0.634680 0.034128 0.234605
N11   N     N_1   0.395488 0.595287 0.048455 -0.165350
C284  C     C_1   0.366547 0.396783 0.035855 0.235276
N12   N     N_1   0.404409 0.396834 0.050449 -0.167880
C285  C     C_1   0.597823 0.635202 0.962013 0.238823
N13   N     N_1   0.595799 0.597764 0.947715 -0.167046
C286  C     C_1   0.637806 0.393864 0.968779 0.221307
N14   N     N_1   0.601042 0.392190 0.953807 -0.165413
C287  C     C_1   0.402506 0.370614 0.961078 0.251892
N15   N     N_1   0.405810 0.409647 0.946658 -0.168905
C288  C     C_1   0.364418 0.603252 0.964304 0.232210
N16   N     N_1   0.403538 0.603920 0.950267 -0.164405
C289  C     C_1   0.041187 0.833993 0.554741 0.265425
N17   N     N_1   0.018883 0.852646 0.572003 -0.183092
C290  C     C_1   0.164244 0.961077 0.555752 0.206240
N18   N     N_1   0.132998 0.925048 0.564707 -0.217047
C291  C     C_1   0.900541 0.131662 0.537597 0.242584
N19   N     N_1   0.902434 0.091793 0.551730 -0.168230
C292  C     C_1   0.864166 0.893410 0.533382 0.208457
N20   N     N_1   0.899883 0.892719 0.548774 -0.159889
C293  C     C_1   0.104690 0.138840 0.464411 0.205246
N21   N     N_1   0.111042 0.095247 0.453355 -0.160187
C294  C     C_1   0.148807 0.876247 0.472416 0.171425
N22   N     N_1   0.111489 0.841540 0.477515 -0.202514
C295  C     C_1   0.896216 0.868041 0.461336 0.215331
N23   N     N_1   0.894799 0.912897 0.449849 -0.160181
C296  C     C_1   0.863891 0.105817 0.465564 0.228894
N24   N     N_1   0.902473 0.106964 0.451306 -0.167825
C297  C     C_3   0.682096 0.159081 0.046639 -0.408325
C298  C     C_3   0.736663 0.151809 0.029738 -0.877949
H49   H     H_    0.721592 0.132578 0.012440 0.261396
H50   H     H_    0.758734 0.196453 0.026072 0.256541
H51   H     H_    0.771071 0.120113 0.038198 0.252234
H52   H     H_    0.697621 0.178835 0.063782 0.209399
H53   H     H_    0.665104 0.112674 0.050894 0.213855
C299  C     C_3   0.781993 0.694526 0.053750 -0.448453
C300  C     C_3   0.733318 0.689841 0.073529 -0.838911
H54   H     H_    0.687779 0.705613 0.066803 0.255900
H55   H     H_    0.730205 0.641868 0.080424 0.268074
H56   H     H_    0.746014 0.719146 0.088705 0.254326
H57   H     H_    0.825734 0.687653 0.063396 0.231897
H58   H     H_    0.781919 0.741903 0.046021 0.204537
C301  C     C_3   0.309301 0.781893 0.055636 -0.448155
C302  C     C_3   0.311397 0.727464 0.073584 -0.838030
H59   H     H_    0.292045 0.685995 0.065649 0.256242
H60   H     H_    0.359303 0.717706 0.079388 0.268160
H61   H     H_    0.283769 0.738353 0.089728 0.254753
H62   H     H_    0.319573 0.821595 0.066658 0.232269
H63   H     H_    0.261787 0.788375 0.048779 0.204710
C303  C     C_3   0.219033 0.300503 0.054179 -0.447947
C304  C     C_3   0.268949 0.301937 0.073551 -0.837998
H64   H     H_    0.313738 0.285847 0.066555 0.255247
H65   H     H_    0.273556 0.349069 0.080183 0.268278
H66   H     H_    0.256449 0.271278 0.088977 0.255344
H67   H     H_    0.176055 0.307194 0.064178 0.232645
H68   H     H_    0.217743 0.254051 0.046623 0.204835
C305  C     C_3   0.696437 0.786121 0.944855 -0.448736
C306  C     C_3   0.689851 0.742646 0.923887 -0.836006
H69   H     H_    0.702330 0.694977 0.929417 0.256143
H70   H     H_    0.642044 0.744109 0.917050 0.268130
H71   H     H_    0.720842 0.756862 0.908990 0.254740
H72   H     H_    0.692422 0.832169 0.936461 0.231478
H73   H     H_    0.743604 0.781853 0.952285 0.204383
C307  C     C_3   0.783851 0.298311 0.952840 -0.447252
C308  C     C_3   0.729328 0.294146 0.935599 -0.844160
H74   H     H_    0.688591 0.275153 0.944853 0.255595
H75   H     H_    0.717713 0.340032 0.927687 0.269951
H76   H     H_    0.741356 0.263279 0.920723 0.253433
H77   H     H_    0.822836 0.307317 0.940761 0.231975
H78   H     H_    0.792057 0.253001 0.961878 0.205896
C309  C     C_3   0.301688 0.221371 0.943716 -0.447003
C310  C     C_3   0.307953 0.266501 0.922330 -0.840542
H79   H     H_    0.296284 0.313862 0.927515 0.256613
H80   H     H_    0.355475 0.265050 0.915260 0.266949
H81   H     H_    0.276207 0.253869 0.907718 0.254889
H82   H     H_    0.305412 0.175851 0.935836 0.231326
H83   H     H_    0.254739 0.225249 0.951258 0.204764
C311  C     C_3   0.212938 0.694444 0.943243 -0.448107
C312  C     C_3   0.263466 0.691140 0.924195 -0.836826
H84   H     H_    0.307578 0.707692 0.931220 0.256570
H85   H     H_    0.269592 0.643386 0.918252 0.267640
H86   H     H_    0.250585 0.720492 0.908305 0.254514
H87   H     H_    0.170370 0.686833 0.933177 0.231927
H88   H     H_    0.209997 0.741643 0.950080 0.204582
C313  C     C_3   0.210212 0.709995 0.527686 -0.394830
C314  C     C_3   0.245921 0.718931 0.551039 -0.872336
H89   H     H_    0.257310 0.767824 0.552908 0.255970
H90   H     H_    0.219241 0.703889 0.567063 0.267126
H91   H     H_    0.289468 0.692197 0.550581 0.252897
H92   H     H_    0.213955 0.661679 0.522289 0.206495
H93   H     H_    0.232196 0.737400 0.513044 0.207557
C315  C     C_3   0.309732 0.120996 0.573404 -0.438542
C316  C     C_3   0.375810 0.101064 0.578362 -0.791131
H94   H     H_    0.377646 0.052290 0.584425 0.275068
H95   H     H_    0.404225 0.107202 0.561972 0.250574
H96   H     H_    0.395226 0.129066 0.592797 0.265012
H97   H     H_    0.307584 0.170137 0.568146 0.196344
H98   H     H_    0.284464 0.117200 0.590736 0.221640
C317  C     C_3   0.804813 0.283114 0.557271 -0.446296
C318  C     C_3   0.810065 0.234498 0.577564 -0.839059
H99   H     H_    0.795908 0.189056 0.571387 0.256710
H100  H     H_    0.857923 0.231264 0.584299 0.266432
H101  H     H_    0.779720 0.247257 0.592708 0.255336
H102  H     H_    0.810839 0.326907 0.566233 0.231529
H103  H     H_    0.757498 0.283673 0.549902 0.205192
C319  C     C_3   0.720600 0.791761 0.547990 -0.449254
C320  C     C_3   0.772964 0.786857 0.566373 -0.840088
H104  H     H_    0.815936 0.770025 0.558059 0.254614
H105  H     H_    0.780929 0.832065 0.574332 0.270275
H106  H     H_    0.760750 0.753923 0.581097 0.254401
H107  H     H_    0.679525 0.798185 0.559157 0.232847
H108  H     H_    0.716187 0.747397 0.538935 0.206733
C321  C     C_3   0.180191 0.338255 0.453285 -0.431813
C322  C     C_3   0.190837 0.325954 0.426671 -0.832224
H109  H     H_    0.202627 0.277069 0.424046 0.256614
H110  H     H_    0.149567 0.338643 0.415917 0.275656
H111  H     H_    0.229353 0.354092 0.419924 0.252401
H112  H     H_    0.167236 0.387107 0.455325 0.207920
H113  H     H_    0.223926 0.330873 0.463257 0.202375
C323  C     C_3   0.311758 0.915628 0.414196 -0.404953
C324  C     C_3   0.369089 0.875901 0.418283 -0.825081
H114  H     H_    0.402306 0.898579 0.430069 0.259466
H115  H     H_    0.356563 0.831401 0.426855 0.252749
H116  H     H_    0.391439 0.867223 0.400731 0.273527
H117  H     H_    0.279701 0.889803 0.402879 0.206625
H118  H     H_    0.323011 0.957279 0.403388 0.235432
C325  C     C_3   0.807661 0.674072 0.452484 -0.413797
C326  C     C_3   0.753495 0.668940 0.469736 -0.876534
H119  H     H_    0.768426 0.647069 0.487097 0.259958
H120  H     H_    0.733327 0.714737 0.473202 0.258885
H121  H     H_    0.717631 0.640445 0.461691 0.253480
H122  H     H_    0.792174 0.696267 0.435251 0.209113
H123  H     H_    0.822986 0.627026 0.448467 0.214135
C327  C     C_3   0.712697 0.200959 0.446515 -0.448087
C328  C     C_3   0.763233 0.200391 0.427407 -0.837760
H124  H     H_    0.807240 0.216363 0.434746 0.255294
H125  H     H_    0.769694 0.153537 0.420543 0.268428
H126  H     H_    0.750122 0.231546 0.412078 0.254885
H127  H     H_    0.670213 0.194374 0.436272 0.231678
H128  H     H_    0.709489 0.247138 0.454292 0.205310
C329  C     C_3   0.541712 0.141847 0.050281 -0.421027
C330  C     C_3   0.535277 0.175381 0.073936 -0.835561
H129  H     H_    0.580935 0.185454 0.081514 0.264278
H130  H     H_    0.509102 0.218858 0.070974 0.263113
H131  H     H_    0.510384 0.146339 0.087254 0.272678
H132  H     H_    0.494874 0.129663 0.044650 0.209489
H133  H     H_    0.567984 0.099198 0.053733 0.224067
C331  C     C_3   0.865252 0.589329 0.042983 -0.321542
C332  C     C_3   0.911005 0.641781 0.037614 -0.748474
H134  H     H_    0.937489 0.635934 0.020996 0.286606
H135  H     H_    0.889154 0.687134 0.034470 0.198548
H136  H     H_    0.943350 0.645187 0.052931 0.234817
H137  H     H_    0.852816 0.590005 0.062361 0.182382
H138  H     H_    0.886355 0.543592 0.041696 0.194756
C333  C     C_3   0.415213 0.862930 0.044259 -0.334018
C334  C     C_3   0.362442 0.910847 0.040586 -0.748699
H139  H     H_    0.316344 0.891384 0.039313 0.198976
H140  H     H_    0.361881 0.942537 0.055841 0.237458
H141  H     H_    0.365859 0.937413 0.023546 0.286819
H142  H     H_    0.416129 0.847684 0.063493 0.182889
H143  H     H_    0.460645 0.883382 0.042073 0.193277
C335  C     C_3   0.136102 0.407948 0.043444 -0.325269
C336  C     C_3   0.089305 0.356595 0.038976 -0.752839
H144  H     H_    0.110317 0.311178 0.036103 0.200163
H145  H     H_    0.057774 0.352574 0.054578 0.233376
H146  H     H_    0.061876 0.364072 0.022542 0.287880
H147  H     H_    0.149662 0.405517 0.062732 0.184421
H148  H     H_    0.115232 0.453958 0.041876 0.193524
C337  C     C_3   0.591954 0.868512 0.956970 -0.315943
C338  C     C_3   0.644631 0.912933 0.962800 -0.747148
H149  H     H_    0.636908 0.939518 0.979038 0.289300
H150  H     H_    0.688910 0.889682 0.966785 0.199966
H151  H     H_    0.651272 0.945378 0.947345 0.226498
H152  H     H_    0.593897 0.858612 0.937470 0.184175
H153  H     H_    0.546092 0.889265 0.958353 0.194522
C339  C     C_3   0.862945 0.408488 0.957992 -0.329373
C340  C     C_3   0.912895 0.357999 0.962438 -0.749679
H154  H     H_    0.895267 0.311519 0.965477 0.197497
H155  H     H_    0.944195 0.356824 0.946727 0.235228
H156  H     H_    0.940017 0.364352 0.978827 0.287938
H157  H     H_    0.846509 0.405672 0.939133 0.183188
H158  H     H_    0.882278 0.454733 0.958192 0.195174
C341  C     C_3   0.406734 0.137174 0.956088 -0.328856
C342  C     C_3   0.354854 0.091639 0.962255 -0.762955
H159  H     H_    0.363855 0.062973 0.978443 0.288903
H160  H     H_    0.310581 0.114202 0.966355 0.205311
H161  H     H_    0.348057 0.060980 0.946913 0.229294
H162  H     H_    0.404422 0.148865 0.936512 0.186523
H163  H     H_    0.452498 0.115801 0.957596 0.189571
C343  C     C_3   0.132522 0.589026 0.955625 -0.326237
C344  C     C_3   0.085354 0.641605 0.959960 -0.748185
H164  H     H_    0.059787 0.635976 0.976903 0.286444
H165  H     H_    0.105744 0.687063 0.961813 0.199049
H166  H     H_    0.052397 0.644800 0.944749 0.233517
H167  H     H_    0.145085 0.589897 0.936249 0.182823
H168  H     H_    0.112597 0.543415 0.957830 0.194237
C345  C     C_3   0.083171 0.644306 0.545747 -0.351687
C346  C     C_3   0.133803 0.595737 0.548966 -0.774142
H169  H     H_    0.119034 0.560323 0.562223 0.255503
H170  H     H_    0.144831 0.574217 0.531603 0.266784
H171  H     H_    0.175570 0.614972 0.556701 0.242832
H172  H     H_    0.079020 0.669204 0.562874 0.197408
H173  H     H_    0.038692 0.621574 0.543736 0.193944
C347  C     C_3   0.327857 0.139483 0.519360 -0.352567
C348  C     C_3   0.307420 0.154887 0.493463 -0.870004
H174  H     H_    0.319928 0.202615 0.488575 0.237047
H175  H     H_    0.330340 0.124799 0.480498 0.280326
H176  H     H_    0.257012 0.150805 0.491736 0.255128
H177  H     H_    0.311754 0.179316 0.529595 0.189067
H178  H     H_    0.378354 0.139167 0.520988 0.227614
C349  C     C_3   0.909460 0.364710 0.544831 -0.339775
C350  C     C_3   0.857236 0.411868 0.539163 -0.751445
H179  H     H_    0.863975 0.437954 0.522200 0.288479
H180  H     H_    0.811936 0.391205 0.536666 0.202908
H181  H     H_    0.853522 0.444557 0.554047 0.235987
H182  H     H_    0.908342 0.352646 0.564380 0.187246
H183  H     H_    0.955023 0.384887 0.542956 0.188349
C351  C     C_3   0.638908 0.903162 0.542076 -0.331417
C352  C     C_3   0.589859 0.853926 0.537745 -0.754249
H184  H     H_    0.560588 0.863952 0.522028 0.291318
H185  H     H_    0.608758 0.808313 0.533691 0.201082
H186  H     H_    0.560137 0.849433 0.553879 0.232821
H187  H     H_    0.655199 0.897749 0.560979 0.185117
H188  H     H_    0.618651 0.949676 0.541779 0.194695
C353  C     C_3   0.039207 0.354989 0.449505 -0.385765
C354  C     C_3   0.017283 0.314107 0.429466 -0.838388
H189  H     H_    0.995856 0.342674 0.414837 0.264032
H190  H     H_    0.055943 0.287618 0.421794 0.271289
H191  H     H_    0.982752 0.281629 0.436617 0.259102
H192  H     H_    0.997994 0.378016 0.456622 0.207796
H193  H     H_    0.069081 0.390725 0.441648 0.222637
C355  C     C_3   0.349020 0.023059 0.443433 -0.444982
C356  C     C_3   0.311275 0.073403 0.430541 -0.863064
H194  H     H_    0.285209 0.054842 0.415299 0.264618
H195  H     H_    0.278505 0.094556 0.443244 0.263474
H196  H     H_    0.342193 0.109301 0.423355 0.253460
H197  H     H_    0.376938 0.045073 0.457055 0.217487
H198  H     H_    0.381759 0.003468 0.430581 0.225483
C357  C     C_3   0.945833 0.643381 0.450177 -0.415556
C358  C     C_3   0.948184 0.671218 0.424647 -0.848204
H199  H     H_    0.901469 0.680065 0.417403 0.261002
H200  H     H_    0.973664 0.714745 0.424564 0.266663
H201  H     H_    0.972027 0.638974 0.412587 0.271081
H202  H     H_    0.993805 0.631319 0.454952 0.204042
H203  H     H_    0.919375 0.600950 0.449975 0.229518
C359  C     C_3   0.633068 0.093217 0.456490 -0.323580
C360  C     C_3   0.584949 0.144578 0.461323 -0.750502
H204  H     H_    0.557836 0.136439 0.477707 0.290002
H205  H     H_    0.604769 0.189741 0.464522 0.200020
H206  H     H_    0.553305 0.149631 0.445748 0.228598
H207  H     H_    0.646424 0.096309 0.437209 0.184215
H208  H     H_    0.613585 0.047211 0.457875 0.195823
C361  C     C_1   0.391906 0.961575 0.877290 0.181894
N25   N     N_1   0.348302 0.945976 0.867512 -0.201704
C362  C     C_1   0.036966 0.402133 0.875623 0.187267
N26   N     N_1   0.054040 0.360222 0.865142 -0.199453
C363  C     C_1   0.605761 0.034244 0.875569 0.186994
N27   N     N_1   0.649090 0.048833 0.865072 -0.199729
C364  C     C_1   0.951001 0.613016 0.877207 0.181457
N28   N     N_1   0.932502 0.656813 0.867387 -0.201872
C365  C     C_1   0.393502 0.049345 0.122040 0.179249
N29   N     N_1   0.350630 0.068700 0.131575 -0.202353
C366  C     C_1   0.060587 0.598417 0.121628 0.176920
N30   N     N_1   0.082044 0.639598 0.130951 -0.206238
C367  C     C_1   0.603996 0.961247 0.124824 0.189539
N31   N     N_1   0.646614 0.944016 0.135527 -0.199852
C368  C     C_1   0.964119 0.394589 0.125322 0.195099
N32   N     N_1   0.945441 0.353056 0.136182 -0.197747
C369  C     C_1   0.894048 0.443265 0.378964 0.175473
N33   N     N_1   0.851713 0.422679 0.369867 -0.205138
C370  C     C_1   0.537692 0.898163 0.376345 0.183486
N34   N     N_1   0.551674 0.854692 0.366174 -0.199170
C371  C     C_1   0.101084 0.532812 0.374397 0.196284
N35   N     N_1   0.142761 0.549636 0.363379 -0.197623
C372  C     C_1   0.467564 0.114779 0.376459 0.175086
N36   N     N_1   0.452281 0.159382 0.366362 -0.203076
C373  C     C_1   0.898475 0.553939 0.622590 0.183694
N37   N     N_1   0.857707 0.576715 0.632360 -0.199730
C374  C     C_1   0.542962 0.095283 0.624195 0.186515
N38   N     N_1   0.561325 0.136213 0.634629 -0.199432
C375  C     C_1   0.098637 0.443949 0.624423 0.188122
N39   N     N_1   0.139157 0.421436 0.634956 -0.199326
C376  C     C_1   0.450398 0.889929 0.622827 0.183570
N40   N     N_1   0.430547 0.847426 0.632688 -0.199936
C377  C     C_3   0.588723 0.842791 0.815673 -0.307258
C378  C     C_3   0.619801 0.793692 0.800570 -0.943687
H209  H     H_    0.585544 0.769905 0.789566 0.265769
H210  H     H_    0.655716 0.814068 0.788857 0.265360
H211  H     H_    0.642206 0.759041 0.812765 0.268244
H212  H     H_    0.625293 0.861711 0.827069 0.248034
H213  H     H_    0.554820 0.818771 0.827267 0.247006
C379  C     C_3   0.136073 0.609291 0.811972 -0.307070
C380  C     C_3   0.179969 0.645442 0.795709 -0.943798
H214  H     H_    0.207199 0.614170 0.784335 0.264686
H215  H     H_    0.154401 0.679595 0.784281 0.266354
H216  H     H_    0.212474 0.670451 0.807081 0.268137
H217  H     H_    0.114933 0.643195 0.824093 0.247045
H218  H     H_    0.164601 0.576083 0.822713 0.247624
C381  C     C_3   0.400525 0.142087 0.810388 -0.307019
C382  C     C_3   0.365122 0.187032 0.793724 -0.943468
H219  H     H_    0.396631 0.210357 0.780903 0.265690
H220  H     H_    0.328771 0.163165 0.783824 0.265473
H221  H     H_    0.342730 0.222637 0.804700 0.268249
H222  H     H_    0.366600 0.124127 0.823571 0.247403
H223  H     H_    0.435162 0.169277 0.819860 0.247727
C383  C     C_3   0.837808 0.429421 0.813560 -0.307921
C384  C     C_3   0.785754 0.407297 0.797656 -0.941594
H224  H     H_    0.768762 0.444869 0.785440 0.268244
H225  H     H_    0.801016 0.367455 0.787117 0.262919
H226  H     H_    0.747107 0.392381 0.809260 0.268008
H227  H     H_    0.852359 0.389760 0.825216 0.249493
H228  H     H_    0.817399 0.465573 0.824847 0.244648
C385  C     C_3   0.594939 0.153081 0.184531 -0.307931
C386  C     C_3   0.627596 0.199983 0.199757 -0.942292
H229  H     H_    0.594265 0.225117 0.211046 0.266351
H230  H     H_    0.663487 0.177357 0.211200 0.264724
H231  H     H_    0.650301 0.233857 0.187642 0.268552
H232  H     H_    0.630721 0.132098 0.173058 0.248273
H233  H     H_    0.561685 0.179395 0.173019 0.246681
C387  C     C_3   0.151226 0.386686 0.188983 -0.308093
C388  C     C_3   0.196236 0.351437 0.205572 -0.942643
H234  H     H_    0.220813 0.383205 0.217325 0.266733
H235  H     H_    0.172072 0.316308 0.216620 0.264149
H236  H     H_    0.230833 0.327540 0.194448 0.268535
H237  H     H_    0.130208 0.352278 0.177328 0.249647
H238  H     H_    0.179166 0.418493 0.177781 0.245292
C389  C     C_3   0.388677 0.872413 0.188980 -0.307015
C390  C     C_3   0.347868 0.833147 0.205402 -0.943130
H239  H     H_    0.376054 0.804632 0.218156 0.264759
H240  H     H_    0.315067 0.862304 0.215378 0.266121
H241  H     H_    0.321060 0.801809 0.194237 0.268307
H242  H     H_    0.357439 0.894914 0.175532 0.246298
H243  H     H_    0.420349 0.840486 0.179776 0.248371
C391  C     C_3   0.910685 0.639144 0.184720 -0.313486
C392  C     C_3   0.893701 0.694869 0.199564 -0.934726
H244  H     H_    0.854890 0.684484 0.211823 0.259830
H245  H     H_    0.933823 0.710031 0.210008 0.270923
H246  H     H_    0.878872 0.733117 0.187249 0.266704
H247  H     H_    0.942719 0.656223 0.170623 0.240370
H248  H     H_    0.868287 0.623369 0.175940 0.247726
C393  C     C_3   0.097007 0.338682 0.315186 -0.308988
C394  C     C_3   0.127477 0.289729 0.299842 -0.943627
H249  H     H_    0.093144 0.267860 0.288247 0.267140
H250  H     H_    0.164718 0.309697 0.288693 0.264048
H251  H     H_    0.148165 0.253660 0.311869 0.267710
H252  H     H_    0.133702 0.357552 0.326528 0.249874
H253  H     H_    0.063433 0.314410 0.326858 0.243711
C395  C     C_3   0.643931 0.106195 0.311255 -0.306820
C396  C     C_3   0.686299 0.143833 0.294871 -0.942758
H254  H     H_    0.712493 0.113677 0.282703 0.264419
H255  H     H_    0.659689 0.178856 0.284255 0.266434
H256  H     H_    0.719807 0.167898 0.306123 0.268344
H257  H     H_    0.624045 0.138893 0.324171 0.246522
H258  H     H_    0.673373 0.072036 0.321103 0.248410
C397  C     C_3   0.857088 0.590872 0.311990 -0.313596
C398  C     C_3   0.801831 0.608891 0.296199 -0.933421
H259  H     H_    0.813528 0.646572 0.283302 0.259458
H260  H     H_    0.785236 0.568819 0.286381 0.271075
H261  H     H_    0.764089 0.625659 0.307781 0.266996
H262  H     H_    0.838901 0.560412 0.326553 0.240819
H263  H     H_    0.874523 0.633098 0.320060 0.247257
C399  C     C_3   0.346397 0.924508 0.314632 -0.311045
C400  C     C_3   0.296520 0.896439 0.299207 -0.946428
H264  H     H_    0.274323 0.931923 0.287322 0.266554
H265  H     H_    0.315817 0.858879 0.288354 0.265562
H266  H     H_    0.260750 0.876791 0.311171 0.266570
H267  H     H_    0.364324 0.886941 0.326649 0.247312
H268  H     H_    0.323143 0.959685 0.325574 0.244258
C401  C     C_3   0.096225 0.646744 0.684210 -0.306696
C402  C     C_3   0.125470 0.696251 0.699218 -0.941183
H269  H     H_    0.090166 0.720695 0.709824 0.266985
H270  H     H_    0.161418 0.676106 0.711303 0.263783
H271  H     H_    0.147574 0.730248 0.686978 0.269048
H272  H     H_    0.133894 0.625838 0.673663 0.249632
H273  H     H_    0.063482 0.670923 0.671795 0.246304
C403  C     C_3   0.631913 0.878730 0.688374 -0.306661
C404  C     C_3   0.672863 0.838070 0.704740 -0.941732
H274  H     H_    0.701523 0.866321 0.716485 0.264509
H275  H     H_    0.644854 0.806026 0.715796 0.266091
H276  H     H_    0.704149 0.810508 0.693451 0.268956
H277  H     H_    0.609293 0.847321 0.675877 0.247043
H278  H     H_    0.662763 0.909632 0.678054 0.248351
C405  C     C_3   0.897973 0.360273 0.689790 -0.308164
C406  C     C_3   0.867845 0.313352 0.706778 -0.942283
H279  H     H_    0.902162 0.292294 0.719362 0.267933
H280  H     H_    0.829842 0.334881 0.716943 0.263455
H281  H     H_    0.848237 0.276360 0.696017 0.268070
H282  H     H_    0.861296 0.378343 0.677566 0.249409
H283  H     H_    0.932416 0.334387 0.679270 0.245056
C407  C     C_3   0.344994 0.085078 0.685724 -0.309713
C408  C     C_3   0.294903 0.113345 0.701377 -0.943689
H284  H     H_    0.274221 0.077972 0.713416 0.268058
H285  H     H_    0.313514 0.150959 0.712087 0.263913
H286  H     H_    0.258133 0.133038 0.689582 0.267176
H287  H     H_    0.362808 0.122759 0.674039 0.248414
H288  H     H_    0.321823 0.051202 0.674450 0.244558

loop_
_geom_bond_atom_site_label_1
_geom_bond_atom_site_label_2
_ccdc_geom_bond_type
C345  H173  S    
C301  C302  S    
C146  C234  A    
C159  N7    S    
C361  N25   T    
C251  C267  A    
C117  C159  A    
C402  H271  S    
C191  C247  A    
C287  N15   T    
C118  C160  A    
C312  H84   S    
C288  N16   T    
C252  C284  S    
C53   C69   A    
C387  C388  S    
C42   C58   A    
C99   C187  A    
C363  N27   T    
C11   C301  S    
C373  N37   T    
C324  H116  S    
C201  C225  A    
C330  H131  S    
C281  N9    T    
C6    C85   S    
C237  C242  A    
C46   C62   A    
C148  C238  A    
C229  O45   S    
C154  N2    S    
C96   C184  A    
C195  C209  A    
C101  C189  A    
C58   C82   A    
C332  H134  S    
C407  C408  S    
C117  C373  S    
C2    O2    A    
C112  C368  S    
C29   C337  S    
C176  O60   A    
C22   C38   A    
C311  H88   S    
C305  H72   S    
C388  H236  S    
C347  C348  S    
C346  H171  S    
C334  H140  S    
C322  H109  S    
C337  C338  S    
C261  C293  S    
C403  H277  S    
C64   C84   A    
C355  H198  S    
C92   C180  A    
C298  H51   S    
C72   C88   A    
C391  C392  S    
C5    C88   S    
C93   C181  A    
C377  H212  S    
C279  H9    S    
C298  H50   S    
C224  N4    A    
C16   C311  S    
O29   Zn9   S    
C163  O23   A    
O23   Zn7   S    
C196  C210  A    
C136  H32   S    
C393  H253  S    
C117  C133  A    
C151  C215  A    
C341  H162  S    
C307  C308  S    
O14   Zn4   S    
C114  C130  A    
C101  C401  S    
C108  C124  A    
C398  H261  S    
O6    Zn2   S    
C203  C227  A    
C315  H97   S    
C328  H126  S    
C394  H250  S    
C43   C75   A    
C356  H196  S    
C314  H90   S    
C133  C143  A    
C9    C25   A    
C406  H281  S    
C67   C259  A    
C169  O55   A    
C13   C305  S    
C328  H125  S    
C317  H102  S    
C357  H203  S    
C25   C41   A    
C186  C242  A    
C228  N6    A    
C226  N6    A    
C225  O41   S    
C24   C280  A    
C92   C196  A    
C293  N21   T    
C9    C265  A    
C28   C44   A    
C325  H123  S    
C47   C63   A    
C29   C45   A    
C218  N2    A    
C183  H39   S    
C347  H177  S    
C300  H56   S    
C97   C185  A    
C37   C53   A    
C20   C276  A    
C166  O26   A    
C339  H157  S    
C197  C211  A    
C26   C331  S    
C231  O47   S    
C297  H53   S    
O56   Zn6   S    
C362  N26   T    
C54   C70   A    
C382  H221  S    
C11   C27   A    
C149  C243  A    
C89   C193  A    
C390  H240  S    
O53   Zn5   S    
C138  C162  S    
C403  C404  S    
C2    O8    A    
C80   C176  S    
C227  N5    A    
C304  H65   S    
C302  H60   S    
O1    Zn1   S    
C399  H268  S    
C35   C51   A    
C354  H190  S    
C57   C249  A    
C25   C329  S    
C217  O33   S    
C286  N14   T    
C113  C369  S    
C13   C29   A    
C385  H232  S    
C173  O63   A    
C330  H129  S    
C61   C253  A    
C100  C188  A    
C148  C240  A    
C96   C391  S    
C174  O58   A    
C203  C213  A    
C123  H19   S    
C3    O3    A    
C18   C315  S    
C318  H99   S    
C228  O44   S    
C17   C273  A    
C165  O25   A    
C160  N8    S    
C407  H287  S    
C6    O16   A    
C401  H272  S    
C187  H43   S    
C326  H119  S    
C148  C212  A    
C354  H189  S    
C324  H114  S    
C327  H127  S    
C227  O43   S    
C319  H108  S    
C348  H174  S    
C166  O28   A    
C220  O36   S    
C95   C183  A    
C306  H69   S    
C93   C197  A    
C310  H79   S    
C254  C270  A    
C360  H205  S    
C1    O5    A    
C297  C298  S    
C149  C213  A    
C352  H185  S    
C331  H137  S    
C3    O7    A    
C353  H192  S    
C307  H78   S    
C222  N4    A    
C342  H159  S    
C180  C236  A    
C119  C159  A    
C303  C304  S    
C120  C160  A    
O8    Zn2   S    
C325  H122  S    
C269  H3    S    
C2    C81   S    
C19   C35   A    
C113  C157  A    
O54   Zn8   S    
C307  H77   S    
C111  C155  A    
C184  C240  A    
C55   C71   A    
C106  C362  S    
C23   C325  S    
C230  O46   S    
C104  C192  A    
C272  H4    S    
C105  C153  A    
C313  H92   S    
C125  C139  A    
C309  H82   S    
C285  N13   T    
C349  H183  S    
C258  C274  A    
C318  H100  S    
C400  H265  S    
C48   C76   A    
C205  C229  A    
C284  N12   T    
C282  N10   T    
C176  O64   A    
C7    O11   A    
C41   C73   A    
C195  C219  A    
C344  H166  S    
C408  H285  S    
C118  C374  S    
C1    C84   S    
C193  C217  A    
C222  O38   S    
C333  H142  S    
C321  H113  S    
C338  H150  S    
O13   Zn4   S    
C397  H263  S    
C93   C385  S    
C95   C389  S    
C254  C286  S    
C197  C221  A    
C399  H267  S    
C218  O34   S    
C234  C245  A    
C97   C393  S    
C327  C328  S    
C276  H16   S    
C320  H106  S    
C263  C279  A    
C7    C86   S    
C194  C210  A    
C100  C204  A    
C329  H133  S    
C349  C350  S    
C391  H248  S    
C167  O29   A    
C157  N5    S    
C350  H179  S    
C300  H55   S    
O24   Zn6   S    
C351  H187  S    
C76   C172  S    
C16   C32   A    
C229  N7    A    
O3    Zn1   S    
C386  H230  S    
C105  C361  S    
C107  C363  S    
C338  H151  S    
C337  H152  S    
C302  H61   S    
C35   C349  S    
C14   C270  A    
C109  C125  A    
C399  C400  S    
C198  C212  A    
C171  O51   A    
C36   C52   A    
C401  H273  S    
C43   C59   A    
C15   C309  S    
C135  C143  A    
C12   C303  S    
C170  O50   A    
C359  H208  S    
C313  C314  S    
C351  H188  S    
C377  C378  S    
C129  H25   S    
C358  H201  S    
C340  H155  S    
C10   C299  S    
C165  O27   A    
C145  C209  A    
C335  H148  S    
C190  C246  A    
C31   C341  S    
C40   C359  S    
C134  H30   S    
C326  H121  S    
C177  H33   S    
O5    Zn2   S    
C398  H260  S    
C348  H176  S    
C178  C234  A    
C23   C279  A    
C56   C72   A    
C404  H274  S    
C310  H81   S    
C98   C395  S    
C372  N36   T    
C111  C367  S    
C406  H280  S    
C28   C335  S    
C184  H40   S    
C407  H288  S    
C317  H103  S    
C13   C269  A    
C142  C166  S    
C18   C34   A    
C121  H17   S    
C290  N18   T    
C116  C132  A    
C342  H161  S    
C343  H168  S    
C379  C380  S    
C103  C405  S    
C106  C122  A    
C308  H74   S    
O57   Zn9   S    
C392  H245  S    
C51   C67   A    
C270  H2    S    
C346  H170  S    
C102  C206  A    
C143  C167  S    
C107  C153  A    
C109  C365  S    
C346  H169  S    
C110  C126  A    
C14   C307  S    
C114  C370  S    
C384  H225  S    
C382  H220  S    
C371  N35   T    
C305  C306  S    
C59   C251  A    
C103  C191  A    
C260  C292  S    
C317  C318  S    
C120  C376  S    
C235  C248  A    
O2    Zn1   S    
C26   C42   A    
O18   Zn6   S    
C332  H136  S    
C181  C237  A    
C345  H172  S    
C70   C262  A    
C378  H209  S    
C131  H27   S    
C394  H249  S    
O17   Zn5   S    
C182  H38   S    
C99   C203  A    
C33   C49   A    
C30   C46   A    
O15   Zn4   S    
C97   C201  A    
C299  C300  S    
C161  O19   A    
C69   C87   A    
C66   C86   A    
C396  H256  S    
C320  H104  S    
C22   C278  A    
C15   C31   A    
C277  H11   S    
C135  H31   S    
C324  H115  S    
C381  H222  S    
C123  C137  A    
C141  C165  S    
C56   C80   A    
C350  H181  S    
C309  H83   S    
C336  H146  S    
C53   C79   A    
C139  C163  S    
C259  C291  S    
C19   C317  S    
C5    O9    A    
C386  H229  S    
C104  C407  S    
C9    C297  S    
O21   Zn5   S    
C388  H235  S    
C49   C77   A    
C312  H86   S    
C322  H110  S    
C386  H231  S    
O64   Zn10  S    
C221  N3    A    
C403  H278  S    
C319  C320  S    
C265  H7    S    
C134  C144  A    
O27   Zn11  S    
C156  N4    S    
C221  O37   S    
C261  C277  A    
C267  H5    S    
C112  C156  A    
C116  C372  S    
C94   C198  A    
C389  C390  S    
C226  O42   S    
C89   C377  S    
C381  H223  S    
O32   Zn10  S    
O62   Zn12  S    
C379  H217  S    
C379  H218  S    
C268  H8    S    
C315  C316  S    
C18   C274  A    
C394  H251  S    
O25   Zn9   S    
C393  H252  S    
C90   C178  A    
C305  H73   S    
C345  C346  S    
O7    Zn2   S    
C145  C233  A    
C322  H111  S    
C92   C383  S    
C392  H244  S    
C107  C123  A    
C381  C382  S    
O11   Zn3   S    
C315  H98   S    
C202  C226  A    
O4    Zn1   S    
C404  H276  S    
C356  H195  S    
C238  C241  A    
C365  N29   T    
C12   C28   A    
C325  C326  S    
C124  C138  A    
C59   C83   A    
C153  N1    S    
C151  C247  A    
C316  H94   S    
C48   C64   A    
C129  C141  A    
C175  O59   A    
C303  H67   S    
C308  H76   S    
C188  H44   S    
C96   C200  A    
C402  H269  S    
C273  H15   S    
C115  C371  S    
C347  H178  S    
C380  H215  S    
C149  C241  A    
C323  H117  S    
C114  C158  A    
C339  H158  S    
C275  H13   S    
C8    O14   A    
C297  H52   S    
C252  C268  A    
C39   C55   A    
C344  H164  S    
C223  N3    A    
C253  C269  A    
C40   C56   A    
C21   C321  S    
C395  H257  S    
C5    O13   A    
C360  H204  S    
C259  C275  A    
C389  H242  S    
C380  H216  S    
C17   C313  S    
C7    O15   A    
C47   C73   A    
C152  C246  A    
C124  H20   S    
C30   C339  S    
O58   Zn10  S    
O10   Zn3   S    
C150  C244  A    
C62   C82   A    
C333  C334  S    
C31   C47   A    
C393  C394  S    
O12   Zn3   S    
C94   C387  S    
C32   C48   A    
C17   C33   A    
C132  H28   S    
C147  C211  A    
C50   C78   A    
C133  H29   S    
C16   C272  A    
C401  C402  S    
C340  H154  S    
C147  C237  A    
C264  C296  S    
C71   C263  A    
C278  H10   S    
C330  H130  S    
C42   C74   A    
C72   C264  A    
C336  H144  S    
C378  H210  S    
C250  C266  A    
C187  C243  A    
C397  H262  S    
C61   C83   A    
C102  C403  S    
C408  H284  S    
C339  C340  S    
C352  H186  S    
C185  C241  A    
C66   C258  A    
C289  N17   T    
C311  H87   S    
C240  C243  A    
C119  C135  A    
C334  H139  S    
C120  C136  A    
C326  H120  S    
C162  O20   A    
C294  N22   T    
C329  C330  S    
O49   Zn5   S    
C355  H197  S    
C172  O52   A    
C152  C216  A    
C110  C366  S    
C377  H213  S    
C306  H70   S    
C370  N34   T    
C38   C54   A    
C99   C397  S    
C170  O54   A    
C126  C140  A    
C310  H80   S    
C280  H12   S    
C169  O49   A    
C122  C138  A    
C331  H138  S    
O60   Zn12  S    
C8    O12   A    
C164  O22   A    
C39   C357  S    
C147  C239  A    
C145  C235  A    
C396  H254  S    
O52   Zn8   S    
C136  C144  A    
C188  C244  A    
C354  H191  S    
C140  C164  S    
C73   C169  S    
C178  H34   S    
C366  N30   T    
C220  N2    A    
O61   Zn9   S    
C306  H71   S    
C68   C260  A    
O51   Zn7   S    
C90   C194  A    
O9    Zn3   S    
C314  H89   S    
C24   C40   A    
C77   C173  S    
C198  C222  A    
C257  C273  A    
C12   C268  A    
C263  C295  S    
C103  C207  A    
C192  C248  A    
C151  C245  A    
C316  H96   S    
C69   C261  A    
C344  H165  S    
C130  H26   S    
C301  H62   S    
C75   C171  S    
C161  O17   A    
C321  H112  S    
C389  H243  S    
C34   C347  S    
C274  H14   S    
C41   C57   A    
C376  N40   T    
C174  O62   A    
C27   C333  S    
C387  H237  S    
C320  H105  S    
C318  H101  S    
C375  N39   T    
C219  N1    A    
C4    C83   S    
C181  H37   S    
C329  H132  S    
C44   C60   A    
C383  H228  S    
C45   C61   A    
C390  H239  S    
C102  C190  A    
C350  H180  S    
C104  C208  A    
C128  C140  A    
C343  C344  S    
C109  C155  A    
C152  C248  A    
C110  C156  A    
C20   C36   A    
C27   C43   A    
C150  C242  A    
C304  H66   S    
C21   C37   A    
C302  H59   S    
C205  C215  A    
C189  H45   S    
C11   C267  A    
C301  H63   S    
C94   C182  A    
C225  N5    A    
C299  H57   S    
C52   C80   A    
O31   Zn11  S    
C224  O40   S    
C383  H227  S    
C185  H41   S    
C395  C396  S    
C54   C78   A    
C314  H91   S    
C262  C278  A    
C357  C358  S    
C385  H233  S    
C217  N1    A    
C368  N32   T    
C298  H49   S    
C204  C214  A    
C206  C230  A    
C60   C84   A    
C367  N31   T    
C65   C257  A    
C4    O4    A    
C91   C381  S    
C164  O24   A    
C207  C231  A    
C90   C379  S    
C283  N11   T    
C336  H145  S    
C352  H184  S    
C194  C218  A    
C255  C271  A    
C369  N33   T    
O20   Zn8   S    
C327  H128  S    
C256  C272  A    
C257  C289  S    
C200  C212  A    
C49   C65   A    
C144  C168  S    
C334  H141  S    
C33   C345  S    
C162  O18   A    
C341  C342  S    
C219  O35   S    
C387  H238  S    
C319  H107  S    
C348  H175  S    
C127  H23   S    
C115  C131  A    
C400  H266  S    
O55   Zn7   S    
C233  C246  A    
C128  H24   S    
C121  C137  A    
C158  N6    S    
C291  N19   T    
C358  H199  S    
C91   C195  A    
C38   C355  S    
C44   C76   A    
C196  C220  A    
C360  H206  S    
C266  H6    S    
C308  H75   S    
C353  H193  S    
O63   Zn11  S    
C113  C129  A    
C19   C275  A    
C335  H147  S    
C112  C128  A    
C37   C353  S    
O26   Zn10  S    
C126  H22   S    
O50   Zn6   S    
C253  C285  S    
C32   C343  S    
C208  C232  A    
C239  C244  A    
C364  N28   T    
C204  C228  A    
C106  C154  A    
C199  C211  A    
C52   C68   A    
C21   C277  A    
C183  C239  A    
C10   C26   A    
C335  C336  S    
C313  H93   S    
C208  C216  A    
C71   C85   A    
C116  C158  A    
C236  C247  A    
C380  H214  S    
C127  C139  A    
C14   C30   A    
C15   C271  A    
C207  C215  A    
C146  C210  A    
C355  C356  S    
C408  H286  S    
C51   C79   A    
C332  H135  S    
C132  C142  A    
C357  H202  S    
O16   Zn4   S    
C108  C364  S    
C146  C236  A    
C34   C50   A    
C338  H149  S    
C189  C245  A    
C200  C224  A    
C79   C175  S    
C168  O30   A    
C323  C324  S    
C190  H46   S    
C179  C235  A    
C249  C281  S    
C192  H48   S    
C316  H95   S    
C328  H124  S    
C396  H255  S    
C10   C266  A    
C177  C233  A    
C385  C386  S    
C230  N8    A    
C391  H247  S    
C186  H42   S    
C390  H241  S    
C202  C214  A    
C405  H283  S    
C91   C179  A    
C122  H18   S    
C260  C276  A    
C119  C375  S    
C250  C282  S    
C98   C186  A    
C258  C290  S    
C255  C287  S    
C175  O61   A    
C193  C209  A    
C304  H64   S    
O28   Zn12  S    
O30   Zn12  S    
O59   Zn11  S    
C201  C213  A    
C137  C161  S    
C3    C82   S    
C321  C322  S    
C388  H234  S    
C337  H153  S    
C105  C121  A    
C312  H85   S    
C50   C66   A    
C46   C74   A    
C101  C205  A    
C180  H36   S    
C155  N3    S    
C95   C199  A    
C231  N7    A    
C349  H182  S    
C89   C177  A    
C359  H207  S    
C55   C77   A    
C111  C127  A    
C68   C88   A    
C57   C81   A    
C58   C250  A    
C108  C154  A    
C4    O6    A    
C249  C265  A    
C1    O1    A    
C397  C398  S    
C70   C86   A    
C309  C310  S    
C340  H156  S    
C331  C332  S    
C182  C238  A    
C256  C288  S    
C60   C252  A    
C353  C354  S    
C206  C216  A    
C62   C254  A    
C384  H224  S    
C311  C312  S    
C63   C81   A    
C223  O39   S    
C405  H282  S    
C130  C142  A    
C98   C202  A    
C342  H160  S    
C398  H259  S    
C118  C134  A    
C172  O56   A    
C167  O31   A    
C400  H264  S    
C65   C85   A    
C232  N8    A    
C404  H275  S    
C356  H194  S    
C67   C87   A    
C232  O48   S    
C262  C294  S    
C45   C75   A    
C8    C87   S    
C406  H279  S    
C125  H21   S    
C296  N24   T    
C405  C406  S    
C6    O10   A    
C333  H143  S    
C63   C255  A    
C378  H211  S    
C271  H1    S    
C36   C351  S    
C295  N23   T    
C100  C399  S    
C343  H167  S    
C303  H68   S    
C341  H163  S    
O19   Zn7   S    
C173  O57   A    
C264  C280  A    
C191  H47   S    
C395  H258  S    
C392  H246  S    
C402  H270  S    
C150  C214  A    
C374  N38   T    
C300  H54   S    
C251  C283  S    
C323  H118  S    
C74   C170  S    
C358  H200  S    
C179  H35   S    
C131  C141  A    
C292  N20   T    
C384  H226  S    
C199  C223  A    
C382  H219  S    
C168  O32   A    
C383  C384  S    
C20   C319  S    
C78   C174  S    
C359  C360  S    
C24   C327  S    
C171  O53   A    
C163  O21   A    
C351  C352  S    
C115  C157  A    
C299  H58   S    
C23   C39   A    
O22   Zn8   S    
C22   C323  S    
C64   C256  A    
