data_mof_unit_65725.cif
_audit_creation_date              2012-12-10T18:36:55-0500
_audit_creation_method            fapswitch 2.2
_symmetry_space_group_name_H-M    P1
_symmetry_Int_Tables_number       1
_space_group_crystal_system       triclinic
_cell_length_a                    13.996583
_cell_length_b                    13.897911
_cell_length_c                    15.128292
_cell_angle_alpha                 91.747387
_cell_angle_beta                  89.965298
_cell_angle_gamma                 84.684196
_cell_volume                      2928.76831135

loop_
_atom_site_label
_atom_site_type_symbol
_atom_type_description
_atom_site_fract_x
_atom_site_fract_y
_atom_site_fract_z
_atom_type_partial_charge
C1    C     C_R   0.500076 0.500309 0.329969 0.935183
C2    C     C_R   0.500143 0.498898 0.669616 0.874201
C3    C     C_R   0.568372 0.552521 0.095837 -0.125068
C4    C     C_R   0.567641 0.431340 0.902204 -0.121718
C5    C     C_R   0.504521 0.498409 0.047782 -0.042395
C6    C     C_R   0.506008 0.499234 0.950536 -0.106545
C7    C     C_R   0.099839 0.583512 0.526507 0.268362
C8    C     C_R   0.895332 0.461228 0.427162 0.272955
C9    C     C_R   0.200817 0.577160 0.535640 0.044271
C10   C     C_R   0.795742 0.452678 0.433693 0.068076
C11   C     C_R   0.214697 0.422964 0.464427 0.048548
C12   C     C_R   0.786818 0.547595 0.566214 0.062461
C13   C     C_R   0.114885 0.416954 0.473714 0.266517
C14   C     C_R   0.887953 0.539411 0.572741 0.274528
C15   C     C_R   0.054085 0.500324 0.500061 -0.124189
C16   C     C_R   0.944911 0.500398 0.499965 -0.134563
C17   C     C_R   0.515709 0.317285 0.499970 0.801618
C18   C     C_R   0.484311 0.682721 0.500125 0.844722
C19   C     C_1   0.474528 0.785612 0.499930 -0.105078
C20   C     C_1   0.525451 0.214415 0.500453 -0.110632
C21   C     C_2   0.460007 0.976115 0.499209 -0.065992
C22   C     C_2   0.539757 0.023945 0.501614 -0.063919
C23   C     C_1   0.532935 0.127737 0.500973 -0.005578
C24   C     C_1   0.466902 0.872305 0.499649 -0.004972
C25   C     C_R   0.438354 0.445146 0.091838 0.367687
C26   C     C_R   0.441267 0.565136 0.907590 0.353369
C27   C     C_R   0.436583 0.447052 0.184866 0.324401
C28   C     C_R   0.441779 0.566525 0.814294 0.265538
C29   C     C_R   0.500800 0.500736 0.232826 -0.188282
C30   C     C_R   0.500698 0.496061 0.765985 -0.215292
C31   C     C_R   0.566690 0.553847 0.189136 0.298032
C32   C     C_R   0.563305 0.427196 0.809906 0.305309
Cu1   Cu    Cu3+1 0.596430 0.500000 0.499990 0.990609
Cu2   Cu    Cu3+1 0.403570 0.500000 0.500010 0.992752
N1    N     N_R   0.258690 0.500000 0.500020 -0.278812
N2    N     N_R   0.741310 0.500000 0.499980 -0.281799
O1    O     O_R   0.581430 0.500010 0.371450 -0.556530
O2    O     O_R   0.418570 0.499990 0.628550 -0.551241
O3    O     O_R   0.418560 0.500010 0.371460 -0.553079
O4    O     O_R   0.581440 0.499990 0.628540 -0.595015
O5    O     O_R   0.592950 0.362150 0.500010 -0.590029
O6    O     O_R   0.407050 0.637850 0.499990 -0.592338
O7    O     O_R   0.430080 0.362150 0.500020 -0.592728
O8    O     O_R   0.569920 0.637850 0.499980 -0.572806
C33   C     C_1   0.634925 0.973610 0.504996 0.312562
N3    N     N_1   0.710979 0.933315 0.507711 -0.233796
C34   C     C_1   0.364824 0.026438 0.495920 0.313565
N4    N     N_1   0.288752 0.066708 0.493297 -0.220656
O9    O     O_3   0.374825 0.390511 0.046979 -0.715261
H1    H     H_    0.386274 0.389656 0.982533 0.340183
O10   O     O_3   0.378208 0.625925 0.958638 -0.697183
H2    H     H_    0.319477 0.642870 0.923834 0.344603
O11   O     O_3   0.374672 0.394949 0.231294 -0.704514
H3    H     H_    0.332737 0.361422 0.190381 0.389120
O12   O     O_3   0.388728 0.637468 0.768610 -0.712895
H4    H     H_    0.379190 0.696844 0.806657 0.347164
O13   O     O_3   0.625906 0.607677 0.240203 -0.700563
H5    H     H_    0.670007 0.640365 0.202741 0.343030
O14   O     O_3   0.620464 0.354798 0.765299 -0.689769
H6    H     H_    0.593751 0.343250 0.705802 0.322824
C35   C     C_1   0.634623 0.606926 0.048572 0.301084
N5    N     N_1   0.687401 0.650233 0.010680 -0.227339
C36   C     C_1   0.632957 0.362488 0.947347 0.397962
N6    N     N_1   0.685128 0.307519 0.983536 -0.225975
O15   O     O_3   0.048821 0.671764 0.545492 -0.681725
H7    H     H_    0.987945 0.675376 0.511972 0.355962
O16   O     O_3   0.941243 0.429592 0.349230 -0.677991
H8    H     H_    0.998709 0.465121 0.341950 0.355144
C37   C     C_1   0.240288 0.654643 0.584526 0.479882
N7    N     N_1   0.270052 0.717793 0.624201 -0.225078
C38   C     C_1   0.752709 0.392137 0.368873 0.463998
N8    N     N_1   0.719184 0.342824 0.316676 -0.263664
C39   C     C_1   0.267932 0.345079 0.415511 0.493489
N9    N     N_1   0.308958 0.281589 0.375920 -0.226826
C40   C     C_1   0.732472 0.608181 0.630959 0.463753
N10   N     N_1   0.689741 0.657545 0.683079 -0.253419
O17   O     O_3   0.079807 0.328806 0.454929 -0.679572
H9    H     H_    0.019738 0.325336 0.488773 0.354410
O18   O     O_3   0.927832 0.571210 0.650667 -0.677262
H10   H     H_    0.991848 0.535760 0.658035 0.354215

loop_
_geom_bond_atom_site_label_1
_geom_bond_atom_site_label_2
_ccdc_geom_bond_type
O12   H4    S    
C27   C29   A    
C39   N9    T    
Cu2   O6    S    
C17   C20   S    
O17   H9    S    
C4    C36   S    
C9    C37   S    
C18   C19   S    
C18   O6    A    
C5    C6    S    
C15   C16   S    
Cu1   N2    S    
Cu2   N1    S    
C12   N2    A    
C1    O1    A    
C10   C38   S    
C7    C15   A    
O14   H6    S    
C8    C16   A    
C21   C22   D    
C37   N7    T    
O16   H8    S    
C28   O12   S    
C17   O5    A    
C3    C35   S    
C13   O17   S    
Cu1   O4    S    
O10   H2    S    
C4    C6    A    
C11   C39   S    
C33   N3    T    
Cu1   O1    S    
Cu2   O3    S    
C40   N10   T    
C17   O7    A    
C18   O8    A    
C7    O15   S    
C2    O2    A    
C34   N4    T    
C20   C23   T    
C1    C29   S    
Cu1   Cu2   S    
C14   O18   S    
C3    C31   A    
C4    C32   A    
C5    C25   A    
C12   C14   A    
O9    H1    S    
C13   C15   A    
C14   C16   A    
C12   C40   S    
C7    C9    A    
Cu2   O2    S    
Cu1   O8    S    
Cu2   O7    S    
C36   N6    T    
C3    C5    A    
C27   O11   S    
O11   H3    S    
C25   C27   A    
C26   C28   A    
C2    C30   S    
Cu1   O5    S    
C31   O13   S    
C28   C30   A    
C19   C24   T    
C38   N8    T    
C29   C31   A    
C26   O10   S    
C30   C32   A    
C11   C13   A    
O13   H5    S    
C6    C26   A    
C11   N1    A    
C35   N5    T    
C25   O9    S    
C1    O3    A    
O18   H10   S    
C2    O4    A    
C22   C33   S    
C8    O16   S    
C8    C10   A    
O15   H7    S    
C21   C24   S    
C9    N1    A    
C22   C23   S    
C10   N2    A    
C32   O14   S    
C21   C34   S    
