data_mof_unit_51306.cif
_audit_creation_date              2012-12-10T20:34:51-0500
_audit_creation_method            fapswitch 2.2
_symmetry_space_group_name_H-M    P1
_symmetry_Int_Tables_number       1
_space_group_crystal_system       triclinic
_cell_length_a                    10.636822
_cell_length_b                    10.688719
_cell_length_c                    9.882571
_cell_angle_alpha                 89.639381
_cell_angle_beta                  89.898026
_cell_angle_gamma                 90.559602
_cell_volume                      1123.51129209

loop_
_atom_site_label
_atom_site_type_symbol
_atom_type_description
_atom_site_fract_x
_atom_site_fract_y
_atom_site_fract_z
_atom_type_partial_charge
C1    C     C_R   0.503304 0.260123 0.500295 0.870769
C2    C     C_3   0.878719 0.498426 0.499180 0.164755
C3    C     C_3   0.928942 0.619530 0.566360 -0.393751
C4    C     C_3   0.928931 0.492398 0.351806 -0.368598
C5    C     C_R   0.526498 0.063405 0.622412 0.138499
C6    C     C_R   0.521697 0.128920 0.500421 -0.113573
C7    C     C_R   0.538299 0.066004 0.377689 -0.235916
C8    C     C_R   0.536639 0.936953 0.377244 -0.192338
C9    C     C_R   0.520205 0.871858 0.499607 -0.118526
C10   C     C_R   0.526018 0.935644 0.622007 0.130495
C11   C     C_3   0.441480 0.927250 0.742907 -0.472163
C12   C     C_R   0.257673 0.498825 0.499933 0.824836
C13   C     C_3   0.441921 0.069108 0.743175 -0.484793
C14   C     C_R   0.431796 0.412441 0.071875 0.164739
C15   C     C_R   0.577091 0.578294 0.069684 0.288328
C16   C     C_R   0.576462 0.578171 0.926316 -0.175730
C17   C     C_R   0.432092 0.412248 0.929443 0.207138
C18   C     C_3   0.293447 0.392579 0.923411 -0.504682
C19   C     C_3   0.292840 0.393880 0.076913 -0.504207
C20   C     C_R   0.502718 0.740049 0.499700 0.893181
C21   C     C_R   0.742299 0.499225 0.499745 0.842959
C22   C     C_3   0.070772 0.382967 0.579558 -0.404392
C23   C     C_3   0.926321 0.382756 0.578710 -0.400423
C24   C     C_3   0.073278 0.619635 0.565957 -0.405023
C25   C     C_3   0.071464 0.491135 0.352115 -0.409362
C26   C     C_3   0.121201 0.498138 0.499518 0.186582
H1    H     H_    0.104509 0.385344 0.686004 0.177058
H2    H     H_    0.897279 0.575138 0.292838 0.225108
H3    H     H_    0.109196 0.702979 0.509259 0.158885
H4    H     H_    0.894447 0.703253 0.510599 0.173041
H5    H     H_    0.543238 0.115336 0.281685 0.177486
H6    H     H_    0.539170 0.889554 0.280978 0.211981
H7    H     H_    0.347927 0.885511 0.719212 0.199327
H8    H     H_    0.489593 0.885884 0.832150 0.216188
H9    H     H_    0.348669 0.109951 0.719428 0.195366
H10   H     H_    0.490140 0.109823 0.832629 0.207866
H11   H     H_    0.105677 0.295079 0.533441 0.154813
H12   H     H_    0.636194 0.642862 0.870533 0.175068
H13   H     H_    0.243628 0.473456 0.877797 0.214560
H14   H     H_    0.267953 0.299900 0.880477 0.192260
H15   H     H_    0.243762 0.476333 0.118672 0.213235
H16   H     H_    0.265809 0.302333 0.122925 0.198471
H17   H     H_    0.890631 0.295193 0.531203 0.158578
H18   H     H_    0.891153 0.384078 0.684861 0.185929
H19   H     H_    0.108061 0.626867 0.671851 0.176230
H20   H     H_    0.894455 0.625922 0.672516 0.182005
H21   H     H_    0.107157 0.572234 0.291447 0.181464
H22   H     H_    0.104073 0.403661 0.303183 0.175307
H23   H     H_    0.892797 0.406868 0.300390 0.179530
N1    N     N_R   0.499150 0.499140 0.142800 -0.128058
N2    N     N_R   0.499150 0.499180 0.857150 -0.125500
O1    O     O_R   0.500020 0.316790 0.614690 -0.614006
O2    O     O_R   0.500000 0.316760 0.385350 -0.624070
O3    O     O_R   0.314800 0.500000 0.614670 -0.628324
O4    O     O_R   0.314790 0.499960 0.385330 -0.628013
O5    O     O_R   0.500000 0.683240 0.614650 -0.622359
O6    O     O_R   0.499980 0.683210 0.385310 -0.580778
O7    O     O_R   0.685210 0.500040 0.614670 -0.631701
O8    O     O_R   0.685200 0.500000 0.385330 -0.588836
Zn1   Zn    Zn3+2 0.500010 0.500020 0.653130 0.937402
Zn2   Zn    Zn3+2 0.499990 0.499980 0.346870 0.972175
Br1   Br    Br    0.688256 0.694351 0.155056 -0.596490

loop_
_geom_bond_atom_site_label_1
_geom_bond_atom_site_label_2
_ccdc_geom_bond_type
C3    H4    S    
C2    C4    S    
C18   H13   S    
C16   N2    A    
O6    Zn2   S    
C6    C7    A    
O1    Zn1   S    
C9    C10   A    
C25   H21   S    
C3    H20   S    
C5    C13   S    
C25   H22   S    
C19   H16   S    
C4    H23   S    
C20   O5    A    
C21   O7    A    
C17   N2    A    
C2    C21   S    
C17   C18   S    
C20   O6    A    
C5    C10   A    
C21   O8    A    
O3    Zn1   S    
C11   C13   S    
C14   C17   A    
C3    C24   S    
C14   N1    A    
C24   H19   S    
O4    Zn2   S    
C4    H2    S    
C15   Br1   S    
C24   C26   S    
C4    C25   S    
C2    C3    S    
C22   H1    S    
C11   H8    S    
C5    C6    A    
C1    O1    A    
O8    Zn2   S    
C12   O4    A    
C7    H5    S    
C10   C11   S    
O7    Zn1   S    
C15   C16   A    
C8    H6    S    
C19   H15   S    
C11   H7    S    
C23   H17   S    
C13   H10   S    
C7    C8    A    
C22   C26   S    
C15   N1    A    
C16   H12   S    
C2    C23   S    
N1    Zn2   S    
C18   H14   S    
C22   C23   S    
C18   C19   S    
C1    O2    A    
N2    Zn1   S    
C9    C20   S    
C25   C26   S    
C24   H3    S    
C22   H11   S    
O2    Zn2   S    
C14   C19   S    
C13   H9    S    
C12   O3    A    
C23   H18   S    
O5    Zn1   S    
C12   C26   S    
C8    C9    A    
C1    C6    S    
