data_mof_unit_14366.cif
_audit_creation_date              2012-12-10T16:57:07-0500
_audit_creation_method            fapswitch 2.2
_symmetry_space_group_name_H-M    P1
_symmetry_Int_Tables_number       1
_space_group_crystal_system       triclinic
_cell_length_a                    7.758967
_cell_length_b                    8.619044
_cell_length_c                    16.632359
_cell_angle_alpha                 91.86757
_cell_angle_beta                  81.042286
_cell_angle_gamma                 93.177347
_cell_volume                      1096.70825775

loop_
_atom_site_label
_atom_site_type_symbol
_atom_type_description
_atom_site_fract_x
_atom_site_fract_y
_atom_site_fract_z
_atom_type_partial_charge
C1    C     C_R   0.544644 0.794286 0.498899 0.959970
C2    C     C_R   0.413898 0.658266 0.242822 -0.261098
C3    C     C_R   0.615823 0.523055 0.860498 0.419211
C4    C     C_R   0.434608 0.724641 0.166947 0.404944
C5    C     C_R   0.464556 0.580231 0.907664 0.055908
C6    C     C_R   0.583845 0.694886 0.110227 0.068211
C7    C     C_R   0.313994 0.596804 0.873093 -0.150008
C8    C     C_R   0.718989 0.613265 0.132885 -0.130974
C9    C     C_R   0.316237 0.566417 0.790662 -0.156811
C10   C     C_R   0.698843 0.548942 0.209511 -0.168305
C11   C     C_2   0.455479 0.614962 0.994039 -0.122344
C12   C     C_R   0.455370 0.205717 0.501069 0.968799
C13   C     C_2   0.578275 0.704391 0.023690 -0.094051
C14   C     C_3   0.687941 0.012063 0.569895 -0.868198
C15   C     C_3   0.312600 0.987958 0.429819 -0.851511
C16   C     C_2   0.560080 0.955833 0.512863 -0.018972
C17   C     C_2   0.440017 0.044167 0.487038 -0.031422
C18   C     C_R   0.478082 0.502814 0.654595 0.884413
C19   C     C_R   0.523625 0.508346 0.345915 0.890894
C20   C     C_R   0.469402 0.518170 0.742377 -0.121512
C21   C     C_R   0.543108 0.566025 0.263591 -0.102605
C22   C     C_R   0.617588 0.493770 0.777872 -0.239322
Cl1   Cl    Cl    0.266924 0.836379 0.142804 -0.625327
Cl2   Cl    Cl    0.801836 0.478430 0.902481 -0.675582
H1    H     H_    0.735157 0.452604 0.741477 0.189498
H2    H     H_    0.976846 0.619764 0.560421 0.191391
H3    H     H_    0.734178 0.913853 0.601149 0.230389
H4    H     H_    0.805091 0.072167 0.535089 0.266704
H5    H     H_    0.624187 0.090578 0.618571 0.240953
H6    H     H_    0.265841 0.086194 0.398798 0.238106
H7    H     H_    0.377169 0.910287 0.381002 0.242273
H8    H     H_    0.195708 0.927031 0.464330 0.262900
H9    H     H_    0.296659 0.679553 0.285501 0.192987
H10   H     H_    0.802504 0.482627 0.225620 0.176906
H11   H     H_    0.199753 0.584771 0.764528 0.188073
H12   H     H_    0.689325 0.756124 0.983777 0.187956
H13   H     H_    0.346986 0.560526 0.034620 0.182923
H14   H     H_    0.195918 0.636655 0.909682 0.198508
H15   H     H_    0.833804 0.589001 0.089178 0.198792
H16   H     H_    0.023148 0.380213 0.439595 0.196078
N1    N     N_2   0.953500 0.457650 0.478520 -0.169939
N2    N     N_2   0.046500 0.542350 0.521480 -0.172324
O1    O     O_R   0.388470 0.738640 0.505270 -0.623167
O2    O     O_R   0.611530 0.261360 0.494730 -0.615763
O3    O     O_R   0.679650 0.711510 0.491500 -0.622829
O4    O     O_R   0.320350 0.288490 0.508500 -0.621959
O5    O     O_R   0.337210 0.515200 0.623500 -0.614718
O6    O     O_R   0.662790 0.484800 0.376500 -0.610929
O7    O     O_R   0.628380 0.488060 0.609730 -0.629770
O8    O     O_R   0.371620 0.511940 0.390270 -0.629173
Zn1   Zn    Zn3+2 0.305580 0.518120 0.509190 0.943369
Zn2   Zn    Zn3+2 0.694420 0.481880 0.490810 0.948460

loop_
_geom_bond_atom_site_label_1
_geom_bond_atom_site_label_2
_ccdc_geom_bond_type
C12   C17   S    
C2    C4    A    
C15   H7    S    
C8    H15   S    
C14   H3    S    
C12   O4    A    
C5    C7    A    
N1    N2    D    
N1    Zn2   S    
N2    Zn1   S    
O7    Zn2   S    
C1    O3    A    
C18   O5    A    
O2    Zn2   S    
C2    C21   A    
O8    Zn1   S    
C15   H8    S    
C10   H10   S    
C1    C16   S    
C6    C13   S    
C11   C13   D    
C19   O8    A    
O1    Zn1   S    
C3    Cl2   S    
C15   H6    S    
C2    H9    S    
C8    C10   A    
H16   N1    S    
C19   C21   S    
C7    H14   S    
C20   C22   A    
C5    C11   S    
C18   C20   S    
C10   C21   A    
C14   C16   S    
C14   H5    S    
C9    H11   S    
C7    C9    A    
O6    Zn2   S    
H2    N2    S    
C13   H12   S    
C4    C6    A    
C11   H13   S    
C4    Cl1   S    
C19   O6    A    
C12   O2    A    
C3    C22   A    
C6    C8    A    
C9    C20   A    
O3    Zn2   S    
C14   H4    S    
C15   C17   S    
O4    Zn1   S    
C1    O1    A    
O5    Zn1   S    
C18   O7    A    
C16   C17   D    
C3    C5    A    
C22   H1    S    
