data_mof_unit_43636.cif
_audit_creation_date              2012-12-11T15:31:37-0500
_audit_creation_method            fapswitch 2.2
_symmetry_space_group_name_H-M    P1
_symmetry_Int_Tables_number       1
_space_group_crystal_system       triclinic
_cell_length_a                    6.947355
_cell_length_b                    14.754762
_cell_length_c                    21.319099
_cell_angle_alpha                 74.918289
_cell_angle_beta                  90.38958
_cell_angle_gamma                 90.804643
_cell_volume                      2109.85573705

loop_
_atom_site_label
_atom_site_type_symbol
_atom_type_description
_atom_site_fract_x
_atom_site_fract_y
_atom_site_fract_z
_atom_type_partial_charge
O1    O     O_R   0.648150 0.130050 0.214300 -0.543818
O2    O     O_R   0.351850 0.869950 0.785700 -0.543818
O3    O     O_R   0.320490 0.006660 0.340150 -0.547677
O4    O     O_R   0.679510 0.993340 0.659850 -0.547677
O5    O     O_R   0.146100 0.869940 0.285700 -0.539102
O6    O     O_R   0.853900 0.130060 0.714300 -0.539101
C1    C     C_R   0.489347 0.001570 0.367140 0.664370
C2    C     C_R   0.510653 0.998430 0.632860 0.664370
O7    O     O_R   0.318690 0.137980 0.218120 -0.539402
O8    O     O_R   0.681310 0.862020 0.781880 -0.539402
O9    O     O_R   0.144280 0.002190 0.162800 -0.518373
O10   O     O_R   0.855720 0.997810 0.837200 -0.518373
C3    C     C_R   0.488436 0.175533 0.205875 0.709208
C4    C     C_R   0.511564 0.824467 0.794125 0.709208
O11   O     O_R   0.649960 0.997790 0.337200 -0.544376
O12   O     O_R   0.350040 0.002210 0.662800 -0.544376
O13   O     O_3   0.479300 0.955290 0.231990 -0.361294
O14   O     O_3   0.520700 0.044710 0.768010 -0.361294
V1    V     V_3+5 0.206040 0.008290 0.253340 1.458419
V2    V     V_3+5 0.793960 0.991710 0.746660 1.458419
O15   O     O_R   0.814320 0.993320 0.159850 -0.547123
O16   O     O_R   0.185680 0.006680 0.840150 -0.547123
C5    C     C_R   0.982362 0.999110 0.132906 0.787027
C6    C     C_R   0.017638 0.000890 0.867094 0.787026
O17   O     O_R   0.816120 0.862000 0.281880 -0.541046
O18   O     O_R   0.183880 0.138000 0.718120 -0.541046
C7    C     C_R   0.983816 0.824336 0.293985 0.706988
C8    C     C_R   0.016184 0.175664 0.706015 0.706987
V3    V     V_3+5 0.705540 0.991700 0.246660 1.449632
V4    V     V_3+5 0.294460 0.008300 0.753340 1.449632
O19   O     O_3   0.982150 0.044700 0.268010 -0.382008
O20   O     O_3   0.017850 0.955300 0.731990 -0.382008
C9    C     C_R   0.987525 0.722795 0.321601 -0.044042
C10   C     C_R   0.012475 0.277205 0.678399 -0.044042
C11   C     C_R   0.940395 0.565972 0.309515 -0.154311
C12   C     C_R   0.059605 0.434028 0.690485 -0.154310
C13   C     C_R   0.952166 0.662362 0.282114 -0.145722
C14   C     C_R   0.047834 0.337638 0.717885 -0.145722
C15   C     C_R   0.010706 0.686956 0.388682 -0.217133
C16   C     C_R   0.989294 0.313043 0.611318 -0.217133
C17   C     C_R   0.995208 0.589295 0.418174 0.086959
C18   C     C_R   0.004792 0.410705 0.581826 0.086959
C19   C     C_R   0.959818 0.529118 0.376955 0.134723
C20   C     C_R   0.040181 0.470882 0.623045 0.134723
C21   C     C_R   0.010380 0.549694 0.486909 0.060822
C22   C     C_R   0.989620 0.450306 0.513091 0.060821
C23   C     C_R   0.955184 0.393878 0.469666 -0.190710
C24   C     C_R   0.044816 0.606122 0.530334 -0.190710
C25   C     C_R   0.941229 0.432666 0.403182 -0.204248
C26   C     C_R   0.058771 0.567334 0.596818 -0.204248
H1    H     H_    0.913951 0.386452 0.371917 0.119910
H2    H     H_    0.086049 0.613548 0.628083 0.119910
H3    H     H_    0.964886 0.262244 0.583775 0.090007
H4    H     H_    0.035114 0.737756 0.416225 0.090007
H5    H     H_    0.067922 0.310061 0.769790 0.149699
H6    H     H_    0.932078 0.689939 0.230210 0.149699
H7    H     H_    0.912779 0.520165 0.278018 0.123870
H8    H     H_    0.087221 0.479835 0.721982 0.123870
H9    H     H_    0.937335 0.318831 0.485261 0.116969
H10   H     H_    0.062665 0.681169 0.514739 0.116969
C27   C     C_3   0.865618 0.942892 0.987278 0.297984
C28   C     C_3   0.134382 0.057108 0.012722 0.297984
C29   C     C_3   0.029653 0.913693 0.036670 0.383454
C30   C     C_3   0.970347 0.086307 0.963330 0.383454
C31   C     C_3   0.989640 0.999862 0.062592 -0.169890
C32   C     C_3   0.010360 0.000138 0.937408 -0.169890
C33   C     C_3   0.821681 0.029378 0.012761 -0.374546
C34   C     C_3   0.178319 0.970621 0.987239 -0.374546
H11   H     H_    0.676249 0.051992 0.023121 0.164511
H12   H     H_    0.323751 0.948007 0.976879 0.164511
C35   C     C_3   0.681041 0.994812 0.479513 -0.119460
C36   C     C_3   0.318959 0.005188 0.520487 -0.119460
C37   C     C_3   0.603491 0.073678 0.507954 -0.136811
C38   C     C_3   0.396509 0.926322 0.492046 -0.136811
H13   H     H_    0.688775 0.134519 0.514971 0.096461
H14   H     H_    0.311225 0.865481 0.485029 0.096461
H15   H     H_    0.830449 0.990592 0.462414 0.106622
H16   H     H_    0.169550 0.009408 0.537586 0.106622
C39   C     C_3   0.502420 0.999015 0.562245 -0.002079
C40   C     C_3   0.497580 0.000985 0.437755 -0.002079
C41   C     C_3   0.580031 0.920164 0.534612 -0.143281
C42   C     C_3   0.419969 0.079836 0.465388 -0.143281
H17   H     H_    0.645697 0.854228 0.563612 0.101009
H18   H     H_    0.354303 0.145772 0.436388 0.101009
C43   C     C_R   0.500748 0.276899 0.178170 -0.033327
C44   C     C_R   0.499252 0.723101 0.821830 -0.033327
C45   C     C_R   0.553047 0.432640 0.191156 -0.123397
C46   C     C_R   0.446952 0.567360 0.808844 -0.123396
C47   C     C_R   0.534433 0.336481 0.218167 -0.215710
C48   C     C_R   0.465566 0.663519 0.781833 -0.215711
C49   C     C_R   0.484616 0.313266 0.111023 -0.199854
C50   C     C_R   0.515384 0.686734 0.888976 -0.199854
C51   C     C_R   0.502186 0.411019 0.081855 0.037271
C52   C     C_R   0.497813 0.588981 0.918145 0.037271
C53   C     C_R   0.539096 0.470812 0.123425 0.110984
C54   C     C_R   0.460903 0.529188 0.876575 0.110984
C55   C     C_R   0.486462 0.450687 0.013142 0.016451
C56   C     C_R   0.513537 0.549313 0.986858 0.016451
C57   C     C_R   0.555222 0.605337 0.030028 -0.277987
C58   C     C_R   0.444777 0.394663 0.969972 -0.277987
C59   C     C_R   0.563958 0.567622 0.097372 0.292438
C60   C     C_R   0.436041 0.432378 0.902628 0.292438
H19   H     H_    0.537914 0.737537 0.916579 0.124407
H20   H     H_    0.462087 0.262463 0.083421 0.124406
H21   H     H_    0.452194 0.691587 0.729729 0.104444
H22   H     H_    0.547805 0.308413 0.270271 0.104444
H23   H     H_    0.580467 0.476879 0.223676 0.163278
H24   H     H_    0.419531 0.523121 0.776324 0.163278
H25   H     H_    0.581597 0.679543 0.013136 0.130836
H26   H     H_    0.418401 0.320457 0.986864 0.130836
O21   O     O_3   0.596709 0.624640 0.138784 -0.663188
H27   H     H_    0.606182 0.691117 0.113261 0.293134
O22   O     O_3   0.403289 0.375360 0.861217 -0.663188
H28   H     H_    0.393816 0.308883 0.886739 0.293134
O23   O     O_3   0.051682 0.823327 0.078896 -0.558747
C61   C     C_3   0.112300 0.760614 0.043327 0.092072
H29   H     H_    0.262912 0.777250 0.026326 0.119524
H30   H     H_    0.016776 0.762758 0.000813 0.146092
C62   C     C_3   0.105829 0.661238 0.087187 -0.691892
H31   H     H_    0.957861 0.642997 0.105542 0.240964
H32   H     H_    0.149518 0.610717 0.059557 0.186912
H33   H     H_    0.204157 0.655467 0.129260 0.244501
O24   O     O_3   0.948318 0.176673 0.921104 -0.558747
C63   C     C_3   0.887701 0.239386 0.956673 0.092070
H34   H     H_    0.983227 0.237243 0.999187 0.146093
H35   H     H_    0.737091 0.222749 0.973675 0.119525
C64   C     C_3   0.894170 0.338761 0.912813 -0.691893
H36   H     H_    0.795839 0.344532 0.870740 0.244502
H37   H     H_    0.850481 0.389283 0.940442 0.186912
H38   H     H_    0.042136 0.357004 0.894456 0.240964
O25   O     O_3   0.726245 0.881854 0.973025 -0.659657
H39   H     H_    0.656193 0.855849 0.014275 0.278261
O26   O     O_3   0.273755 0.118145 0.026975 -0.659658
H40   H     H_    0.343807 0.144151 0.985725 0.278261

loop_
_geom_bond_atom_site_label_1
_geom_bond_atom_site_label_2
_ccdc_geom_bond_type
C32   C34   S    
C29   C31   S    
C58   H26   S    
C54   C60   A    
O13   V3    S    
O21   H27   S    
C49   H20   S    
O4    C2    A    
V1    O19   S    
C46   C54   A    
C55   C56   A    
C43   C49   A    
O24   C63   S    
C23   C25   A    
C21   C22   A    
C7    C9    S    
O9    V1    S    
C9    C15   A    
C38   H14   S    
C10   C16   A    
C28   O26   S    
C11   C13   A    
C36   C39   S    
O3    C1    A    
C46   H24   S    
C56   C57   A    
C62   H33   S    
C15   H4    S    
C52   C56   A    
O12   V4    S    
O23   C61   S    
C57   H25   S    
C61   H29   S    
C18   C22   A    
C27   C29   S    
O7    C3    A    
C36   H16   S    
C50   H19   S    
O5    C7    A    
C13   H6    S    
C27   C32   S    
O7    V1    S    
O6    C8    A    
C14   H5    S    
O8    V2    S    
C31   C33   S    
C45   C53   A    
C47   H22   S    
C2    C39   S    
C26   H2    S    
O3    V1    S    
O14   V4    S    
C11   C19   A    
C28   C30   S    
C6    C32   S    
C24   H10   S    
C29   O23   S    
C24   C26   A    
C8    C10   S    
C2    O12   A    
C38   C40   S    
C17   C19   A    
C18   C20   A    
O1    V3    S    
C35   C40   S    
C41   H17   S    
O11   V3    S    
C62   H32   S    
O17   V3    S    
C30   C33   S    
C4    C44   S    
C36   C38   S    
C44   C48   A    
C39   C41   S    
C43   C47   A    
C19   C25   A    
C1    O11   A    
C25   H1    S    
O15   V3    S    
C9    C13   A    
C33   H11   S    
C30   C32   S    
C64   H37   S    
C49   C51   A    
C27   C33   S    
O10   V2    S    
C58   C60   A    
C37   C39   S    
C52   C54   A    
C63   C64   S    
C40   C42   S    
C57   C59   A    
C46   C48   A    
O18   V4    S    
C42   H18   S    
O15   C5    A    
O8    C4    A    
O26   H40   S    
O16   C6    A    
C12   C20   A    
O1    C3    A    
O2    V4    S    
C37   H13   S    
C38   C41   S    
C3    C43   S    
C64   H36   S    
C51   C55   A    
C37   C42   S    
C35   H15   S    
C55   C58   A    
C63   H35   S    
O22   H28   S    
V2    O20   S    
C21   C24   A    
C20   C26   A    
O10   C6    A    
C22   C23   A    
O16   V4    S    
C28   C31   S    
C10   C14   A    
O18   C8    A    
C48   H21   S    
C16   C18   A    
C62   H31   S    
O5    V1    S    
C59   O21   S    
C30   O24   S    
O6    V2    S    
C29   C34   S    
C12   H8    S    
C61   C62   S    
C28   C34   S    
C11   H7    S    
C5    C31   S    
C45   C47   A    
C64   H38   S    
V3    O19   S    
C60   O22   S    
C44   C50   A    
C12   C14   A    
V4    O20   S    
C50   C52   A    
O9    C5    A    
O13   V1    S    
C61   H30   S    
O14   V2    S    
O2    C4    A    
C27   O25   S    
C23   H9    S    
O4    V2    S    
C53   C59   A    
C45   H23   S    
C15   C17   A    
C51   C53   A    
C16   H3    S    
C35   C37   S    
C34   H12   S    
C17   C21   A    
C1    C40   S    
C36   C42   S    
O25   H39   S    
C63   H34   S    
C35   C41   S    
O17   C7    A    
