data_mof_unit_59770.cif
_audit_creation_date              2012-12-10T17:32:20-0500
_audit_creation_method            fapswitch 2.2
_symmetry_space_group_name_H-M    P1
_symmetry_Int_Tables_number       1
_space_group_crystal_system       triclinic
_cell_length_a                    12.320245
_cell_length_b                    13.12034
_cell_length_c                    15.064508
_cell_angle_alpha                 77.429481
_cell_angle_beta                  101.291957
_cell_angle_gamma                 116.545018
_cell_volume                      2112.60921791

loop_
_atom_site_label
_atom_site_type_symbol
_atom_type_description
_atom_site_fract_x
_atom_site_fract_y
_atom_site_fract_z
_atom_type_partial_charge
C1    C     C_R   0.854774 0.285409 0.512995 0.766212
C2    C     C_R   0.905388 0.513248 0.796922 -0.252971
C3    C     C_R   0.998274 0.498255 0.768205 -0.073483
C4    C     C_R   0.999259 0.499343 0.671243 0.804225
C5    C     C_R   0.090626 0.482127 0.832421 -0.248641
C6    C     C_R   0.284461 0.017066 0.364792 -0.190361
C7    C     C_R   0.227855 0.835135 0.465566 -0.050654
C8    C     C_R   0.808631 0.082771 0.595569 0.147115
C9    C     C_R   0.724246 0.967566 0.612510 -0.124919
C10   C     C_R   0.605097 0.931121 0.571639 -0.249227
C11   C     C_R   0.565082 0.007471 0.509040 0.083339
C12   C     C_R   0.092198 0.482308 0.110974 0.108313
C13   C     C_R   0.652881 0.119328 0.479770 0.061099
C14   C     C_R   0.440591 0.974896 0.473029 0.086440
C15   C     C_R   0.407208 0.049193 0.401408 0.161658
C16   C     C_R   0.144949 0.713681 0.485865 0.802103
C17   C     C_R   0.497077 0.153002 0.365525 -0.241903
C18   C     C_R   0.618167 0.186844 0.403054 -0.180877
C19   C     C_R   0.347867 0.870445 0.506623 -0.247187
C20   C     C_R   0.195129 0.909750 0.396129 -0.194137
C21   C     C_R   0.772970 0.160310 0.527326 -0.169907
C22   C     C_R   0.350410 0.333021 0.649756 -0.297510
C23   C     C_R   0.812822 0.528424 0.011117 -0.216715
C24   C     C_R   0.758562 0.644717 0.374986 0.072288
C25   C     C_R   0.661328 0.675649 0.347440 -0.257890
C26   C     C_R   0.558126 0.620863 0.394226 -0.193902
C27   C     C_R   0.550930 0.533958 0.469786 -0.006147
C28   C     C_R   0.000225 0.499882 0.328808 0.811398
C29   C     C_R   0.653192 0.505274 0.495598 0.291446
C30   C     C_R   0.447009 0.475042 0.520960 -0.037615
C31   C     C_R   0.448704 0.390332 0.597139 0.177524
C32   C     C_R   0.548650 0.363447 0.620855 -0.289403
C33   C     C_R   0.648145 0.419196 0.571130 -0.190054
C34   C     C_R   0.812407 0.528176 0.918557 -0.214702
C35   C     C_R   0.340784 0.496172 0.500528 0.020499
C36   C     C_R   0.250019 0.359083 0.626893 0.055554
C37   C     C_R   0.092211 0.483106 0.203307 -0.247121
C38   C     C_R   0.999913 0.499025 0.231983 -0.074344
C39   C     C_R   0.906851 0.514011 0.167889 -0.253643
C40   C     C_R   0.905521 0.513397 0.075380 0.109017
C41   C     C_R   0.998575 0.497601 0.046715 0.062926
C42   C     C_3   0.934754 0.123362 0.650781 -0.372199
C43   C     C_3   0.956367 0.037048 0.730382 -0.892330
C44   C     C_R   0.904700 0.512915 0.889367 0.109024
C45   C     C_R   0.998143 0.497333 0.953669 0.063015
C46   C     C_R   0.091318 0.481725 0.925002 0.107952
C47   C     C_R   0.183802 0.466336 0.989284 -0.215739
C48   C     C_R   0.184261 0.466661 0.081823 -0.215481
Cu1   Cu    Cu3+1 0.098270 0.475420 0.521130 0.926285
Cu2   Cu    Cu3+1 0.901730 0.524580 0.478870 0.923282
H1    H     H_    0.164303 0.471640 0.252648 0.154235
H2    H     H_    0.351563 0.268909 0.708607 0.137099
H3    H     H_    0.835152 0.526061 0.189809 0.154378
H4    H     H_    0.331241 0.558433 0.443517 0.122345
H5    H     H_    0.838220 0.687750 0.338234 0.122631
H6    H     H_    0.485800 0.648493 0.370082 0.135884
H7    H     H_    0.665995 0.742407 0.289610 0.144449
H8    H     H_    0.719447 0.391840 0.594995 0.205897
H9    H     H_    0.740832 0.540516 0.032442 0.140756
H10   H     H_    0.740132 0.540088 0.869819 0.144009
H11   H     H_    0.833613 0.525215 0.747511 0.160026
H12   H     H_    0.473762 0.208449 0.308128 0.142394
H13   H     H_    0.162507 0.470352 0.810513 0.155341
H14   H     H_    0.255803 0.454264 0.967958 0.140691
H15   H     H_    0.256584 0.454818 0.130543 0.141988
H16   H     H_    0.102203 0.883017 0.363287 0.144371
H17   H     H_    0.887591 0.006968 0.779227 0.257558
H18   H     H_    0.953620 0.962664 0.704666 0.256507
H19   H     H_    0.048345 0.079735 0.767673 0.243819
H20   H     H_    0.004483 0.148216 0.603763 0.225543
H21   H     H_    0.950676 0.199708 0.680933 0.205149
H22   H     H_    0.258372 0.073216 0.309777 0.133488
H23   H     H_    0.366237 0.812920 0.564021 0.145182
H24   H     H_    0.547073 0.841055 0.589275 0.141278
H25   H     H_    0.747767 0.903933 0.659915 0.155721
H26   H     H_    0.684166 0.265565 0.369477 0.171146
H27   H     H_    0.175057 0.316637 0.668284 0.120221
H28   H     H_    0.550211 0.298354 0.678852 0.154284
N1    N     N_R   0.246280 0.438190 0.553160 -0.178618
N2    N     N_R   0.754320 0.561190 0.447410 -0.205364
O1    O     O_R   0.972510 0.318130 0.526570 -0.586739
O2    O     O_R   0.806530 0.359650 0.490890 -0.594874
O3    O     O_R   0.082980 0.479210 0.647590 -0.591398
O4    O     O_R   0.917000 0.520730 0.611900 -0.601471
O5    O     O_R   0.193470 0.640350 0.509110 -0.583218
O6    O     O_R   0.027490 0.681870 0.473430 -0.583218
O7    O     O_R   0.083000 0.479270 0.388100 -0.585444
O8    O     O_R   0.917020 0.520790 0.352410 -0.597694

loop_
_geom_bond_atom_site_label_1
_geom_bond_atom_site_label_2
_ccdc_geom_bond_type
C34   H10   S    
C1    C21   S    
C33   H8    S    
C27   C29   A    
C11   C13   A    
Cu1   O7    S    
C12   C48   A    
Cu2   O4    S    
C39   H3    S    
C45   C46   A    
C24   H5    S    
C23   H9    S    
C4    O3    A    
C26   C27   A    
C37   C38   A    
C13   C18   A    
C20   H16   S    
C8    C42   S    
C36   H27   S    
C30   C31   A    
C37   H1    S    
C11   C14   A    
C1    O1    A    
C23   C40   A    
C29   C33   A    
C42   H20   S    
C5    H13   S    
Cu1   O1    S    
C12   C37   A    
C6    C15   A    
C24   N2    A    
C31   C32   A    
C2    C44   A    
C8    C9    A    
C28   O8    A    
C48   H15   S    
C9    C10   A    
C2    H11   S    
Cu2   O8    S    
C43   H19   S    
C35   H4    S    
C16   O6    A    
C25   H7    S    
C8    C21   A    
C22   C31   A    
Cu1   O5    S    
C19   H23   S    
C34   C44   A    
C24   C25   A    
C47   H14   S    
C43   H18   S    
C1    O2    A    
Cu1   N1    S    
C26   H6    S    
C6    H22   S    
C12   C41   A    
C17   H12   S    
C47   C48   A    
C4    O4    A    
C28   C38   S    
C23   C34   A    
C28   O7    A    
C17   C18   A    
C13   C21   A    
C30   C35   A    
C7    C16   S    
C7    C20   A    
C7    C19   A    
C16   O5    A    
C42   C43   S    
C3    C4    S    
C39   C40   A    
C6    C20   A    
C44   C45   A    
Cu2   O2    S    
C22   H2    S    
C15   C17   A    
C46   C47   A    
C40   C41   A    
C18   H26   S    
C14   C19   A    
C3    C5    A    
C36   N1    A    
Cu2   N2    S    
C22   C36   A    
C5    C46   A    
C32   C33   A    
Cu1   O3    S    
C2    C3    A    
C25   C26   A    
C10   H24   S    
C38   C39   A    
C29   N2    A    
C35   N1    A    
C42   H21   S    
C10   C11   A    
Cu2   O6    S    
C32   H28   S    
C43   H17   S    
Cu1   Cu2   S    
C41   C45   A    
C14   C15   A    
C9    H25   S    
C27   C30   A    
