data_mof_unit_53239.cif
_audit_creation_date              2012-12-11T16:18:12-0500
_audit_creation_method            fapswitch 2.2
_symmetry_space_group_name_H-M    P1
_symmetry_Int_Tables_number       1
_space_group_crystal_system       triclinic
_cell_length_a                    14.035613
_cell_length_b                    14.067578
_cell_length_c                    30.09389
_cell_angle_alpha                 97.217423
_cell_angle_beta                  97.348195
_cell_angle_gamma                 61.270476
_cell_volume                      5153.61527477

loop_
_atom_site_label
_atom_site_type_symbol
_atom_type_description
_atom_site_fract_x
_atom_site_fract_y
_atom_site_fract_z
_atom_type_partial_charge
C1    C     C_R   0.385291 0.709939 0.441349 0.591229
C2    C     C_R   0.804574 0.263244 0.380346 0.091972
C3    C     C_R   0.825739 0.240855 0.335008 -0.050169
C4    C     C_R   0.398839 0.381379 0.426326 0.557582
C5    C     C_R   0.801935 0.325391 0.308530 0.012446
C6    C     C_R   0.763093 0.431658 0.327415 -0.104293
C7    C     C_R   0.741878 0.454958 0.372333 -0.123700
C8    C     C_R   0.967604 0.265550 0.171029 0.136622
C9    C     C_R   0.992127 0.265004 0.127807 -0.076528
C10   C     C_R   0.808728 0.301923 0.098637 0.075003
C11   C     C_R   0.783579 0.303402 0.142332 -0.094190
C12   C     C_R   0.414967 0.285195 0.220109 -0.118418
C13   C     C_R   0.862975 0.284996 0.178324 0.019052
C14   C     C_1   0.836171 0.293326 0.223208 0.055207
C15   C     C_1   0.819291 0.304700 0.261973 0.045065
C16   C     C_R   0.709806 0.405604 0.442418 0.547425
C17   C     C_R   0.913414 0.283629 0.091655 0.024553
C18   C     C_R   0.361764 0.769628 0.400044 -0.068857
C19   C     C_R   0.440952 0.796677 0.388806 0.198108
C20   C     C_R   0.450375 0.801329 0.343266 0.057150
C21   C     C_R   0.363626 0.812547 0.311960 -0.067685
C22   C     C_R   0.266433 0.826292 0.326327 0.186328
C23   C     C_R   0.427293 0.286605 0.266848 0.116632
C24   C     C_R   0.270253 0.786914 0.367852 0.137099
C25   C     C_R   0.326075 0.771200 0.144247 0.240810
C26   C     C_R   0.303046 0.803516 0.099183 0.189470
C27   C     C_R   0.338912 0.955478 0.125397 -0.148637
C28   C     C_R   0.389482 0.712069 0.568149 0.563457
C29   C     C_R   0.368888 0.920649 0.168160 0.069830
C30   C     C_R   0.358685 0.831937 0.178388 0.000122
C31   C     C_1   0.370176 0.815061 0.225130 0.155236
C32   C     C_1   0.371734 0.811415 0.264855 0.133319
C33   C     C_R   0.302353 0.900960 0.091224 -0.057566
C34   C     C_R   0.337218 0.353189 0.291846 -0.003023
C35   C     C_R   0.367570 0.361453 0.592439 -0.012412
C36   C     C_R   0.450844 0.302635 0.624468 -0.101883
C37   C     C_R   0.427180 0.297317 0.666874 -0.112988
C38   C     C_R   0.319903 0.349872 0.678468 0.025123
C39   C     C_R   0.232542 0.401232 0.645881 0.266700
C40   C     C_R   0.401703 0.382439 0.551985 0.560947
C41   C     C_R   0.257169 0.407695 0.602280 0.075439
C42   C     C_R   0.211206 0.411558 0.834275 -0.073847
C43   C     C_R   0.206135 0.392502 0.878045 -0.101779
C44   C     C_R   0.388658 0.239862 0.876681 -0.103265
C45   C     C_R   0.313729 0.349616 0.197924 -0.001102
C46   C     C_R   0.393614 0.259412 0.832977 -0.101607
C47   C     C_R   0.303503 0.342772 0.811324 0.044623
C48   C     C_1   0.302976 0.350957 0.764482 0.052702
C49   C     C_1   0.306267 0.352745 0.724988 0.091338
C50   C     C_R   0.293074 0.303516 0.898949 0.031280
C51   C     C_1   0.759270 0.378898 0.612924 0.080043
C52   C     C_R   0.713618 0.407628 0.568379 0.570337
C53   C     C_R   0.716521 0.397515 0.728646 0.224442
C54   C     C_R   0.740987 0.377441 0.774776 0.099475
C55   C     C_R   0.931891 0.257721 0.761044 0.083300
C56   C     C_1   0.302796 0.331552 0.149946 0.032356
C57   C     C_R   0.907863 0.276272 0.715663 -0.114643
C58   C     C_R   0.801832 0.345571 0.699218 -0.024369
C59   C     C_R   0.848623 0.307750 0.790633 0.008564
C60   C     C_1   0.876047 0.293348 0.837829 0.027986
C61   C     C_1   0.783176 0.361638 0.652005 0.038386
C62   C     C_1   0.905207 0.282415 0.877016 0.046555
C63   C     C_1   0.374254 0.760199 0.613273 0.056643
C64   C     C_1   0.367540 0.366285 0.380080 0.078268
C65   C     C_R   0.292355 0.767686 0.720752 0.312268
C66   C     C_R   0.284618 0.786133 0.767378 -0.030780
C67   C     C_1   0.349890 0.358835 0.340007 0.030587
C68   C     C_R   0.383686 0.888833 0.772397 -0.080891
C69   C     C_R   0.391738 0.871310 0.725968 -0.130293
C70   C     C_R   0.346187 0.811230 0.699897 0.054098
C71   C     C_R   0.330370 0.846069 0.793168 0.022773
C72   C     C_1   0.313492 0.872489 0.840242 -0.009634
C73   C     C_1   0.361200 0.788535 0.652493 0.040051
C74   C     C_1   0.293456 0.902357 0.878836 0.031093
C75   C     C_R   0.949673 0.273434 0.047462 0.559303
C76   C     C_R   0.236588 0.420512 0.269987 -0.059089
C77   C     C_R   0.275629 0.270509 0.065316 0.557908
C78   C     C_1   0.292614 0.307692 0.110503 0.063276
C79   C     C_R   0.261564 0.953732 0.048700 0.584175
C80   C     C_R   0.952222 0.269076 0.922163 0.557514
C81   C     C_R   0.276047 0.266237 0.939412 0.557366
C82   C     C_R   0.261431 0.950881 0.922854 0.574446
C83   C     C_R   0.223370 0.418963 0.222968 0.287638
C84   C     C_R   0.758542 0.372152 0.399005 0.019585
Cr1   Cr    Cr6+3 0.581000 0.584320 0.508140 1.138377
Cr2   Cr    Cr6+3 0.339110 0.576430 0.496080 1.158007
Cr3   Cr    Cr6+3 0.579910 0.339270 0.495810 1.103459
Cr4   Cr    Cr6+3 0.082090 0.079210 0.982490 1.114187
Cr5   Cr    Cr6+3 0.082460 0.324610 0.994920 1.100502
Cr6   Cr    Cr6+3 0.323630 0.087860 0.996130 1.058412
H1    H     H_    0.168474 0.474129 0.289697 0.203319
H2    H     H_    0.494023 0.256030 0.691592 0.146101
H3    H     H_    0.484121 0.231237 0.200966 0.157690
H4    H     H_    0.972832 0.237344 0.693147 0.160889
H5    H     H_    0.241656 0.755210 0.783639 0.160356
H6    H     H_    0.417829 0.936880 0.792025 0.133846
H7    H     H_    0.433975 0.904200 0.710409 0.124235
H8    H     H_    0.073682 0.248540 0.122232 0.143807
H9    H     H_    0.746373 0.497157 0.307086 0.160180
H10   H     H_    0.706208 0.539224 0.385368 0.190254
H11   H     H_    0.393223 0.721568 0.009011 0.338387
H12   H     H_    0.702408 0.319517 0.148229 0.158539
H13   H     H_    0.417744 0.483119 0.153386 0.360665
H14   H     H_    0.172110 0.039000 0.290188 0.354699
H15   H     H_    0.080241 0.890756 0.418488 0.360649
H16   H     H_    0.515957 0.883150 0.501825 0.367025
H17   H     H_    0.927218 0.583386 0.215493 0.386286
H18   H     H_    0.090308 0.360671 0.708209 0.343232
H19   H     H_    0.602623 0.634680 0.726592 0.342799
H20   H     H_    0.280644 0.603071 0.625000 0.362403
H21   H     H_    0.858810 0.158032 0.320264 0.203119
H22   H     H_    0.340901 0.028787 0.119233 0.163746
H23   H     H_    0.131377 0.443112 0.894301 0.151001
H24   H     H_    0.141319 0.476463 0.817651 0.167381
H25   H     H_    0.535876 0.266215 0.617819 0.164046
H26   H     H_    0.465592 0.206146 0.815302 0.123230
H27   H     H_    0.456877 0.170933 0.891869 0.146806
I1    I     I_    0.686992 0.329261 0.045058 -0.245085
I2    I     I_    0.421084 0.012848 0.216923 -0.269721
I3    I     I_    0.594815 0.789440 0.320895 -0.139337
I4    I     I_    0.130011 0.484915 0.550991 -0.110035
I5    I     I_    0.618437 0.453452 0.822266 -0.216470
I6    I     I_    0.097065 0.156012 0.783128 -0.423356
I7    I     I_    0.583598 0.185778 0.297730 -0.236008
I8    I     I_    0.091930 0.237107 0.223791 -0.247498
I9    I     I_    0.845990 0.128093 0.417584 -0.176597
O1    O     O_R   0.688580 0.499770 0.460490 -0.483638
O2    O     O_R   0.346150 0.177650 0.050510 -0.510297
O3    O     O_R   0.314200 0.996600 0.036060 -0.511762
O4    O     O_R   0.480400 0.672610 0.462660 -0.447120
O5    O     O_R   0.168690 0.969990 0.933130 -0.471630
O6    O     O_R   0.991920 0.175870 0.937430 -0.489994
O7    O     O_R   0.974010 0.342590 0.941330 -0.500236
O8    O     O_R   0.182630 0.317940 0.955040 -0.496480
O9    O     O_R   0.347320 0.174720 0.953250 -0.506433
O10   O     O_R   0.315290 0.993890 0.945900 -0.497321
O11   O     O_3   0.162730 0.163890 0.991180 -0.285993
O12   O     O_R   0.348600 0.476260 0.536540 -0.484170
O13   O     O_R   0.315310 0.685650 0.451800 -0.422190
O14   O     O_R   0.346220 0.474990 0.446280 -0.460237
O15   O     O_R   0.492270 0.312460 0.441630 -0.480556
O16   O     O_R   0.669740 0.350480 0.455640 -0.478395
O17   O     O_R   0.691150 0.501150 0.557860 -0.472847
O18   O     O_R   0.482790 0.673890 0.552920 -0.482929
O19   O     O_R   0.317880 0.687030 0.549170 -0.489791
O20   O     O_2   0.348732 0.603371 0.058844 -0.192664
O21   O     O_2   0.162763 0.751070 0.047218 -0.179726
O22   O     O_3   0.313862 0.746166 0.004497 -0.499137
O23   O     O_R   0.494840 0.313840 0.539010 -0.505029
O24   O     O_2   0.296330 0.664091 0.206761 -0.254439
O25   O     O_2   0.220492 0.650397 0.130397 -0.152185
O26   O     O_3   0.430528 0.543371 0.147103 -0.497215
O27   O     O_2   0.116101 0.829622 0.260332 -0.118518
O28   O     O_2   0.049751 0.965365 0.324179 -0.255083
O29   O     O_3   0.152655 0.994346 0.266461 -0.491870
O30   O     O_2   0.085005 0.766893 0.337162 -0.140620
O31   O     O_2   0.226655 0.626526 0.380844 -0.258182
O32   O     O_3   0.106781 0.812915 0.422397 -0.445823
O33   O     O_2   0.632295 0.736681 0.437689 -0.252295
O34   O     O_R   0.672120 0.351750 0.545910 -0.496876
O35   O     O_2   0.534277 0.924630 0.416314 -0.207340
O36   O     O_3   0.461483 0.874916 0.479572 -0.517472
O37   O     O_2   0.093000 0.607383 0.186890 -0.151202
O38   O     O_2   0.068992 0.450900 0.154519 -0.288598
O39   O     O_3   0.996899 0.538257 0.232605 -0.496547
O40   O     O_2   0.039556 0.578833 0.655180 -0.143388
O41   O     O_2   0.036212 0.410773 0.625556 -0.283689
O42   O     O_3   0.081241 0.435443 0.710842 -0.506586
O43   O     O_2   0.564451 0.504136 0.660304 -0.292310
O44   O     O_2   0.503065 0.456539 0.722138 -0.202762
O45   O     O_3   0.500010 0.500010 0.500010 -0.298265
O46   O     O_3   0.551736 0.613703 0.737099 -0.491925
O47   O     O_2   0.198725 0.638883 0.720083 -0.220862
O48   O     O_2   0.132948 0.768549 0.662049 -0.265129
O49   O     O_3   0.321203 0.595801 0.654894 -0.460078
O50   O     O_R   0.167510 0.972920 0.030390 -0.436497
O51   O     O_R   0.990840 0.178580 0.027590 -0.492912
O52   O     O_R   0.972840 0.345510 0.038590 -0.476893
O53   O     O_R   0.181550 0.320660 0.045200 -0.465643
S1    S     S_3+6 0.281188 0.722643 0.052379 0.104599
S2    S     S_3+6 0.314297 0.657226 0.158063 0.097720
S3    S     S_3+6 0.141752 0.903869 0.294165 0.093950
S4    S     S_3+6 0.170030 0.746618 0.375674 0.110909
S5    S     S_3+6 0.521616 0.833145 0.430829 0.069561
S6    S     S_3+6 0.093664 0.505406 0.197291 0.073645
S7    S     S_3+6 0.094261 0.458144 0.658931 0.073870
S8    S     S_3+6 0.581044 0.492073 0.709977 0.044831
S9    S     S_3+6 0.232160 0.692229 0.689404 0.078511

loop_
_geom_bond_atom_site_label_1
_geom_bond_atom_site_label_2
_ccdc_geom_bond_type
C52   O34   A    
H17   O39   S    
H11   O22   S    
C8    C13   A    
C80   O6    A    
C55   C59   A    
C27   C29   A    
C2    C84   A    
C35   C36   A    
C51   C61   T    
Cr1   O17   S    
O29   S3    S    
Cr4   O51   S    
C39   C41   A    
C38   C49   S    
C77   C78   S    
C27   C33   A    
C29   I2    S    
C12   C23   A    
C1    C18   S    
C68   H6    S    
C18   C24   A    
C62   C80   S    
C36   C37   A    
C30   C31   S    
O46   S8    S    
C65   C70   A    
C79   O3    A    
C16   C84   S    
C56   C78   T    
Cr3   O34   S    
C76   C83   A    
C60   C62   T    
C18   C19   A    
C41   I4    S    
C75   O52   A    
O48   S9    D    
O49   S9    S    
C39   S7    S    
O21   S1    D    
C42   H24   S    
C66   C71   A    
C45   C56   S    
C44   C46   A    
C8    C9    A    
C40   O12   A    
O44   S8    D    
O25   S2    D    
C28   O18   A    
O33   S5    D    
C29   C30   A    
O32   S4    S    
C1    O13   A    
H19   O46   S    
Cr2   O14   S    
C58   C61   S    
Cr5   O53   S    
C7    C84   A    
H18   O42   S    
C65   S9    S    
C59   C60   S    
Cr3   O16   S    
C13   C14   S    
C24   S4    S    
C82   O10   A    
Cr6   O3    S    
C45   C83   A    
C74   C82   S    
C35   C41   A    
Cr1   O18   S    
O30   S4    D    
C25   S2    S    
C81   O9    A    
O24   S2    D    
C54   C59   A    
C38   C39   A    
C21   C32   S    
C55   I6    S    
C52   O17   A    
Cr5   O7    S    
C7    H10   S    
C51   C52   S    
C64   C67   T    
C81   O8    A    
O42   S7    S    
C77   O53   A    
O43   S8    D    
C72   C74   T    
O38   S6    D    
C3    H21   S    
C4    O15   A    
C68   C69   A    
C63   C73   T    
C25   C26   A    
H20   O49   S    
O41   S7    D    
O39   S6    S    
C80   O7    A    
Cr2   O45   S    
C34   C67   S    
C16   O16   A    
C9    H8    S    
O36   S5    S    
C37   C38   A    
C10   I1    S    
Cr1   O4    S    
C4    O14   A    
Cr6   O10   S    
C26   C33   A    
C47   C48   S    
C23   C34   A    
Cr3   O45   S    
O27   S3    D    
C70   C73   S    
C28   O19   A    
O20   S1    D    
Cr1   O45   S    
Cr5   O52   S    
Cr3   O15   S    
C23   I7    S    
C77   O2    A    
Cr2   O13   S    
H13   O26   S    
O47   S9    D    
C9    C17   A    
C48   C49   T    
C27   H22   S    
C1    O4    A    
Cr5   O11   S    
C57   H4    S    
C55   C57   A    
C22   C24   A    
C12   H3    S    
Cr1   O1    S    
C42   C43   A    
Cr4   O6    S    
Cr2   O19   S    
C2    I9    S    
C20   I3    S    
Cr6   O11   S    
C44   C50   A    
C25   C30   A    
C46   C47   A    
Cr5   O8    S    
C37   H2    S    
O40   S7    D    
C79   O50   A    
C82   O5    A    
C31   C32   T    
C33   C79   S    
C12   C45   A    
C3    C5    A    
C19   S5    S    
C53   C58   A    
C43   C50   A    
C53   C54   A    
C6    C7    A    
C26   S1    S    
O31   S4    D    
C4    C64   S    
Cr4   O50   S    
C46   H26   S    
O37   S6    D    
C6    H9    S    
C19   C20   A    
C35   C40   S    
C53   S8    S    
C71   C72   S    
C22   S3    S    
H15   O32   S    
C43   H23   S    
Cr6   O9    S    
C11   C13   A    
C57   C58   A    
C5    C6    A    
C44   H27   S    
O35   S5    D    
C68   C71   A    
O28   S3    D    
C40   O23   A    
C2    C3    A    
C11   H12   S    
C42   C47   A    
H16   O36   S    
H14   O29   S    
C54   I5    S    
C69   C70   A    
C75   O51   A    
C16   O1    A    
Cr4   O11   S    
C5    C15   S    
C10   C11   A    
Cr2   O12   S    
C76   H1    S    
C28   C63   S    
C8    I8    S    
C20   C21   A    
O22   S1    S    
C65   C66   A    
Cr3   O23   S    
C17   C75   S    
Cr6   O2    S    
C14   C15   T    
C83   S6    S    
C10   C17   A    
Cr4   O5    S    
O26   S2    S    
C21   C22   A    
C36   H25   S    
C50   C81   S    
C34   C76   A    
C66   H5    S    
C69   H7    S    
