data_mof_unit_30879.cif
_audit_creation_date              2012-12-11T15:44:59-0500
_audit_creation_method            fapswitch 2.2
_symmetry_space_group_name_H-M    P1
_symmetry_Int_Tables_number       1
_space_group_crystal_system       triclinic
_cell_length_a                    6.940187
_cell_length_b                    16.763468
_cell_length_c                    17.100834
_cell_angle_alpha                 100.334184
_cell_angle_beta                  90.27113
_cell_angle_gamma                 89.877051
_cell_volume                      1957.24089563

loop_
_atom_site_label
_atom_site_type_symbol
_atom_type_description
_atom_site_fract_x
_atom_site_fract_y
_atom_site_fract_z
_atom_type_partial_charge
O1    O     O_R   0.494370 0.415690 0.413450 -0.546987
O2    O     O_R   0.819420 0.429360 0.578420 -0.549087
O3    O     O_R   0.994280 0.584310 0.586550 -0.556321
C1    C     C_R   0.652188 0.413623 0.605098 0.755350
O4    O     O_R   0.823790 0.406230 0.413570 -0.501869
O5    O     O_R   0.998670 0.561000 0.420530 -0.528694
C2    C     C_R   0.655212 0.382577 0.385269 0.740496
O6    O     O_R   0.489970 0.439000 0.579470 -0.514868
O7    O     O_3   0.662300 0.550810 0.502470 -0.379519
V1    V     V_3+5 0.935380 0.490570 0.499540 1.534873
O8    O     O_R   0.328650 0.570640 0.421580 -0.552394
C3    C     C_R   0.158995 0.586558 0.395613 0.775974
O9    O     O_R   0.324290 0.593770 0.586430 -0.515348
C4    C     C_R   0.155811 0.616276 0.615744 0.699369
V2    V     V_3+5 0.435930 0.509430 0.500460 1.519390
O10   O     O_3   0.159140 0.449190 0.497530 -0.353214
C5    C     C_R   0.309340 0.706684 0.734849 0.364897
C6    C     C_R   0.295052 0.772015 0.799374 -0.238970
H1    H     H_    0.420583 0.789471 0.836276 0.113457
C7    C     C_R   0.120668 0.813969 0.817173 -0.073654
C8    C     C_R   0.958852 0.789591 0.769395 -0.162601
H2    H     H_    0.822261 0.820641 0.781466 0.129358
C9    C     C_R   0.972181 0.726026 0.704235 -0.225339
H3    H     H_    0.845275 0.710187 0.667741 0.168170
C10   C     C_R   0.146746 0.684058 0.685568 -0.071412
C11   C     C_R   0.146452 0.632863 0.329855 -0.146947
C12   C     C_R   0.117762 0.855447 0.160856 -0.193650
C13   C     C_R   0.179710 0.847140 0.300040 0.403524
C14   C     C_R   0.156094 0.892626 0.239205 -0.319202
C15   C     C_R   0.099604 0.769309 0.142136 0.378858
C16   C     C_R   0.115646 0.722475 0.204020 -0.104430
C17   C     C_R   0.159181 0.762144 0.282814 0.005741
C18   C     C_R   0.183219 0.716131 0.343684 -0.252552
C19   C     C_R   0.085718 0.594056 0.254368 0.220117
C20   C     C_R   0.088836 0.636524 0.189325 0.366373
H4    H     H_    0.223173 0.745307 0.403310 0.180081
H5    H     H_    0.171110 0.958032 0.252830 0.124495
C21   C     C_R   0.652995 0.361179 0.666778 -0.085683
C22   C     C_R   0.608804 0.131865 0.827504 -0.156442
C23   C     C_R   0.439230 0.169286 0.713580 -0.167184
C24   C     C_R   0.466502 0.115547 0.766618 0.362173
C25   C     C_R   0.727544 0.200063 0.830183 -0.239404
C26   C     C_R   0.702354 0.253007 0.775286 0.114026
C27   C     C_R   0.557539 0.237747 0.715604 -0.020218
C28   C     C_R   0.534837 0.291841 0.660135 0.300662
C29   C     C_R   0.793718 0.375206 0.727004 -0.225612
C30   C     C_R   0.818084 0.322068 0.780453 -0.152160
H6    H     H_    0.887960 0.427347 0.731941 0.136708
H7    H     H_    0.322772 0.156114 0.671052 0.152836
H8    H     H_    0.928863 0.334915 0.825825 0.124537
H9    H     H_    0.834470 0.213762 0.877094 0.131828
C31   C     C_R   0.808187 0.263354 0.293557 0.375542
C32   C     C_R   0.794175 0.200025 0.227248 -0.242000
H10   H     H_    0.918823 0.162046 0.209932 0.115696
C33   C     C_R   0.621243 0.184559 0.184221 -0.077606
C34   C     C_R   0.460581 0.233693 0.208355 -0.173764
H11   H     H_    0.325040 0.223465 0.176513 0.132982
C35   C     C_R   0.473225 0.297441 0.273343 -0.222980
H12   H     H_    0.347033 0.334840 0.289219 0.174046
C36   C     C_R   0.646086 0.313451 0.316757 -0.074162
O11   O     O_R   0.774880 0.061150 0.920630 -0.528625
O12   O     O_R   0.440980 0.093710 0.086500 -0.544459
O13   O     O_R   0.266190 0.938890 0.079390 -0.533068
C37   C     C_R   0.609853 0.116732 0.115146 0.711330
O14   O     O_R   0.445420 0.070740 0.921670 -0.532299
O15   O     O_R   0.270660 0.915760 0.913380 -0.541181
C38   C     C_R   0.612199 0.084809 0.893653 0.698165
O16   O     O_R   0.770400 0.084270 0.086640 -0.539521
O17   O     O_3   0.602590 0.949210 0.997500 -0.376836
V3    V     V_3+5 0.329470 0.009420 0.000470 1.426457
O18   O     O_R   0.940650 0.906250 0.913470 -0.555341
C39   C     C_R   0.109616 0.883276 0.884865 0.702120
O19   O     O_R   0.936210 0.929220 0.078300 -0.545888
C40   C     C_R   0.106319 0.908929 0.100525 0.734304
V4    V     V_3+5 0.828930 0.990510 0.999490 1.401717
O20   O     O_3   0.105680 0.050790 0.002500 -0.363920
O21   O     O_3   0.479168 0.663531 0.720355 -0.651853
H13   H     H_    0.574730 0.684845 0.762149 0.271610
O22   O     O_3   0.102735 0.728090 0.064061 -0.577800
C41   C     C_3   0.940608 0.741296 0.017534 0.105619
H14   H     H_    0.938455 0.690697 0.965724 0.145651
H15   H     H_    0.961155 0.796176 0.991881 0.112968
C42   C     C_3   0.744336 0.742464 0.059024 -0.333251
H16   H     H_    0.728741 0.687217 0.085780 0.220483
H17   H     H_    0.732833 0.796543 0.106942 0.189420
C43   C     C_3   0.581835 0.745982 0.999276 -0.810439
H18   H     H_    0.606819 0.795538 0.965484 0.239163
H19   H     H_    0.443491 0.757636 0.031117 0.258817
H20   H     H_    0.572477 0.687896 0.956472 0.219736
O23   O     O_3   0.405762 0.277494 0.597511 -0.642603
H21   H     H_    0.400024 0.218431 0.577458 0.284320
O24   O     O_3   0.349465 0.047905 0.756795 -0.637364
H22   H     H_    0.413447 0.005083 0.780613 0.283021
O25   O     O_3   0.977628 0.276009 0.336734 -0.637511
H23   H     H_    0.074000 0.234745 0.313759 0.278621
O26   O     O_3   0.024546 0.514459 0.245803 -0.656353
H24   H     H_    0.947199 0.500743 0.196410 0.300406
O27   O     O_3   0.221348 0.884812 0.376980 -0.642372
H25   H     H_    0.230871 0.944165 0.378970 0.292351
O28   O     O_3   0.047165 0.595700 0.112972 -0.559920
C44   C     C_3   0.192566 0.537740 0.085398 0.077936
H26   H     H_    0.125259 0.489059 0.041117 0.133136
H27   H     H_    0.254950 0.507452 0.132595 0.128055
C45   C     C_3   0.354816 0.576077 0.044677 -0.279135
H28   H     H_    0.295759 0.599473 0.992647 0.224450
H29   H     H_    0.416865 0.627269 0.087467 0.208636
C46   C     C_3   0.514452 0.514973 0.016585 -0.852539
H30   H     H_    0.579247 0.492241 0.067943 0.238541
H31   H     H_    0.629239 0.544626 0.987028 0.245576
H32   H     H_    0.456239 0.463057 0.973405 0.232384

loop_
_geom_bond_atom_site_label_1
_geom_bond_atom_site_label_2
_ccdc_geom_bond_type
C33   C34   A    
C44   H26   S    
C12   C14   A    
C46   H31   S    
O19   C40   A    
C1    O6    A    
C45   H29   S    
C22   C24   A    
O21   H13   S    
O11   V4    S    
O16   V4    S    
C37   O16   A    
C13   C14   A    
C19   O26   S    
C6    H1    S    
O5    C3    A    
C15   C16   A    
C43   H19   S    
C35   C36   A    
C23   H7    S    
C18   H4    S    
C34   H11   S    
O12   V3    S    
C19   C20   A    
O24   H22   S    
C21   C28   A    
O12   C37   A    
C31   C36   A    
O8    V2    S    
C11   C19   A    
O15   C39   A    
C16   C17   A    
O14   C38   A    
C46   H30   S    
C31   O25   S    
O1    V2    S    
C30   H8    S    
C12   C40   S    
O7    V1    S    
C25   H9    S    
C44   H27   S    
O9    C4    A    
C33   C37   S    
C12   C15   A    
O19   V4    S    
O25   H23   S    
C41   C42   S    
O4    V1    S    
C45   H28   S    
C22   C25   A    
C32   C33   A    
C29   H6    S    
C13   C17   A    
C41   H15   S    
O4    C2    A    
C43   H18   S    
C35   H12   S    
C32   H10   S    
C3    C11   S    
O2    C1    A    
V4    O20   S    
O11   C38   A    
C11   C18   A    
C42   H16   S    
O13   V3    S    
C9    H3    S    
O26   H24   S    
C24   O24   S    
C5    O21   S    
C5    C6    A    
C28   O23   S    
O3    C4    A    
C15   O22   S    
C23   C24   A    
C42   H17   S    
C1    C21   S    
O6    V2    S    
C8    C9    A    
C26   C27   A    
V3    O20   S    
C46   H32   S    
C16   C20   A    
C25   C26   A    
C20   O28   S    
O2    V1    S    
C2    C36   S    
C31   C32   A    
C13   O27   S    
C29   C30   A    
O1    C2    A    
C22   C38   S    
C27   C28   A    
C41   H14   S    
C43   H20   S    
O5    V1    S    
O8    C3    A    
O13   C40   A    
C44   C45   S    
C5    C10   A    
C17   C18   A    
O9    V2    S    
O7    V2    S    
O18   C39   A    
O3    V1    S    
V1    O10   S    
O18   V4    S    
O23   H21   S    
O15   V3    S    
O28   C44   S    
C34   C35   A    
O17   V4    S    
C6    C7    A    
C9    C10   A    
C4    C10   S    
O17   V3    S    
C21   C29   A    
O22   C41   S    
C23   C27   A    
C42   C43   S    
C7    C8    A    
O27   H25   S    
C14   H5    S    
C7    C39   S    
O14   V3    S    
C8    H2    S    
C26   C30   A    
C45   C46   S    
V2    O10   S    
