data_mof_unit_66390.cif
_audit_creation_date              2012-12-10T17:30:01-0500
_audit_creation_method            fapswitch 2.2
_symmetry_space_group_name_H-M    P1
_symmetry_Int_Tables_number       1
_space_group_crystal_system       triclinic
_cell_length_a                    18.568424
_cell_length_b                    18.646113
_cell_length_c                    18.601566
_cell_angle_alpha                 109.324628
_cell_angle_beta                  109.468015
_cell_angle_gamma                 109.25027
_cell_volume                      4980.3640656

loop_
_atom_site_label
_atom_site_type_symbol
_atom_type_description
_atom_site_fract_x
_atom_site_fract_y
_atom_site_fract_z
_atom_type_partial_charge
C1    C     C_R   0.620855 0.619837 0.500515 0.755268
C2    C     C_3   0.173063 0.427945 0.215144 -0.169841
C3    C     C_3   0.229088 0.499803 0.312863 -0.160863
C4    C     C_3   0.311192 0.499748 0.311446 0.026722
C5    C     C_3   0.725260 0.649339 0.441880 -0.354278
C6    C     C_3   0.797476 0.722299 0.443957 -0.400698
C7    C     C_3   0.651361 0.739803 0.465290 -0.393934
C8    C     C_3   0.768258 0.753764 0.595337 -0.385090
C9    C     C_3   0.689973 0.688832 0.500553 0.166663
C10   C     C_3   0.810992 0.812475 0.501751 0.167626
C11   C     C_3   0.721947 0.811490 0.464471 -0.362251
C12   C     C_R   0.379740 0.499915 0.379896 0.780040
C13   C     C_3   0.838731 0.827405 0.596321 -0.374049
C14   C     C_3   0.699877 0.417998 0.651094 -0.356817
C15   C     C_3   0.770963 0.418687 0.724253 -0.398711
C16   C     C_3   0.776593 0.582770 0.732248 -0.400149
C17   C     C_3   0.664266 0.496706 0.761454 -0.380565
C18   C     C_3   0.688228 0.498653 0.689500 0.168971
C19   C     C_3   0.811660 0.501458 0.813012 0.168936
C20   C     C_3   0.849756 0.583506 0.803395 -0.357397
C21   C     C_3   0.738014 0.500675 0.835292 -0.380997
C22   C     C_3   0.233791 0.243067 0.403906 -0.380993
C23   C     C_R   0.378897 0.380162 0.499227 0.751681
C24   C     C_3   0.163763 0.169365 0.403282 -0.378908
C25   C     C_3   0.349957 0.263960 0.539609 -0.397336
C26   C     C_3   0.270801 0.350260 0.553578 -0.355239
C27   C     C_3   0.309789 0.311195 0.499224 0.168348
C28   C     C_3   0.189035 0.187738 0.498477 0.168175
C29   C     C_3   0.279584 0.192704 0.541064 -0.358669
C30   C     C_3   0.198439 0.277287 0.551347 -0.400486
C31   C     C_R   0.999569 0.619868 0.119819 0.751239
C32   C     C_R   0.121274 0.499885 0.121184 0.780353
C33   C     C_R   0.002809 0.380141 0.882395 0.755216
C34   C     C_R   0.619031 0.498579 0.620236 0.754649
C35   C     C_R   0.880936 0.501538 0.882200 0.753909
C36   C     C_R   0.001860 0.881305 0.380313 0.755053
C37   C     C_R   0.879890 0.881679 0.501778 0.755085
C38   C     C_R   0.998469 0.119008 0.619702 0.754801
C39   C     C_R   0.120133 0.118564 0.498472 0.754491
C40   C     C_3   0.919743 0.650171 0.202031 -0.356142
C41   C     C_3   0.920224 0.723139 0.272665 -0.399012
C42   C     C_3   0.085113 0.733536 0.276679 -0.396054
C43   C     C_3   0.994457 0.758991 0.163082 -0.382030
C44   C     C_3   0.999325 0.688824 0.188706 0.168476
C45   C     C_3   0.327659 0.571467 0.285987 -0.147272
C46   C     C_3   0.001854 0.812150 0.311383 0.167578
C47   C     C_3   0.085752 0.804578 0.349376 -0.359514
C48   C     C_3   0.998224 0.832659 0.236257 -0.378482
C49   C     C_3   0.000880 0.237391 0.834657 -0.378010
C50   C     C_3   0.996451 0.163983 0.760670 -0.382674
C51   C     C_3   0.919373 0.271348 0.724001 -0.397363
C52   C     C_3   0.084956 0.348827 0.803460 -0.358359
C53   C     C_3   0.002411 0.311211 0.812870 0.167177
C54   C     C_3   0.998789 0.188139 0.688920 0.168110
C55   C     C_3   0.918206 0.200440 0.650619 -0.357527
C56   C     C_3   0.244470 0.571570 0.286275 -0.147131
C57   C     C_3   0.083715 0.275907 0.732027 -0.397610
C58   C     C_3   0.189482 0.499662 0.189582 0.026638
C59   C     C_3   0.271546 0.499520 0.188134 -0.160671
C60   C     C_3   0.256141 0.427844 0.214649 -0.169400
Cu1   Cu    Cu3+1 0.500160 0.437540 0.437660 0.906017
Cu2   Cu    Cu3+1 0.499840 0.562460 0.562340 0.907521
Cu3   Cu    Cu3+1 0.938720 0.437560 0.001120 0.906199
Cu4   Cu    Cu3+1 0.063680 0.562470 0.001100 0.907495
Cu5   Cu    Cu3+1 0.062620 0.000040 0.562660 0.902220
Cu6   Cu    Cu3+1 0.937380 0.999960 0.437350 0.902513
H1    H     H_    0.238260 0.630395 0.314230 0.113564
H2    H     H_    0.778480 0.710453 0.375950 0.149841
H3    H     H_    0.594155 0.694221 0.397655 0.143551
H4    H     H_    0.698950 0.798872 0.395842 0.175219
H5    H     H_    0.745529 0.783247 0.639438 0.173462
H6    H     H_    0.797532 0.718486 0.621666 0.141342
H7    H     H_    0.902397 0.828643 0.625451 0.175941
H8    H     H_    0.848104 0.891777 0.638887 0.142663
H9    H     H_    0.627236 0.770445 0.507111 0.169710
H10   H     H_    0.730391 0.876322 0.504253 0.148920
H11   H     H_    0.719342 0.418659 0.600721 0.171326
H12   H     H_    0.392352 0.630218 0.316343 0.113239
H13   H     H_    0.636573 0.356519 0.618397 0.155066
H14   H     H_    0.741247 0.358880 0.728646 0.165024
H15   H     H_    0.822915 0.416994 0.707627 0.144381
H16   H     H_    0.794354 0.586437 0.681504 0.143018
H17   H     H_    0.901293 0.584830 0.785104 0.172232
H18   H     H_    0.654679 0.553117 0.790172 0.174700
H19   H     H_    0.601344 0.435949 0.732130 0.141447
H20   H     H_    0.709429 0.443186 0.843386 0.175138
H21   H     H_    0.765854 0.560445 0.898498 0.141215
H22   H     H_    0.770771 0.641589 0.762258 0.165716
H23   H     H_    0.287681 0.499345 0.135750 0.124380
H24   H     H_    0.881055 0.644076 0.867070 0.153322
H25   H     H_    0.259150 0.213926 0.362688 0.174409
H26   H     H_    0.203239 0.275609 0.374009 0.144877
H27   H     H_    0.098990 0.164902 0.370287 0.175798
H28   H     H_    0.157699 0.105564 0.364368 0.141919
H29   H     H_    0.376529 0.233492 0.500760 0.167075
H30   H     H_    0.274096 0.128390 0.505095 0.150587
H31   H     H_    0.323484 0.398010 0.622967 0.169562
H32   H     H_    0.242708 0.385914 0.526692 0.157351
H33   H     H_    0.135000 0.276176 0.521052 0.162140
H34   H     H_    0.215228 0.291345 0.619597 0.147270
H35   H     H_    0.405710 0.311865 0.607634 0.141409
H36   H     H_    0.300854 0.208085 0.610309 0.173609
H37   H     H_    0.922518 0.601048 0.222648 0.171608
H38   H     H_    0.857108 0.616205 0.139150 0.155093
H39   H     H_    0.859079 0.726074 0.243082 0.163470
H40   H     H_    0.920545 0.707650 0.325633 0.146519
H41   H     H_    0.090874 0.684142 0.295674 0.145362
H42   H     H_    0.089167 0.787555 0.401965 0.173236
H43   H     H_    0.050041 0.787852 0.152292 0.174656
H44   H     H_    0.108643 0.368962 0.185032 0.135880
H45   H     H_    0.932479 0.728307 0.100475 0.140501
H46   H     H_    0.939285 0.839185 0.207620 0.175267
H47   H     H_    0.057126 0.896005 0.262590 0.141222
H48   H     H_    0.143209 0.763756 0.269690 0.167273
H49   H     H_    0.145576 0.868436 0.379228 0.152153
H50   H     H_    0.942978 0.209086 0.842551 0.175581
H51   H     H_    0.060815 0.264535 0.897850 0.145549
H52   H     H_    0.052822 0.153936 0.789336 0.175324
H53   H     H_    0.935122 0.101554 0.731161 0.140682
H54   H     H_    0.859144 0.242048 0.728219 0.164487
H55   H     H_    0.212914 0.499877 0.365203 0.124444
H56   H     H_    0.856146 0.137669 0.617757 0.154305
H57   H     H_    0.086802 0.400498 0.785533 0.172236
H58   H     H_    0.145741 0.379428 0.867121 0.154066
H59   H     H_    0.142557 0.269618 0.761903 0.165906
H60   H     H_    0.087624 0.293871 0.681472 0.144388
H61   H     H_    0.918227 0.323387 0.707631 0.144496
H62   H     H_    0.919173 0.220004 0.600383 0.170978
H63   H     H_    0.670734 0.603541 0.372912 0.169026
H64   H     H_    0.752548 0.611410 0.465266 0.158810
H65   H     H_    0.859953 0.720727 0.470208 0.159655
O1    O     O_R   0.591300 0.538410 0.447360 -0.594008
O2    O     O_R   0.053760 0.643910 0.092060 -0.593673
O3    O     O_R   0.039800 0.447260 0.092470 -0.590129
O4    O     O_R   0.145330 0.552750 0.092450 -0.587315
O5    O     O_R   0.948640 0.356110 0.910160 -0.593196
O6    O     O_R   0.054170 0.461590 0.910140 -0.594433
O7    O     O_R   0.857070 0.447280 0.909760 -0.593481
O8    O     O_R   0.962600 0.552760 0.909740 -0.594926
O9    O     O_R   0.053170 0.908900 0.462020 -0.593884
O10   O     O_R   0.947410 0.908840 0.356190 -0.592646
O11   O     O_R   0.961720 0.908880 0.552900 -0.592735
O12   O     O_R   0.591030 0.643900 0.552660 -0.592508
O13   O     O_R   0.855960 0.908820 0.447080 -0.593593
O14   O     O_R   0.052590 0.091170 0.643810 -0.592924
O15   O     O_R   0.946830 0.091100 0.537990 -0.594162
O16   O     O_R   0.144040 0.091190 0.552920 -0.594258
O17   O     O_R   0.038280 0.091120 0.447100 -0.592705
O18   O     O_R   0.408770 0.447260 0.356000 -0.590197
O19   O     O_R   0.408500 0.552750 0.461290 -0.587480
O20   O     O_R   0.408970 0.356100 0.447340 -0.594007
O21   O     O_R   0.408700 0.461590 0.552640 -0.595807
O22   O     O_R   0.591500 0.447250 0.538710 -0.595049
O23   O     O_R   0.591230 0.552740 0.644000 -0.593368
O24   O     O_R   0.948230 0.538430 0.092080 -0.594728
H66   H     H_    0.261820 0.368773 0.186196 0.135968

loop_
_geom_bond_atom_site_label_1
_geom_bond_atom_site_label_2
_ccdc_geom_bond_type
C23   O21   A    
C21   H21   S    
C8    C13   S    
C37   O13   A    
C14   C18   S    
C19   C20   S    
C32   C58   S    
Cu2   O12   S    
C31   O2    A    
C1    O1    A    
C11   H4    S    
C15   H15   S    
Cu6   O10   S    
C15   C19   S    
C10   C11   S    
C26   C27   S    
C50   C54   S    
C41   C46   S    
Cu2   O21   S    
C10   C37   S    
C17   H19   S    
C28   C29   S    
C19   C21   S    
C11   H10   S    
C35   O7    A    
C57   H59   S    
C5    C6    S    
C52   H57   S    
C2    C60   S    
Cu6   O13   S    
C30   H34   S    
C59   H23   S    
C14   H11   S    
C49   C50   S    
C38   O15   A    
Cu1   O1    S    
C35   O8    A    
C21   H20   S    
Cu5   O9    S    
C42   H48   S    
C49   H51   S    
C45   C56   S    
C33   O6    A    
C8    C9    S    
C39   O17   A    
C22   H25   S    
C36   C46   S    
C45   H12   S    
C23   C27   S    
Cu5   O16   S    
C42   H41   S    
Cu6   O17   S    
Cu4   O6    S    
C5    H63   S    
C55   H56   S    
C59   C60   S    
C25   C29   S    
C42   C44   S    
C51   H54   S    
C7    C11   S    
C4    C45   S    
C34   O23   A    
C33   C53   S    
C46   C48   S    
C8    H6    S    
Cu6   O15   S    
C37   O11   A    
C50   H53   S    
Cu3   O3    S    
C12   O19   A    
C1    C9    S    
C31   C44   S    
C57   H60   S    
C7    H9    S    
C28   C39   S    
C58   C59   S    
C20   H24   S    
C30   H33   S    
C17   C21   S    
Cu2   O23   S    
C51   C53   S    
C47   H49   S    
C36   O10   A    
C60   H66   S    
C38   O14   A    
C5    C9    S    
C1    O12   A    
C24   H28   S    
C40   H38   S    
Cu1   O20   S    
C3    C56   S    
C15   H14   S    
C38   C54   S    
C16   C20   S    
C4    C60   S    
C16   H16   S    
C17   C18   S    
C46   C47   S    
C14   H13   S    
C55   H62   S    
C18   C34   S    
C41   H39   S    
C26   H32   S    
C16   C18   S    
C40   C41   S    
C48   H46   S    
C13   H7    S    
C25   H29   S    
C22   C27   S    
C43   C44   S    
Cu3   O7    S    
C22   C24   S    
C41   H40   S    
C4    C12   S    
Cu5   O14   S    
C3    C4    S    
C52   C53   S    
Cu4   O2    S    
C43   C48   S    
C34   O22   A    
C7    C9    S    
C23   O20   A    
C54   C55   S    
C5    H64   S    
C8    H5    S    
Cu2   O19   S    
C50   H52   S    
C12   O18   A    
C24   C28   S    
C6    H65   S    
C10   C13   S    
Cu1   O22   S    
C6    C10   S    
C29   H30   S    
C31   O24   A    
C2    C58   S    
C26   C30   S    
C25   C27   S    
C56   H1    S    
C43   H43   S    
C17   H18   S    
C51   H61   S    
Cu3   O5    S    
C28   C30   S    
C7    H3    S    
Cu3   O24   S    
C19   C35   S    
C24   H27   S    
C40   H37   S    
C32   O3    A    
Cu5   O11   S    
C52   H58   S    
C33   O5    A    
C25   H35   S    
C49   C53   S    
C6    H2    S    
C56   C58   S    
C29   H36   S    
C2    C3    S    
C51   C55   S    
C42   C47   S    
Cu5   Cu6   S    
Cu1   Cu2   S    
Cu4   O4    S    
C32   O4    A    
C52   C57   S    
C26   H31   S    
Cu3   Cu4   S    
C43   H45   S    
C40   C44   S    
C49   H50   S    
C13   H8    S    
C45   C59   S    
C47   H42   S    
C20   H17   S    
C39   O16   A    
C16   H22   S    
C22   H26   S    
C14   C15   S    
C36   O9    A    
Cu1   O18   S    
C54   C57   S    
C3    H55   S    
C48   H47   S    
Cu4   O8    S    
C2    H44   S    
