data_mof_unit_64022.cif
_audit_creation_date              2012-12-10T20:59:07-0500
_audit_creation_method            fapswitch 2.2
_symmetry_space_group_name_H-M    P1
_symmetry_Int_Tables_number       1
_space_group_crystal_system       triclinic
_cell_length_a                    13.64713
_cell_length_b                    15.113781
_cell_length_c                    15.849085
_cell_angle_alpha                 90.002747
_cell_angle_beta                  89.96183
_cell_angle_gamma                 83.094801
_cell_volume                      3245.3152086

loop_
_atom_site_label
_atom_site_type_symbol
_atom_type_description
_atom_site_fract_x
_atom_site_fract_y
_atom_site_fract_z
_atom_type_partial_charge
C1    C     C_R   0.499980 0.500022 0.661083 0.905701
C2    C     C_R   0.551660 0.947300 0.562733 -0.036391
C3    C     C_1   0.499967 0.193126 0.500023 0.100805
C4    C     C_1   0.500033 0.806874 0.499977 0.100805
C5    C     C_R   0.686188 0.484239 0.499974 0.895623
C6    C     C_R   0.313812 0.515761 0.500026 0.895623
C7    C     C_1   0.210207 0.527819 0.500041 -0.167027
C8    C     C_1   0.789793 0.472181 0.499959 -0.167027
C9    C     C_2   0.018867 0.538409 0.500059 -0.155158
C10   C     C_2   0.981133 0.461591 0.499941 -0.155158
C11   C     C_1   0.877434 0.464265 0.499948 0.019303
C12   C     C_R   0.500019 0.499978 0.338917 0.905700
C13   C     C_1   0.122566 0.535735 0.500052 0.019303
C14   C     C_R   0.497470 0.419758 0.043737 -0.174191
C15   C     C_R   0.502530 0.580242 0.956263 -0.174191
C16   C     C_R   0.499978 0.499993 0.086864 0.164310
C17   C     C_R   0.500022 0.500007 0.913136 0.164310
C18   C     C_R   0.502506 0.580234 0.043759 -0.174246
C19   C     C_R   0.497494 0.419765 0.956241 -0.174246
C20   C     C_1   0.499983 0.499982 0.175659 -0.062271
C21   C     C_1   0.500017 0.500018 0.824341 -0.062271
C22   C     C_1   0.605082 0.893752 0.627589 0.179094
C23   C     C_1   0.500001 0.500023 0.749494 -0.165595
C24   C     C_1   0.394918 0.106248 0.372410 0.179094
C25   C     C_1   0.604999 0.083440 0.627646 0.179118
C26   C     C_1   0.395000 0.916560 0.372354 0.179118
C27   C     C_1   0.499999 0.499977 0.250506 -0.165596
C28   C     C_R   0.551629 0.041488 0.562755 -0.036638
C29   C     C_R   0.448371 0.958512 0.437245 -0.036638
C30   C     C_R   0.499974 0.095018 0.500019 -0.052918
C31   C     C_R   0.500027 0.904982 0.499981 -0.052918
C32   C     C_R   0.448340 0.052700 0.437267 -0.036391
H1    H     H_    0.027288 0.397716 0.499836 0.165635
H2    H     H_    0.972712 0.602284 0.500163 0.165635
H3    H     H_    0.495554 0.357728 0.922320 0.150547
H4    H     H_    0.504445 0.642272 0.077680 0.150547
H5    H     H_    0.495515 0.357715 0.077641 0.150704
H6    H     H_    0.504484 0.642285 0.922359 0.150704
N1    N     N_1   0.500030 0.729450 0.499980 -0.083714
N2    N     N_1   0.499970 0.270550 0.500020 -0.083714
N3    N     N_1   0.647718 0.850969 0.679347 -0.188193
N4    N     N_1   0.352282 0.149031 0.320653 -0.188193
N5    N     N_1   0.647593 0.116967 0.679436 -0.187286
N6    N     N_1   0.352407 0.883033 0.320564 -0.187286
O1    O     O_R   0.500000 0.426350 0.621980 -0.606353
O2    O     O_R   0.500000 0.573650 0.378020 -0.606353
O3    O     O_R   0.499960 0.573690 0.621980 -0.606276
O4    O     O_R   0.500040 0.426310 0.378020 -0.606276
O5    O     O_R   0.640370 0.415730 0.499980 -0.605854
O6    O     O_R   0.359630 0.584270 0.500020 -0.605854
O7    O     O_R   0.640330 0.563060 0.499980 -0.604484
O8    O     O_R   0.359670 0.436940 0.500020 -0.604484
Zn1   Zn    Zn3+2 0.500030 0.401620 0.500000 0.995755
Zn2   Zn    Zn3+2 0.499970 0.598380 0.500000 0.995755

loop_
_geom_bond_atom_site_label_1
_geom_bond_atom_site_label_2
_ccdc_geom_bond_type
C2    C22   S    
C15   C18   A    
C24   C32   S    
C15   H6    S    
C6    C7    S    
C20   C27   T    
C5    C8    S    
C24   N4    T    
C9    C10   D    
C4    N1    T    
C12   O4    A    
N1    Zn2   S    
C16   C20   S    
O7    Zn2   S    
C5    O5    A    
O2    Zn2   S    
C28   C30   A    
O1    Zn1   S    
C29   C32   A    
C29   C31   A    
C19   H3    S    
C6    O6    A    
C25   C28   S    
C30   C32   A    
C1    O1    A    
O6    Zn2   S    
C8    C11   T    
O5    Zn1   S    
C3    C30   S    
C12   O2    A    
C25   N5    T    
C17   C19   A    
C3    N2    T    
C1    C23   S    
C10   H1    S    
O3    Zn2   S    
C21   C23   T    
O4    Zn1   S    
C14   C16   A    
C22   N3    T    
C10   C11   S    
C12   C27   S    
C26   N6    T    
C4    C31   S    
C7    C13   T    
O8    Zn1   S    
C26   C29   S    
C16   C18   A    
N2    Zn1   S    
C15   C17   A    
C9    C13   S    
C5    O7    A    
C2    C28   A    
C6    O8    A    
C18   H4    S    
C14   C19   A    
C1    O3    A    
C9    H2    S    
C2    C31   A    
C14   H5    S    
C17   C21   S    
