data_mof_unit_27835.cif
_audit_creation_date              2012-10-26T18:25:37-0400
_audit_creation_method            fapswitch 2.2
_symmetry_space_group_name_H-M    P1
_symmetry_Int_Tables_number       1
_space_group_crystal_system       triclinic
_cell_length_a                    7.49563
_cell_length_b                    8.683488
_cell_length_c                    11.031328
_cell_angle_alpha                 89.045623
_cell_angle_beta                  72.004222
_cell_angle_gamma                 102.742007
_cell_volume                      663.277929407

loop_
_atom_site_label
_atom_site_type_symbol
_atom_type_description
_atom_site_fract_x
_atom_site_fract_y
_atom_site_fract_z
_atom_type_partial_charge
C1    C     C_R   0.452222 0.199788 0.503837 0.546194
C2    C     C_2   0.574513 0.968137 0.494320 -0.150586
C3    C     C_R   0.547778 0.800211 0.496162 0.547051
C4    C     C_R   0.421553 0.489008 0.742762 0.597365
C5    C     C_R   0.578418 0.510527 0.257310 0.597770
C6    C     C_2   0.374082 0.469539 0.880948 0.082389
C7    C     C_2   0.626114 0.528646 0.119208 0.082873
C8    C     C_2   0.517521 0.506445 0.931328 -0.147186
C9    C     C_2   0.484239 0.483669 0.068391 -0.147288
C10   C     C_2   0.425489 0.031863 0.505677 -0.150663
Cu1   Cu    Cu3+1 0.688910 0.517800 0.485820 0.964767
Cu2   Cu    Cu3+1 0.311090 0.482200 0.514180 0.964710
H1    H     H_    0.339594 0.428537 0.130880 0.142990
H2    H     H_    0.136279 0.483888 0.026662 0.252196
H3    H     H_    0.663541 0.556231 0.868537 0.144200
H4    H     H_    0.281844 0.960292 0.516389 0.135943
H5    H     H_    0.718157 0.039708 0.483606 0.135842
H6    H     H_    0.916046 0.374433 0.600703 0.240636
H7    H     H_    0.083953 0.625571 0.399301 0.240992
H8    H     H_    0.824630 0.706714 0.995740 0.230610
H9    H     H_    0.869553 0.523910 0.974713 0.253080
H10   H     H_    0.165997 0.296797 0.004296 0.230495
N1    N     N_2   0.027170 0.455360 0.535550 -0.259423
N2    N     N_2   0.972830 0.544640 0.464450 -0.259235
N3    N     N_3   0.821878 0.600383 0.042978 -0.632158
N4    N     N_3   0.176507 0.405936 0.957788 -0.633188
O1    O     O_R   0.622710 0.286400 0.490790 -0.508253
O2    O     O_R   0.377290 0.713600 0.509210 -0.507911
O3    O     O_R   0.303660 0.256330 0.514730 -0.499713
O4    O     O_R   0.696340 0.743670 0.485270 -0.499172
O5    O     O_R   0.600900 0.509520 0.671740 -0.528933
O6    O     O_R   0.399100 0.490480 0.328260 -0.528316
O7    O     O_R   0.281840 0.479450 0.695690 -0.468899
O8    O     O_R   0.718160 0.520550 0.304310 -0.469179

loop_
_geom_bond_atom_site_label_1
_geom_bond_atom_site_label_2
_ccdc_geom_bond_type
C3    O4    A    
C6    C8    D    
N1    N2    D    
Cu2   O3    S    
C7    N3    S    
Cu1   O1    S    
Cu1   Cu2   S    
C5    O6    A    
C5    O8    A    
C1    O3    A    
H7    N2    S    
Cu1   O5    S    
C10   H4    S    
H2    N4    S    
C2    H5    S    
Cu2   N1    S    
C6    N4    S    
Cu2   O2    S    
C4    C6    S    
C3    O2    A    
C2    C3    S    
C8    H3    S    
C5    C7    S    
C4    O5    A    
H8    N3    S    
H6    N1    S    
C2    C10   D    
Cu1   N2    S    
C7    C9    D    
H10   N4    S    
C1    O1    A    
C9    H1    S    
C4    O7    A    
H9    N3    S    
Cu2   O7    S    
Cu1   O8    S    
Cu2   O6    S    
C1    C10   S    
Cu1   O4    S    
C8    C9    S    
