data_mof_unit_7869.cif
_audit_creation_date              2012-12-11T14:39:16-0500
_audit_creation_method            fapswitch 2.2
_symmetry_space_group_name_H-M    P1
_symmetry_Int_Tables_number       1
_space_group_crystal_system       triclinic
_cell_length_a                    7.223812
_cell_length_b                    14.129558
_cell_length_c                    16.310599
_cell_angle_alpha                 89.977209
_cell_angle_beta                  97.8074
_cell_angle_gamma                 89.944788
_cell_volume                      1649.37765149

loop_
_atom_site_label
_atom_site_type_symbol
_atom_type_description
_atom_site_fract_x
_atom_site_fract_y
_atom_site_fract_z
_atom_type_partial_charge
O1    O     O_R   0.525340 0.338340 0.164530 -0.548600
O2    O     O_R   0.474660 0.661660 0.835470 -0.547235
O3    O     O_R   0.974660 0.838340 0.835470 -0.546978
O4    O     O_R   0.025340 0.161660 0.164530 -0.546764
O5    O     O_R   0.253520 0.352000 0.336710 -0.538448
O6    O     O_R   0.746480 0.648000 0.663290 -0.537806
O7    O     O_R   0.246480 0.852000 0.663290 -0.538081
O8    O     O_R   0.753520 0.148000 0.336710 -0.537949
O9    O     O_R   0.083330 0.168380 0.337300 -0.535244
O10   O     O_R   0.916670 0.831620 0.662700 -0.535474
O11   O     O_R   0.416670 0.668380 0.662700 -0.535811
O12   O     O_R   0.583330 0.331620 0.337300 -0.536246
C1    C     C_R   0.432942 0.368644 0.363730 0.683158
C2    C     C_R   0.567265 0.631508 0.636216 0.689437
C3    C     C_R   0.067259 0.868480 0.636193 0.689731
C4    C     C_R   0.932737 0.131495 0.363770 0.689729
O13   O     O_R   0.195840 0.349670 0.165140 -0.542444
O14   O     O_R   0.804160 0.650330 0.834860 -0.543653
O15   O     O_R   0.304160 0.849670 0.834860 -0.543781
O16   O     O_R   0.695840 0.150330 0.165140 -0.543353
C5    C     C_R   0.357069 0.374225 0.139287 0.691744
C6    C     C_R   0.643028 0.626261 0.861001 0.691184
C7    C     C_R   0.142900 0.873822 0.860955 0.690537
C8    C     C_R   0.857309 0.125623 0.139522 0.691030
O17   O     O_3   0.387830 0.193120 0.250910 -0.373255
O18   O     O_3   0.612170 0.806880 0.749090 -0.373958
O19   O     O_3   0.112170 0.693120 0.749090 -0.374030
O20   O     O_3   0.887830 0.306880 0.250910 -0.374202
V1    V     V_3+5 0.113010 0.264540 0.250910 1.392928
V2    V     V_3+5 0.886990 0.735460 0.749090 1.394171
V3    V     V_3+5 0.386990 0.764540 0.749090 1.392561
V4    V     V_3+5 0.613010 0.235460 0.250910 1.393040
H1    H     H_    0.213270 0.840543 0.272143 0.113382
H2    H     H_    0.776762 0.157089 0.726270 0.111462
H3    H     H_    0.271400 0.344229 0.725724 0.110643
H4    H     H_    0.745379 0.652820 0.276883 0.111756
C9    C     C_R   0.838458 0.178973 0.524915 -0.150124
C10   C     C_R   0.161502 0.821029 0.475034 -0.145716
C11   C     C_R   0.665885 0.678035 0.475668 -0.147106
C12   C     C_R   0.334893 0.322063 0.524557 -0.148552
C13   C     C_R   0.788146 0.202753 0.601774 -0.119044
C14   C     C_R   0.209087 0.796614 0.397860 -0.124268
C15   C     C_R   0.721772 0.700727 0.399642 -0.122574
C16   C     C_R   0.283545 0.298533 0.601291 -0.119585
C17   C     C_R   0.816817 0.138699 0.666855 -0.128579
C18   C     C_R   0.177509 0.859946 0.332250 -0.136050
C19   C     C_R   0.700334 0.635343 0.335582 -0.124199
C20   C     C_R   0.312055 0.362528 0.666347 -0.128899
C21   C     C_R   0.897851 0.050949 0.655896 -0.149289
C22   C     C_R   0.098426 0.948172 0.343506 -0.145189
C23   C     C_R   0.618938 0.547726 0.346434 -0.146163
C24   C     C_R   0.394098 0.449976 0.655471 -0.149243
C25   C     C_R   0.948446 0.024417 0.578214 0.066803
C26   C     C_R   0.050493 0.975302 0.421543 0.067162
C27   C     C_R   0.558859 0.522997 0.422756 0.062312
C28   C     C_R   0.446413 0.476148 0.577989 0.066143
C29   C     C_R   0.917397 0.089350 0.511373 0.059469
C30   C     C_R   0.082466 0.910599 0.488523 0.058720
C31   C     C_R   0.586448 0.588576 0.489132 0.062337
C32   C     C_R   0.415431 0.411268 0.511154 0.062459
C33   C     C_R   0.031636 0.935476 0.566681 -0.178631
C34   C     C_R   0.968320 0.064477 0.433232 -0.178319
C35   C     C_R   0.469837 0.435341 0.433444 -0.179200
C36   C     C_R   0.531566 0.564589 0.566716 -0.179082
H5    H     H_    0.816077 0.232013 0.476764 0.123886
H6    H     H_    0.185355 0.768306 0.523399 0.123600
H7    H     H_    0.684003 0.731865 0.523189 0.122861
H8    H     H_    0.312932 0.268939 0.476528 0.124311
H9    H     H_    0.727637 0.271417 0.610994 0.135431
H10   H     H_    0.269215 0.727832 0.388958 0.132122
H11   H     H_    0.781548 0.769467 0.390332 0.137098
H12   H     H_    0.222658 0.230021 0.610490 0.135995
H13   H     H_    0.920587 0.004602 0.709103 0.110112
H14   H     H_    0.074250 0.994297 0.290184 0.108046
H15   H     H_    0.602402 0.500400 0.293915 0.120623
H16   H     H_    0.416822 0.496235 0.708682 0.111030
H17   H     H_    0.092682 0.095553 0.033705 0.144690
H18   H     H_    0.901441 0.906088 0.964003 0.146452
H19   H     H_    0.409542 0.597952 0.968317 0.139555
H20   H     H_    0.599694 0.407721 0.037323 0.145165
C37   C     C_2   0.148190 0.952383 0.922449 -0.079469
C38   C     C_2   0.852844 0.045912 0.079124 -0.076498
C39   C     C_2   0.351908 0.453561 0.078331 -0.040060
C40   C     C_2   0.648508 0.547599 0.922334 -0.076191
C41   C     C_2   0.007551 0.960670 0.969825 -0.164355
C42   C     C_2   0.990124 0.039295 0.029807 -0.160813
C43   C     C_2   0.493525 0.462362 0.031526 -0.174444
C44   C     C_2   0.511515 0.541297 0.971864 -0.159434
C45   C     C_3   0.702953 0.970528 0.079129 -0.353734
C46   C     C_3   0.778826 0.882223 0.127338 -0.291766
C47   C     C_3   0.635660 0.802290 0.117547 -0.797315
H21   H     H_    0.507781 0.823387 0.143908 0.230011
H22   H     H_    0.597602 0.783936 0.051154 0.223080
H23   H     H_    0.696374 0.738542 0.150613 0.212996
H24   H     H_    0.908937 0.856790 0.105259 0.195828
H25   H     H_    0.812542 0.900041 0.194058 0.189743
H26   H     H_    0.583011 0.997865 0.108053 0.180043
H27   H     H_    0.646074 0.951782 0.014677 0.171723
C48   C     C_3   0.303316 0.025136 0.925429 -0.352623
C49   C     C_3   0.237463 0.112659 0.874100 -0.300593
C50   C     C_3   0.386636 0.189472 0.883682 -0.786095
H28   H     H_    0.420009 0.210674 0.949636 0.226420
H29   H     H_    0.515533 0.163677 0.860793 0.233131
H30   H     H_    0.334159 0.252443 0.847179 0.208309
H31   H     H_    0.206309 0.092807 0.807698 0.190863
H32   H     H_    0.107862 0.141528 0.893964 0.203320
H33   H     H_    0.353652 0.044863 0.990441 0.173110
H34   H     H_    0.425954 0.995167 0.900192 0.180923
C51   C     C_3   0.800206 0.473085 0.923108 -0.357038
C52   C     C_3   0.728795 0.385525 0.873408 -0.298922
C53   C     C_3   0.875825 0.307333 0.882531 -0.787398
H35   H     H_    0.003485 0.330990 0.857360 0.232303
H36   H     H_    0.912951 0.287508 0.948668 0.225673
H37   H     H_    0.819508 0.243877 0.848008 0.208324
H38   H     H_    0.600115 0.358567 0.895369 0.204466
H39   H     H_    0.694530 0.404492 0.806916 0.190560
H40   H     H_    0.921542 0.501488 0.895912 0.181926
H41   H     H_    0.853746 0.453157 0.987568 0.170506
C54   C     C_3   0.194360 0.525671 0.073969 -0.339880
C55   C     C_3   0.253246 0.615319 0.124180 -0.327738
C56   C     C_3   0.216246 0.606464 0.213810 -0.723452
H42   H     H_    0.276662 0.539885 0.241805 0.226884
H43   H     H_    0.280732 0.667175 0.250053 0.208840
H44   H     H_    0.063512 0.606763 0.216733 0.216795
H45   H     H_    0.403667 0.630684 0.123040 0.206043
H46   H     H_    0.172221 0.676742 0.095700 0.179303
H47   H     H_    0.147768 0.545092 0.008612 0.142264
H48   H     H_    0.069546 0.494644 0.096533 0.184680

loop_
_geom_bond_atom_site_label_1
_geom_bond_atom_site_label_2
_ccdc_geom_bond_type
C39   C43   D    
C43   C44   S    
O1    C5    A    
C50   H28   S    
C12   C32   A    
C27   C31   A    
O13   V1    S    
O3    C7    A    
C53   H35   S    
O15   V3    S    
C51   H40   S    
C46   H24   S    
C41   C42   S    
C48   H34   S    
C49   H31   S    
C22   C26   A    
C38   C45   S    
C32   C35   A    
O20   V1    S    
O9    C4    A    
C23   H15   S    
C10   C14   A    
H20   C43   S    
O10   C3    A    
C22   H14   S    
O16   V4    S    
O4    C8    A    
O11   C2    A    
C55   H46   S    
O6    C2    A    
C14   H10   S    
H4    C19   S    
C14   C18   A    
C39   C54   S    
C8    C38   S    
C52   C53   S    
C56   H44   S    
C10   C30   A    
C25   C33   A    
C5    C39   S    
C27   C35   A    
O2    C6    A    
C28   C36   A    
O14   V2    S    
O5    C1    A    
O4    V1    S    
O9    V1    S    
C54   H48   S    
C30   C33   A    
O7    C3    A    
O11   V3    S    
O18   V3    S    
C50   H29   S    
O12   V4    S    
O19   V2    S    
H1    C18   S    
C4    C34   S    
H3    C20   S    
H19   C44   S    
C51   H41   S    
O5    V1    S    
O7    V3    S    
O8    V4    S    
C10   H6    S    
C29   C34   A    
C47   H21   S    
C25   C29   A    
C55   H45   S    
C19   C23   A    
C26   C34   A    
C38   C42   D    
O1    V4    S    
O13   C5    A    
C28   C32   A    
C45   H26   S    
O2    V3    S    
C6    C40   S    
O3    V2    S    
O15   C7    A    
C47   H22   S    
O10   V2    S    
C48   C49   S    
C1    C35   S    
C17   C21   A    
C11   C31   A    
C3    C33   S    
C53   H36   S    
H2    C17   S    
C56   H42   S    
C2    C36   S    
H18   C41   S    
C9    H5    S    
O6    V2    S    
H17   C42   S    
C50   H30   S    
C21   H13   S    
C52   H39   S    
C48   H33   S    
C55   C56   S    
C13   H9    S    
C26   C30   A    
C15   H11   S    
C7    C37   S    
O14   C6    A    
C11   H7    S    
C40   C44   D    
C24   H16   S    
C11   C15   A    
C54   C55   S    
C46   H25   S    
C37   C48   S    
C18   C22   A    
C49   H32   S    
C40   C51   S    
C45   H27   S    
C16   C20   A    
C51   C52   S    
C47   H23   S    
C46   C47   S    
O17   V4    S    
C21   C25   A    
C49   C50   S    
C16   H12   S    
C53   H37   S    
C23   C27   A    
C9    C13   A    
C37   C41   D    
C56   H43   S    
C31   C36   A    
C12   C16   A    
O12   C1    A    
O8    C4    A    
C12   H8    S    
C13   C17   A    
C45   C46   S    
C20   C24   A    
C15   C19   A    
C52   H38   S    
O16   C8    A    
C9    C29   A    
C24   C28   A    
C54   H47   S    
