data_mof_unit_48003.cif
_audit_creation_date              2012-12-10T17:19:24-0500
_audit_creation_method            fapswitch 2.2
_symmetry_space_group_name_H-M    P1
_symmetry_Int_Tables_number       1
_space_group_crystal_system       triclinic
_cell_length_a                    15.11592
_cell_length_b                    10.738723
_cell_length_c                    9.647213
_cell_angle_alpha                 87.808432
_cell_angle_beta                  93.063753
_cell_angle_gamma                 94.1054
_cell_volume                      1558.80823053

loop_
_atom_site_label
_atom_site_type_symbol
_atom_type_description
_atom_site_fract_x
_atom_site_fract_y
_atom_site_fract_z
_atom_type_partial_charge
C1    C     C_R   0.489191 0.261794 0.501757 0.805135
C2    C     C_R   0.915528 0.534750 0.612989 -0.062973
C3    C     C_R   0.939975 0.394038 0.268325 0.327280
C4    C     C_R   0.033193 0.407200 0.259632 0.312600
C5    C     C_R   0.087362 0.455323 0.372650 -0.051483
C6    C     C_R   0.047297 0.498319 0.489287 0.043947
C7    C     C_R   0.100498 0.545911 0.602757 0.060964
C8    C     C_R   0.061938 0.594091 0.715077 -0.167189
C9    C     C_R   0.970551 0.594544 0.718107 0.400939
C10   C     C_R   0.180755 0.456152 0.375487 -0.194198
C11   C     C_R   0.232489 0.501357 0.490176 -0.051615
C12   C     C_R   0.328957 0.499155 0.496709 0.755887
C13   C     C_R   0.192151 0.547501 0.602070 -0.219263
C14   C     C_R   0.402562 0.110077 0.737295 -0.146308
C15   C     C_R   0.369761 0.037637 0.848488 -0.154049
C16   C     C_R   0.365903 0.908314 0.845269 -0.123375
C17   C     C_R   0.395760 0.850459 0.731632 -0.139049
C18   C     C_R   0.432810 0.921626 0.619577 0.096855
C19   C     C_R   0.436077 0.054496 0.622094 0.107911
C20   C     C_R   0.466953 0.125640 0.504090 -0.125422
C21   C     C_R   0.470229 0.064999 0.378870 -0.152893
C22   C     C_R   0.461291 0.936565 0.376620 -0.131588
C23   C     C_R   0.485248 0.734389 0.498291 0.833644
C24   C     C_R   0.459495 0.864947 0.499005 -0.131832
C25   C     C_R   0.633793 0.647391 0.144007 0.433995
C26   C     C_R   0.717163 0.645847 0.089749 0.370566
C27   C     C_R   0.717315 0.659938 0.944818 -0.187559
C28   C     C_R   0.638906 0.632081 0.865003 -0.079200
C29   C     C_R   0.566580 0.567385 0.928117 0.169501
C30   C     C_R   0.565624 0.570216 0.076482 -0.023908
C31   C     C_R   0.436403 0.433122 0.072159 0.526933
C32   C     C_R   0.436047 0.435377 0.923441 -0.152755
C33   C     C_R   0.671297 0.495063 0.502835 0.861989
C34   C     C_R   0.822829 0.514753 0.623947 0.343151
C35   C     C_R   0.768727 0.486500 0.505726 -0.098074
C36   C     C_R   0.807726 0.447548 0.387456 -0.150218
C37   C     C_R   0.900312 0.443241 0.382688 -0.070063
C38   C     C_R   0.954356 0.492975 0.494150 -0.063734
Cu1   Cu    Cu3+1 0.499990 0.499990 0.640660 0.967323
Cu2   Cu    Cu3+1 0.500010 0.500010 0.359340 1.040016
H1    H     H_    0.394939 0.208499 0.740004 0.152009
H2    H     H_    0.343944 0.082142 0.935195 0.142091
H3    H     H_    0.337087 0.852412 0.929431 0.158568
H4    H     H_    0.383420 0.750325 0.729690 0.162494
H5    H     H_    0.460022 0.892944 0.279719 0.230438
H6    H     H_    0.774823 0.702503 0.896463 0.193446
H7    H     H_    0.637237 0.661462 0.757763 0.213977
H8    H     H_    0.764497 0.419374 0.299974 0.231952
H9    H     H_    0.383376 0.383792 0.865570 0.120668
H10   H     H_    0.214096 0.417339 0.292362 0.186432
H11   H     H_    0.232342 0.584723 0.689600 0.143913
H12   H     H_    0.103035 0.636892 0.798383 0.162189
H13   H     H_    0.481728 0.116174 0.281811 0.191592
N1    N     N_R   0.500860 0.501210 0.147910 -0.196762
N2    N     N_R   0.500890 0.501290 0.852040 -0.195838
O1    O     O_R   0.499990 0.319640 0.618810 -0.582724
O2    O     O_R   0.500000 0.319660 0.381240 -0.544440
O3    O     O_R   0.370250 0.499960 0.618800 -0.616298
O4    O     O_R   0.370260 0.499980 0.381230 -0.543231
O5    O     O_R   0.500000 0.680340 0.618760 -0.617406
O6    O     O_R   0.500010 0.680360 0.381190 -0.523311
O7    O     O_R   0.629740 0.500020 0.618770 -0.536547
O8    O     O_R   0.629750 0.500040 0.381200 -0.609504
O9    O     O_3   0.784676 0.510613 0.750008 -0.716937
H14   H     H_    0.829243 0.484396 0.821976 0.396435
O10   O     O_3   0.372028 0.362934 0.142315 -0.721529
H15   H     H_    0.330733 0.319101 0.074007 0.289027
S1    S     S_3+6 0.611909 0.806901 0.153390 0.021428
O11   O     O_2   0.622852 0.845998 0.301231 -0.273778
O12   O     O_2   0.676094 0.889895 0.071068 -0.247781
O13   O     O_3   0.509327 0.824422 0.082492 -0.607026
H16   H     H_    0.510712 0.912151 0.046502 0.370194
O14   O     O_3   0.791623 0.678624 0.172806 -0.683731
H17   H     H_    0.844391 0.678510 0.115929 0.358049
S2    S     S_3+6 0.873488 0.309987 0.139731 0.055853
O15   O     O_2   0.815491 0.398320 0.060069 -0.296431
O16   O     O_2   0.928011 0.248731 0.039455 -0.187560
O17   O     O_3   0.807751 0.199072 0.218758 -0.480883
H18   H     H_    0.849021 0.147988 0.275759 0.357113
O18   O     O_3   0.069486 0.371370 0.140424 -0.662903
H19   H     H_    0.119446 0.432327 0.118249 0.318313
O19   O     O_3   0.937767 0.663623 0.818218 -0.724893
H20   H     H_    0.889711 0.709912 0.771218 0.331444

loop_
_geom_bond_atom_site_label_1
_geom_bond_atom_site_label_2
_ccdc_geom_bond_type
C8    C9    A    
C31   O10   S    
C28   H7    S    
O14   H17   S    
C19   C20   A    
C7    C8    A    
C30   N1    A    
C26   C27   A    
C29   C30   A    
Cu2   O8    S    
C18   C24   A    
C28   C29   A    
C1    O1    A    
C4    O18   S    
C5    C6    A    
C34   C35   A    
C15   C16   A    
C26   O14   S    
C18   C19   A    
C13   H11   S    
C12   O4    A    
Cu1   N2    S    
C31   C32   A    
C16   C17   A    
C23   C24   S    
C6    C38   A    
C3    S2    S    
C8    H12   S    
C32   N2    A    
C9    O19   S    
C12   O3    A    
C2    C34   A    
O10   H15   S    
Cu2   O4    S    
C21   C22   A    
C25   S1    S    
C23   O5    A    
Cu1   Cu2   S    
O17   H18   S    
O18   H19   S    
C29   N2    A    
C25   C26   A    
Cu1   O3    S    
C33   O7    A    
Cu2   O6    S    
C35   C36   A    
S2    O15   D    
C37   C38   A    
C1    O2    A    
C2    C38   A    
Cu1   O1    S    
C7    C13   A    
C33   O8    A    
C34   O9    S    
C17   C18   A    
S2    O16   D    
C16   H3    S    
C14   H1    S    
C27   H6    S    
Cu2   N1    S    
C22   C24   A    
C3    C4    A    
C10   H10   S    
C25   C30   A    
Cu1   O7    S    
C36   C37   A    
C1    C20   S    
Cu2   O2    S    
C14   C19   A    
S1    O11   D    
C15   H2    S    
C4    C5    A    
C11   C12   S    
C6    C7    A    
O9    H14   S    
C17   H4    S    
C5    C10   A    
C21   H13   S    
C11   C13   A    
S1    O13   S    
Cu1   O5    S    
C33   C35   S    
C36   H8    S    
C31   N1    A    
S2    O17   S    
C32   H9    S    
C10   C11   A    
C23   O6    A    
C22   H5    S    
O13   H16   S    
C20   C21   A    
C3    C37   A    
S1    O12   D    
O19   H20   S    
C27   C28   A    
C14   C15   A    
C2    C9    A    
