data_mof_unit_49184.cif
_audit_creation_date              2012-12-10T17:31:08-0500
_audit_creation_method            fapswitch 2.2
_symmetry_space_group_name_H-M    P1
_symmetry_Int_Tables_number       1
_space_group_crystal_system       triclinic
_cell_length_a                    12.003025
_cell_length_b                    12.886632
_cell_length_c                    15.386312
_cell_angle_alpha                 87.1039
_cell_angle_beta                  114.909847
_cell_angle_gamma                 93.33127
_cell_volume                      2153.99203796

loop_
_atom_site_label
_atom_site_type_symbol
_atom_type_description
_atom_site_fract_x
_atom_site_fract_y
_atom_site_fract_z
_atom_type_partial_charge
C1    C     C_R   0.477291 0.299503 0.498369 0.883030
C2    C     C_R   0.522876 0.700457 0.501990 0.903893
C3    C     C_R   0.674975 0.525053 0.121945 -0.018609
C4    C     C_R   0.425924 0.656463 0.916476 -0.042249
C5    C     C_R   0.755135 0.505317 0.080969 -0.277729
C6    C     C_R   0.340328 0.669829 0.954198 -0.272877
C7    C     C_R   0.536510 0.811717 0.503011 -0.052597
C8    C     C_R   0.464340 0.188150 0.498607 -0.053069
C9    C     C_R   0.361523 0.029223 0.518814 -0.207604
C10   C     C_R   0.640129 0.970649 0.484056 -0.210293
C11   C     C_R   0.367384 0.136792 0.513277 -0.195587
C12   C     C_R   0.633732 0.863101 0.488759 -0.186678
C13   C     C_R   0.553973 0.132781 0.487641 -0.276253
C14   C     C_R   0.447478 0.867009 0.514917 -0.260036
C15   C     C_R   0.549272 0.025979 0.493547 0.183514
C16   C     C_R   0.452450 0.973848 0.509448 0.185067
C17   C     C_R   0.026639 0.625669 0.447233 -0.276360
C18   C     C_R   0.976070 0.376352 0.557098 -0.327416
C19   C     C_R   0.141024 0.609650 0.446263 0.017038
C20   C     C_R   0.858982 0.390356 0.553776 -0.004318
C21   C     C_R   0.148807 0.442895 0.520272 -0.024200
C22   C     C_R   0.855000 0.559893 0.485874 -0.004671
C23   C     C_R   0.575906 0.495703 0.680350 0.882617
C24   C     C_R   0.424328 0.505574 0.319325 0.878534
C25   C     C_R   0.032749 0.454993 0.521428 0.084330
C26   C     C_R   0.971573 0.548185 0.485368 0.083828
C27   C     C_R   0.625914 0.501798 0.784185 -0.069808
C28   C     C_R   0.382595 0.528126 0.216540 -0.073605
C29   C     C_R   0.791320 0.478571 0.941321 -0.181158
C30   C     C_R   0.264603 0.632914 0.076259 -0.184347
C31   C     C_R   0.746781 0.474433 0.842246 -0.188168
C32   C     C_R   0.281510 0.589565 0.165728 -0.198004
C33   C     C_R   0.552954 0.539065 0.825231 -0.191772
C34   C     C_R   0.461190 0.506151 0.175017 -0.187085
C35   C     C_R   0.599465 0.551705 0.924114 0.120688
C36   C     C_R   0.458237 0.562582 0.094054 0.109261
C37   C     C_R   0.716332 0.512931 0.982491 0.145608
C38   C     C_R   0.353405 0.621157 0.040670 0.142147
C39   C     C_R   0.526568 0.590557 0.966568 -0.024917
C40   C     C_R   0.553750 0.558983 0.062736 -0.028801
H1    H     H_    0.846877 0.479558 0.125955 0.174978
H2    H     H_    0.263706 0.719718 0.916597 0.186101
H3    H     H_    0.815594 0.328393 0.580029 0.141829
H4    H     H_    0.182799 0.670324 0.417308 0.131277
H5    H     H_    0.981534 0.697926 0.418044 0.154480
H6    H     H_    0.020852 0.303870 0.585844 0.150184
H7    H     H_    0.527347 0.447233 0.209530 0.150911
H8    H     H_    0.458111 0.554756 0.779698 0.155628
H9    H     H_    0.218899 0.607340 0.196539 0.158502
H10   H     H_    0.805137 0.446475 0.811361 0.161372
H11   H     H_    0.882660 0.451981 0.985685 0.143134
H12   H     H_    0.185562 0.679688 0.037148 0.145659
H13   H     H_    0.373081 0.827106 0.527279 0.157233
H14   H     H_    0.628371 0.172600 0.475233 0.159211
H15   H     H_    0.702947 0.820408 0.479518 0.161604
H16   H     H_    0.297859 0.179537 0.522033 0.156798
H17   H     H_    0.286877 0.989534 0.530825 0.139475
H18   H     H_    0.714855 0.010351 0.472167 0.143099
H19   H     H_    0.807040 0.631143 0.458215 0.159467
H20   H     H_    0.198092 0.372623 0.550026 0.118928
N1    N     N_R   0.799120 0.480200 0.517090 -0.106662
N2    N     N_R   0.200880 0.519800 0.482910 -0.098523
O1    O     O_R   0.580150 0.341050 0.504560 -0.635961
O2    O     O_R   0.419850 0.658950 0.495440 -0.632970
O3    O     O_R   0.388090 0.353760 0.493600 -0.626991
O4    O     O_R   0.611910 0.646240 0.506400 -0.622008
O5    O     O_R   0.650890 0.490020 0.640860 -0.614513
O6    O     O_R   0.349110 0.509980 0.359140 -0.617718
O7    O     O_R   0.458830 0.502730 0.629890 -0.612864
O8    O     O_R   0.541170 0.497270 0.370110 -0.579986
Zn1   Zn    Zn3+2 0.628240 0.491510 0.507320 0.964414
Zn2   Zn    Zn3+2 0.371760 0.508490 0.492680 0.951140
C41   C     C_2   0.727620 0.516438 0.227305 0.883783
O9    O     O_2   0.714791 0.585580 0.273414 -0.640612
O10   O     O_R   0.791373 0.427814 0.273265 -0.812426
H21   H     H_    0.812454 0.423803 0.344118 0.347530
C42   C     C_2   0.416014 0.724101 0.832486 0.896262
O11   O     O_2   0.508850 0.758601 0.825080 -0.618427
O12   O     O_R   0.300284 0.750815 0.763144 -0.813933
H22   H     H_    0.305517 0.797276 0.709686 0.339251

loop_
_geom_bond_atom_site_label_1
_geom_bond_atom_site_label_2
_ccdc_geom_bond_type
C8    C13   A    
C5    C37   A    
C1    C8    S    
C41   O9    D    
C23   O7    A    
C2    C7    S    
C24   O8    A    
C42   O11   D    
C27   C33   A    
C17   C26   A    
C35   C37   A    
C9    C16   A    
C17   H5    S    
C10   C15   A    
C19   N2    A    
C15   C16   A    
C1    O1    A    
C30   C38   A    
C18   C20   A    
C23   O5    A    
C20   N1    A    
C21   C25   A    
C17   C19   A    
C7    C14   A    
C1    O3    A    
C6    C38   A    
O8    Zn1   S    
C23   C27   S    
O5    Zn1   S    
N1    Zn1   S    
C28   C34   A    
C41   O10   S    
C18   C25   A    
C18   H6    S    
C2    O2    A    
C42   O12   S    
C7    C12   A    
C27   C31   A    
C36   C40   A    
C21   H20   S    
C4    C6    A    
C22   H19   S    
C3    C5    A    
C25   C26   A    
O7    Zn2   S    
C35   C39   A    
O10   H21   S    
O4    Zn1   S    
C4    C39   A    
C28   C32   A    
O6    Zn2   S    
N2    Zn2   S    
C9    C11   A    
C21   N2    A    
C10   C12   A    
O1    Zn1   S    
C3    C40   A    
C13   C15   A    
C6    H2    S    
C14   C16   A    
C31   H10   S    
C39   C40   A    
C20   H3    S    
C19   H4    S    
C13   H14   S    
C29   H11   S    
C5    H1    S    
C10   H18   S    
C24   C28   S    
C2    O4    A    
O3    Zn2   S    
C36   C38   A    
C4    C42   S    
C29   C31   A    
C22   N1    A    
C30   C32   A    
C30   H12   S    
C8    C11   A    
C33   C35   A    
C34   C36   A    
C9    H17   S    
O2    Zn2   S    
C3    C41   S    
C32   H9    S    
C12   H15   S    
C24   O6    A    
O12   H22   S    
C14   H13   S    
C22   C26   A    
C29   C37   A    
C33   H8    S    
C34   H7    S    
C11   H16   S    
