data_mof_unit_14696.cif
_audit_creation_date              2013-03-05T16:06:22-0500
_audit_creation_method            fapswitch 2.2
_symmetry_space_group_name_H-M    P1
_symmetry_Int_Tables_number       1
_space_group_crystal_system       triclinic
_cell_length_a                    10.876044
_cell_length_b                    9.560661
_cell_length_c                    27.820309
_cell_angle_alpha                 90.135966
_cell_angle_beta                  87.702097
_cell_angle_gamma                 89.600091
_cell_volume                      2890.40927667

loop_
_atom_site_label
_atom_site_type_symbol
_atom_site_description
_atom_site_fract_x
_atom_site_fract_y
_atom_site_fract_z
_atom_type_partial_charge
O1    O     O_R   0.319640 0.618740 0.500000 -0.527420
O2    O     O_R   0.680360 0.381260 0.500000 -0.525850
O3    O     O_R   0.680360 0.618740 0.500000 -0.524249
O4    O     O_R   0.319640 0.381260 0.500000 -0.519580
C1    C     C_R   0.262596 0.499505 0.497618 0.870299
C2    C     C_R   0.737562 0.499109 0.501945 0.869395
O5    O     O_R   0.500020 0.618770 0.430260 -0.533076
O6    O     O_R   0.499980 0.381230 0.569740 -0.536997
O7    O     O_R   0.499980 0.618770 0.569740 -0.531430
O8    O     O_R   0.500020 0.381230 0.430260 -0.544924
C3    C     C_R   0.500685 0.500056 0.407591 0.942278
C4    C     C_R   0.499838 0.500303 0.592548 0.923736
Cu1   Cu    Cu3+1 0.500000 0.640660 0.500000 1.054921
Cu2   Cu    Cu3+1 0.500000 0.359340 0.500000 1.047794
C5    C     C_R   0.396554 0.560496 0.179795 0.612318
C6    C     C_R   0.602970 0.513131 0.822188 0.609260
O9    O     O_2   0.302834 0.619137 0.206170 -0.548654
O10   O     O_2   0.710147 0.527281 0.796546 -0.533632
N1    N     N_R   0.494293 0.502741 0.202242 -0.402204
N2    N     N_R   0.493957 0.507845 0.799167 -0.414984
C7    C     C_R   0.591868 0.444914 0.176493 0.632497
C8    C     C_R   0.383820 0.502976 0.824963 0.634580
C9    C     C_R   0.577072 0.589556 0.277483 0.348354
C10   C     C_R   0.430376 0.607950 0.722074 0.358838
C11   C     C_R   0.587101 0.578755 0.327694 0.279192
C12   C     C_R   0.420735 0.596128 0.671868 0.285587
C13   C     C_R   0.408628 0.425668 0.331180 0.267790
C14   C     C_R   0.574520 0.409824 0.670843 0.272977
C15   C     C_R   0.413344 0.417540 0.280543 0.393068
C16   C     C_R   0.562568 0.402120 0.721278 0.390618
C17   C     C_R   0.494838 0.503288 0.253859 0.048690
C18   C     C_R   0.495336 0.505759 0.747232 0.020820
C19   C     C_R   0.493155 0.500715 0.102231 -0.054857
C20   C     C_R   0.491711 0.506019 0.899421 -0.061895
C21   C     C_R   0.393595 0.559406 0.129423 -0.025380
C22   C     C_R   0.603968 0.503938 0.872464 -0.022160
C23   C     C_R   0.295022 0.618592 0.105739 -0.174408
C24   C     C_R   0.714463 0.493352 0.896223 -0.183176
C25   C     C_R   0.593806 0.444377 0.125997 -0.114200
C26   C     C_R   0.380734 0.509855 0.875488 -0.103754
C27   C     C_R   0.499530 0.500652 0.354742 -0.352477
C28   C     C_R   0.498299 0.501772 0.645702 -0.363115
H1    H     H_    0.219995 0.670381 0.125617 0.186690
H2    H     H_    0.802358 0.494406 0.876473 0.183623
C29   C     C_R   0.379129 0.526943 0.977306 -0.049312
C30   C     C_R   0.598128 0.453726 0.024143 -0.079330
C31   C     C_R   0.602000 0.475847 0.973656 0.068700
C32   C     C_R   0.385673 0.545256 0.027915 0.081238
C33   C     C_R   0.490747 0.502866 0.950264 0.012164
C34   C     C_R   0.492251 0.499376 0.051297 0.012619
C35   C     C_R   0.266241 0.530613 0.952828 0.426150
C36   C     C_R   0.694765 0.387086 0.048798 0.398266
C37   C     C_R   0.269269 0.516504 0.902302 -0.255814
C38   C     C_R   0.692659 0.386096 0.099019 -0.215575
O11   O     O_2   0.277617 0.490683 0.801875 -0.534715
O12   O     O_2   0.686383 0.387616 0.199730 -0.552251
C39   C     C_R   0.291810 0.612795 0.055873 -0.133538
C40   C     C_R   0.713408 0.476775 0.945843 -0.181162
H3    H     H_    0.183826 0.510871 0.883817 0.183035
H4    H     H_    0.768738 0.337108 0.116698 0.205694
H5    H     H_    0.218205 0.668838 0.039679 0.183998
H6    H     H_    0.801602 0.471294 0.961881 0.204866
C41   C     C_R   0.064992 0.367611 0.497312 0.356672
C42   C     C_R   0.937025 0.622645 0.505297 0.352532
C43   C     C_R   0.936808 0.367607 0.500161 0.349812
C44   C     C_R   0.061919 0.622491 0.493420 0.348210
C45   C     C_R   0.871712 0.496060 0.503669 -0.407842
C46   C     C_R   0.128627 0.496308 0.495307 -0.403007
C47   C     C_R   0.563967 0.073424 0.464731 0.384357
C48   C     C_R   0.426105 0.925381 0.532213 0.374532
C49   C     C_R   0.434695 0.075154 0.534864 0.386536
C50   C     C_R   0.572721 0.923491 0.467307 0.373116
N3    N     N_R   0.500000 0.852070 0.500000 -0.268477
N4    N     N_R   0.500000 0.147930 0.500000 -0.269515
O13   O     O_3   0.315991 0.360420 0.358108 -0.591557
C51   C     C_3   0.201940 0.426112 0.349604 -0.290799
H7    H     H_    0.156078 0.372347 0.319874 0.228034
H8    H     H_    0.209662 0.540143 0.341661 0.146721
H9    H     H_    0.141267 0.416922 0.382365 0.137786
O14   O     O_3   0.659165 0.324646 0.646371 -0.571757
C52   C     C_3   0.777482 0.382617 0.650617 -0.279645
H10   H     H_    0.796989 0.415431 0.687975 0.214263
H11   H     H_    0.789627 0.472637 0.625795 0.117543
H12   H     H_    0.847683 0.302207 0.640408 0.164335
O15   O     O_3   0.621998 0.144874 0.427242 -0.530021
C53   C     C_3   0.559295 0.118916 0.384526 -0.289179
H13   H     H_    0.458275 0.137131 0.389497 0.180538
H14   H     H_    0.576598 0.011320 0.370722 0.170905
H15   H     H_    0.594325 0.192076 0.356359 0.173380
O16   O     O_3   0.349937 0.850223 0.563689 -0.515908
C54   C     C_3   0.227367 0.900867 0.564003 -0.093165
H16   H     H_    0.208717 0.971803 0.595052 0.151919
H17   H     H_    0.164763 0.811069 0.569104 0.174377
H18   H     H_    0.202938 0.954079 0.530138 0.182067
O17   O     O_3   0.372884 0.148689 0.571324 -0.528821
C55   C     C_3   0.427639 0.119222 0.615494 -0.266543
H19   H     H_    0.394624 0.198150 0.642379 0.170718
H20   H     H_    0.529877 0.125064 0.612522 0.190050
H21   H     H_    0.400250 0.015307 0.629742 0.178082
O18   O     O_3   0.644675 0.845973 0.434474 -0.520587
C56   C     C_3   0.767125 0.894735 0.430781 -0.076122
H22   H     H_    0.829088 0.803487 0.424803 0.175124
H23   H     H_    0.796909 0.950134 0.463488 0.177642
H24   H     H_    0.780332 0.963054 0.398873 0.154971
O19   O     O_3   0.333177 0.332507 0.256836 -0.533821
C57   C     C_3   0.381401 0.195212 0.256197 -0.296740
H25   H     H_    0.385490 0.151807 0.293187 0.165432
H26   H     H_    0.474052 0.190616 0.237666 0.157326
H27   H     H_    0.319491 0.127460 0.235789 0.193307
O20   O     O_3   0.626188 0.299952 0.745277 -0.512720
C58   C     C_3   0.549040 0.183122 0.751344 -0.294314
H28   H     H_    0.526045 0.137467 0.716027 0.148834
H29   H     H_    0.463492 0.210079 0.772813 0.154779
H30   H     H_    0.598820 0.101751 0.771404 0.184613
O21   O     O_3   0.340160 0.681786 0.647985 -0.523930
C59   C     C_3   0.216735 0.644057 0.660010 0.139697
H31   H     H_    0.157438 0.737321 0.654821 0.143510
H32   H     H_    0.200422 0.612129 0.698187 0.187946
C60   C     C_3   0.174064 0.527841 0.627155 -0.862901
H33   H     H_    0.228640 0.430899 0.632431 0.251739
H34   H     H_    0.075336 0.505414 0.635219 0.198732
H35   H     H_    0.185398 0.561500 0.589299 0.253539
O22   O     O_3   0.678134 0.650465 0.350765 -0.534869
C61   C     C_3   0.795449 0.592450 0.338073 0.121914
H36   H     H_    0.863138 0.678915 0.336247 0.153127
H37   H     H_    0.801861 0.539193 0.302349 0.183891
C62   C     C_3   0.834204 0.489617 0.376289 -0.847617
H38   H     H_    0.763842 0.407011 0.381846 0.270223
H39   H     H_    0.923049 0.439550 0.365033 0.197196
H40   H     H_    0.845996 0.546781 0.410324 0.239069
O23   O     O_3   0.369075 0.714452 0.746945 -0.532860
C63   C     C_3   0.445337 0.832930 0.746230 -0.303901
H41   H     H_    0.464107 0.870751 0.708854 0.164858
H42   H     H_    0.533223 0.811294 0.764129 0.162107
H43   H     H_    0.396959 0.918225 0.766571 0.180260
O24   O     O_3   0.653732 0.677449 0.250904 -0.544376
C64   C     C_3   0.601835 0.813004 0.252443 -0.285881
H44   H     H_    0.597133 0.855686 0.289733 0.171117
H45   H     H_    0.508881 0.814566 0.237048 0.162533
H46   H     H_    0.661522 0.883266 0.230230 0.188459
O25   O     O_3   0.154548 0.524755 0.979061 -0.574526
C65   C     C_3   0.064846 0.615192 0.960092 0.045877
H47   H     H_    0.013699 0.558523 0.932353 0.156500
H48   H     H_    0.105721 0.712045 0.944064 0.139304
C66   C     C_3   0.972917 0.659728 0.000110 -0.786031
H49   H     H_    0.016430 0.732599 0.025331 0.228147
H50   H     H_    0.893529 0.714339 0.984424 0.199776
H51   H     H_    0.939010 0.566930 0.020424 0.286872
O26   O     O_3   0.790030 0.316312 0.024814 -0.593164
C67   C     C_3   0.750584 0.179573 0.014359 0.069255
H52   H     H_    0.668589 0.181600 0.991582 0.150124
H53   H     H_    0.727965 0.121033 0.048124 0.146384
C68   C     C_3   0.853649 0.101864 0.986801 -0.751522
H54   H     H_    0.936474 0.095855 0.008820 0.255190
H55   H     H_    0.823722 0.994064 0.978324 0.192945
H56   H     H_    0.877408 0.157243 0.952655 0.252840
O27   O     O_3   0.126173 0.240538 0.500142 -0.535720
C69   C     C_3   0.144483 0.184361 0.453495 -0.226768
H57   H     H_    0.216197 0.243334 0.432944 0.198893
H58   H     H_    0.058048 0.180267 0.433423 0.172119
H59   H     H_    0.179387 0.076066 0.456709 0.157827
O28   O     O_3   0.879564 0.749094 0.515667 -0.545126
C70   C     C_3   0.863173 0.760723 0.566118 -0.278989
H60   H     H_    0.796741 0.682187 0.580585 0.146672
H61   H     H_    0.823903 0.865092 0.575099 0.161098
H62   H     H_    0.951993 0.750948 0.584393 0.133340
O29   O     O_3   0.876961 0.241358 0.495137 -0.533377
C71   C     C_3   0.857556 0.180703 0.540868 -0.219277
H63   H     H_    0.793253 0.245255 0.563579 0.180021
H64   H     H_    0.945304 0.162499 0.559193 0.169725
H65   H     H_    0.812825 0.078332 0.536246 0.160571
O30   O     O_3   0.117666 0.747995 0.481803 -0.547516
C72   C     C_3   0.135860 0.753644 0.431317 -0.282271
H66   H     H_    0.202153 0.671997 0.418039 0.153343
H67   H     H_    0.176101 0.856084 0.421355 0.161578
H68   H     H_    0.047492 0.743835 0.412789 0.134394

loop_
_geom_bond_atom_site_label_1
_geom_bond_atom_site_label_2
_geom_bond_distance
_ccdc_geom_bond_type
C40   H6    1.075002 S    
O5    Cu1   1.950941 S    
C44   C46   1.405581 A    
C41   C43   1.393212 A    
C56   H22   1.106794 S    
C13   C15   1.409551 A    
O19   C57   1.409943 S    
O17   C55   1.414922 S    
C51   H9    1.107622 S    
O3    C2    1.300458 A    
N1    C17   1.436253 S    
C52   H12   1.108147 S    
C10   C18   1.406005 A    
C66   H49   1.109301 S    
C37   H3    1.081577 S    
C32   C39   1.410249 A    
C31   C33   1.419109 A    
C38   H4    1.083619 S    
C72   H66   1.111335 S    
O5    C3    1.296964 A    
C64   H45   1.113666 S    
C19   C25   1.406091 A    
C9    O24   1.382518 S    
C16   O20   1.381798 S    
O1    C1    1.304463 A    
Cu2   N4    2.021220 S    
C44   O30   1.381342 S    
C70   H61   1.106712 S    
C51   H8    1.115967 S    
C50   O18   1.388292 S    
C19   C21   1.408331 A    
C53   H14   1.109380 S    
C71   H64   1.112702 S    
C29   C32   1.423051 A    
C25   C38   1.398073 A    
C49   O17   1.382173 S    
C57   H25   1.112930 S    
C29   C35   1.427934 A    
O21   C59   1.419616 S    
C55   H21   1.108793 S    
C30   C36   1.425341 A    
C59   H31   1.109900 S    
O7    Cu1   1.951928 S    
C12   O21   1.385415 S    
C4    C28   1.478214 S    
C69   H59   1.105335 S    
C66   H50   1.110658 S    
C24   C40   1.389507 A    
O27   C69   1.409497 S    
C70   H60   1.110632 S    
C36   O26   1.381749 S    
C43   C45   1.414482 A    
C67   C68   1.520862 S    
C55   H20   1.113505 S    
C48   C49   1.437535 A    
C68   H55   1.110611 S    
C63   H41   1.113290 S    
C20   C22   1.407001 A    
O3    Cu1   1.971311 S    
C6    N2    1.371143 A    
C32   C34   1.419110 A    
C56   H23   1.112286 S    
Cu1   Cu2   2.689605 S    
C69   H58   1.113376 S    
C65   C66   1.524129 S    
C15   O19   1.381876 S    
O2    C2    1.292926 A    
C1    C46   1.461577 S    
C13   O13   1.384173 S    
C5    C21   1.403053 A    
C52   H11   1.110013 S    
C36   C38   1.396505 A    
C52   H10   1.113855 S    
C35   O25   1.393377 S    
C64   H46   1.109252 S    
C42   C45   1.409131 A    
O22   C61   1.418934 S    
C70   H62   1.112999 S    
C51   H7    1.109852 S    
C42   O28   1.381549 S    
O8    Cu2   1.951928 S    
C11   C27   1.409271 A    
C54   H16   1.108360 S    
C53   H13   1.114288 S    
O14   C52   1.413813 S    
C19   C34   1.417476 A    
O15   C53   1.415923 S    
O20   C58   1.408104 S    
C35   C37   1.410840 A    
C9    C17   1.402492 A    
C23   H1    1.083384 S    
C47   C50   1.438098 A    
C5    N1    1.368048 A    
O13   C51   1.415069 S    
C62   H39   1.108805 S    
C24   H2    1.083450 S    
C54   H17   1.105346 S    
C13   C27   1.407373 A    
C7    C25   1.404141 A    
C29   C33   1.419404 A    
O6    C4    1.301959 A    
C8    C26   1.406056 A    
C55   H19   1.108973 S    
C48   N3    1.368111 A    
C47   N4    1.374483 A    
C58   H29   1.113650 S    
C68   H56   1.110902 S    
C11   O22   1.385855 S    
C49   N4    1.372655 A    
C60   H34   1.110594 S    
C61   C62   1.519777 S    
C6    O10   1.349800 S    
C71   H63   1.107198 S    
Cu1   N3    2.021219 S    
C56   H24   1.108651 S    
C69   H57   1.106810 S    
C65   H48   1.116112 S    
O1    Cu1   1.974220 S    
C41   O27   1.385034 S    
C14   O14   1.382339 S    
O16   C54   1.414795 S    
O23   C63   1.408304 S    
O29   C71   1.408229 S    
C66   H51   1.110294 S    
C47   O15   1.381790 S    
O30   C72   1.411759 S    
C12   C28   1.411510 A    
C61   H37   1.115075 S    
O28   C70   1.411731 S    
N2    C18   1.444402 S    
C60   H35   1.104386 S    
C5    O9    1.349743 S    
C43   O29   1.384757 S    
C30   C31   1.419887 A    
C2    C45   1.461820 S    
C20   C33   1.414478 A    
O6    Cu2   1.950940 S    
C58   H28   1.112478 S    
C21   C23   1.397729 A    
C41   C46   1.416040 A    
C65   H47   1.111389 S    
C10   C12   1.409190 A    
N2    C8    1.372601 A    
C50   N3    1.368164 A    
C53   H15   1.109410 S    
C54   H18   1.112440 S    
C7    O12   1.349736 S    
C60   H33   1.110322 S    
C39   H5    1.074705 S    
C8    O11   1.349658 S    
C22   C24   1.397730 A    
C64   H44   1.113029 S    
C30   C34   1.417338 A    
C59   C60   1.523727 S    
C14   C16   1.406077 A    
C62   H40   1.104524 S    
C15   C17   1.403222 A    
O25   C65   1.417589 S    
C6    C22   1.402124 A    
C31   C40   1.411358 A    
C16   C18   1.407835 A    
C10   O23   1.382109 S    
C72   H67   1.106854 S    
C57   H26   1.113878 S    
C63   H43   1.109069 S    
C48   O16   1.386535 S    
C14   C28   1.410123 A    
O18   C56   1.414021 S    
C72   H68   1.113076 S    
C59   H32   1.113512 S    
C3    C27   1.470849 S    
C58   H30   1.109138 S    
C67   H53   1.114465 S    
C9    C11   1.409464 A    
O4    Cu2   1.971311 S    
O2    Cu2   1.974220 S    
O7    C4    1.299548 A    
O8    C3    1.300601 A    
O4    C1    1.288875 A    
C63   H42   1.113689 S    
C26   C37   1.398704 A    
C67   H52   1.114594 S    
C20   C26   1.401948 A    
C71   H65   1.105530 S    
C68   H54   1.110718 S    
O26   C67   1.412009 S    
C23   C39   1.390108 A    
O24   C64   1.409824 S    
C62   H38   1.110308 S    
C42   C44   1.385016 A    
C61   H36   1.110689 S    
N1    C7    1.368933 A    
C57   H27   1.109192 S    
