data_mof_unit_59824.cif
_audit_creation_date              2012-12-11T14:56:30-0500
_audit_creation_method            fapswitch 2.2
_symmetry_space_group_name_H-M    P1
_symmetry_Int_Tables_number       1
_space_group_crystal_system       triclinic
_cell_length_a                    10.516912
_cell_length_b                    10.678776
_cell_length_c                    17.066867
_cell_angle_alpha                 80.257726
_cell_angle_beta                  89.850568
_cell_angle_gamma                 119.23873
_cell_volume                      1640.2925621

loop_
_atom_site_label
_atom_site_type_symbol
_atom_type_description
_atom_site_fract_x
_atom_site_fract_y
_atom_site_fract_z
_atom_type_partial_charge
C1    C     C_R   0.278676 0.888549 0.132756 0.553554
C2    C     C_R   0.716453 0.263443 0.299995 -0.135466
C3    C     C_R   0.718370 0.254655 0.220816 -0.146912
C4    C     C_R   0.637944 0.300427 0.169790 0.033905
C5    C     C_1   0.685174 0.831707 0.201731 -0.027318
C6    C     C_1   0.703559 0.807337 0.270455 -0.034814
C7    C     C_1   0.227573 0.853964 0.215508 -0.023289
C8    C     C_1   0.178953 0.834631 0.283102 -0.024922
C9    C     C_1   0.661763 0.357918 0.780483 -0.046498
C10   C     C_1   0.684472 0.401934 0.709922 -0.048725
C11   C     C_R   0.624507 0.712954 0.805037 -0.136594
C12   C     C_R   0.633798 0.272539 0.089802 0.555180
C13   C     C_R   0.610390 0.697803 0.726723 -0.138543
C14   C     C_R   0.669822 0.822191 0.665515 0.031236
C15   C     C_R   0.749432 0.962146 0.682937 -0.142855
C16   C     C_R   0.759847 0.977693 0.761971 -0.141212
C17   C     C_R   0.691207 0.852776 0.823055 0.021080
C18   C     C_R   0.082866 0.883688 0.790235 -0.134016
C19   C     C_R   0.066549 0.880318 0.710704 -0.124635
C20   C     C_R   0.113979 0.801838 0.672176 0.031314
C21   C     C_R   0.164974 0.715337 0.715472 -0.137517
C22   C     C_R   0.183023 0.719959 0.795459 -0.123297
C23   C     C_R   0.643524 0.855781 0.124262 0.550100
C24   C     C_R   0.149667 0.811175 0.831474 0.027018
C25   C     C_R   0.711391 0.772527 0.353546 0.562501
C26   C     C_R   0.681616 0.384901 0.399388 0.553836
C27   C     C_R   0.108269 0.812550 0.359932 0.551151
C28   C     C_R   0.677496 0.800096 0.585494 0.542634
C29   C     C_R   0.717348 0.446178 0.625998 0.561237
C30   C     C_R   0.089675 0.798477 0.589529 0.543390
C31   C     C_R   0.216179 0.858035 0.902491 0.555998
C32   C     C_R   0.640290 0.290785 0.861904 0.553237
C33   C     C_R   0.647922 0.866814 0.899665 0.548731
C34   C     C_R   0.545795 0.345189 0.200749 0.062600
C35   C     C_R   0.546968 0.356524 0.280481 -0.112298
C36   C     C_R   0.638193 0.322942 0.328819 0.003636
Cr1   Cr    Cr6+3 0.402240 0.783890 0.019450 1.061554
Cr2   Cr    Cr6+3 0.382360 0.097900 0.991800 1.054180
Cr3   Cr    Cr6+3 0.715380 0.118170 0.988700 1.030742
Cr4   Cr    Cr6+3 0.936650 0.882420 0.465510 1.025341
Cr5   Cr    Cr6+3 0.605770 0.565620 0.493360 1.024069
Cr6   Cr    Cr6+3 0.921340 0.550490 0.496380 1.023054
H1    H     H_    0.018325 0.941079 0.679142 0.149164
H2    H     H_    0.195549 0.649331 0.686947 0.130470
H3    H     H_    0.233495 0.661445 0.826999 0.145643
H4    H     H_    0.484603 0.401439 0.302820 0.158866
H5    H     H_    0.784861 0.233868 0.337108 0.151698
H6    H     H_    0.782849 0.210680 0.199875 0.157057
H7    H     H_    0.572579 0.615564 0.851650 0.139987
H8    H     H_    0.555105 0.588321 0.714102 0.135458
H9    H     H_    0.801665 0.058341 0.635649 0.135416
H10   H     H_    0.811738 0.086882 0.775006 0.147092
H11   H     H_    0.053364 0.951568 0.817682 0.136257
O1    O     O_R   0.521780 0.757110 0.108900 -0.483861
O2    O     O_R   0.513330 0.228330 0.898660 -0.491858
O3    O     O_R   0.739230 0.266130 0.888050 -0.508429
O4    O     O_R   0.712580 0.991850 0.918770 -0.505595
O5    O     O_3   0.499990 0.999980 0.999980 -0.279978
O6    O     O_R   0.083770 0.911170 0.376030 -0.501987
O7    O     O_R   0.808770 0.880340 0.383890 -0.490021
O8    O     O_R   0.584340 0.689460 0.394160 -0.501481
O9    O     O_R   0.614320 0.443940 0.423590 -0.516306
O10   O     O_R   0.805020 0.410040 0.421340 -0.510679
O11   O     O_R   0.049240 0.685450 0.403290 -0.491438
O12   O     O_R   0.275160 0.783810 0.101120 -0.481633
O13   O     O_R   0.077520 0.903010 0.551800 -0.518334
O14   O     O_R   0.802980 0.872780 0.546830 -0.506892
O15   O     O_R   0.578090 0.681300 0.569920 -0.521718
O16   O     O_R   0.608530 0.436370 0.586530 -0.493089
O17   O     O_R   0.798770 0.401880 0.597100 -0.506862
O18   O     O_R   0.043450 0.677890 0.566230 -0.516774
O19   O     O_3   0.821250 0.666180 0.485090 -0.296944
O20   O     O_R   0.237900 0.972600 0.090980 -0.490642
O21   O     O_R   0.511190 0.220540 0.061620 -0.488652
O22   O     O_R   0.736920 0.257720 0.063840 -0.521383
O23   O     O_R   0.710450 0.984050 0.081720 -0.505339
O24   O     O_R   0.524090 0.765520 0.933110 -0.507102
O25   O     O_R   0.277300 0.791600 0.938160 -0.499395
O26   O     O_R   0.240210 0.981010 0.915190 -0.512608
I1    I     I_    0.408171 0.404578 0.132173 -0.320474

loop_
_geom_bond_atom_site_label_1
_geom_bond_atom_site_label_2
_ccdc_geom_bond_type
Cr4   O7    S    
C12   O21   A    
C19   C20   A    
Cr5   O8    S    
C23   O23   A    
C30   O18   A    
C7    C8    T    
C20   C30   S    
C23   O1    A    
C18   C24   A    
C28   O15   A    
C34   C35   A    
C5    C6    T    
C6    C25   S    
Cr2   O26   S    
C15   C16   A    
Cr3   O4    S    
C3    H6    S    
Cr6   O17   S    
C18   C19   A    
C9    C32   S    
C34   I1    S    
Cr2   O5    S    
Cr2   O2    S    
C35   C36   A    
C16   C17   A    
Cr4   O14   S    
Cr1   O12   S    
C1    O12   A    
C25   O7    A    
C15   H9    S    
C4    C12   S    
C9    C10   T    
C32   O2    A    
Cr1   O5    S    
C18   H11   S    
Cr4   O6    S    
Cr4   O13   S    
C21   C22   A    
C17   C33   S    
Cr5   O9    S    
C19   H1    S    
Cr5   O15   S    
C29   O16   A    
C4    C34   A    
C28   O14   A    
Cr3   O5    S    
Cr1   O24   S    
C26   O10   A    
C11   H7    S    
C21   H2    S    
Cr3   O3    S    
C5    C23   S    
Cr6   O19   S    
C25   O8    A    
Cr3   O23   S    
C30   O13   A    
Cr5   O19   S    
Cr1   O1    S    
C26   C36   S    
Cr3   O22   S    
C22   C24   A    
C3    C4    A    
Cr6   O11   S    
C31   O25   A    
Cr5   O16   S    
C29   O17   A    
Cr2   O21   S    
C2    C36   A    
C11   C17   A    
C33   O4    A    
Cr4   O19   S    
C1    C7    S    
C16   H10   S    
C31   O26   A    
C2    H5    S    
Cr1   O25   S    
C1    O20   A    
C2    C3    A    
C26   O9    A    
C24   C31   S    
C27   O6    A    
C11   C13   A    
C10   C29   S    
C33   O24   A    
Cr6   O18   S    
C27   O11   A    
C13   H8    S    
C22   H3    S    
C20   C21   A    
C12   O22   A    
C8    C27   S    
C14   C15   A    
C14   C28   S    
C13   C14   A    
C35   H4    S    
Cr6   O10   S    
C32   O3    A    
Cr2   O20   S    
