data_mof_unit_14333.cif
_audit_creation_date              2012-12-11T14:52:47-0500
_audit_creation_method            fapswitch 2.2
_symmetry_space_group_name_H-M    P1
_symmetry_Int_Tables_number       1
_space_group_crystal_system       triclinic
_cell_length_a                    20.627966
_cell_length_b                    7.256154
_cell_length_c                    20.315788
_cell_angle_alpha                 89.999731
_cell_angle_beta                  101.477612
_cell_angle_gamma                 89.999851
_cell_volume                      2980.05149077

loop_
_atom_site_label
_atom_site_type_symbol
_atom_type_description
_atom_site_fract_x
_atom_site_fract_y
_atom_site_fract_z
_atom_type_partial_charge
O1    O     O_R   0.673670 0.377510 0.185950 -0.534313
O2    O     O_R   0.326330 0.622490 0.814050 -0.534075
O3    O     O_R   0.826330 0.877510 0.314050 -0.534313
O4    O     O_R   0.173670 0.122490 0.685950 -0.534074
O5    O     O_R   0.806260 0.705340 0.185590 -0.527530
O6    O     O_R   0.193740 0.294660 0.814410 -0.527431
O7    O     O_R   0.693740 0.205340 0.314410 -0.527530
O8    O     O_R   0.306260 0.794660 0.685590 -0.527431
C1    C     C_R   0.825579 0.538514 0.170762 0.712994
C2    C     C_R   0.174423 0.461487 0.829240 0.712641
C3    C     C_R   0.674421 0.038514 0.329238 0.712994
C4    C     C_R   0.325577 0.961487 0.670760 0.712642
O9    O     O_R   0.672940 0.707120 0.178050 -0.544099
O10   O     O_R   0.327060 0.292880 0.821950 -0.544693
O11   O     O_R   0.827060 0.207120 0.321950 -0.544098
O12   O     O_R   0.172940 0.792880 0.678050 -0.544692
O13   O     O_R   0.692060 0.879040 0.306460 -0.533857
O14   O     O_R   0.307940 0.120960 0.693540 -0.533208
O15   O     O_R   0.807940 0.379040 0.193540 -0.533857
O16   O     O_R   0.192060 0.620960 0.806460 -0.533209
C5    C     C_R   0.648785 0.540122 0.160868 0.696983
C6    C     C_R   0.351214 0.459878 0.839133 0.697113
C7    C     C_R   0.851214 0.040121 0.339132 0.696982
C8    C     C_R   0.148786 0.959879 0.660867 0.697111
O17   O     O_3   0.756430 0.544390 0.292140 -0.376810
O18   O     O_3   0.243570 0.455610 0.707860 -0.376909
O19   O     O_3   0.743570 0.044390 0.207860 -0.376811
O20   O     O_3   0.256430 0.955610 0.792140 -0.376910
V1    V     V_3+5 0.748810 0.818610 0.242180 1.469922
V2    V     V_3+5 0.251190 0.181390 0.757820 1.473887
V3    V     V_3+5 0.751190 0.318610 0.257820 1.469922
V4    V     V_3+5 0.248810 0.681390 0.742180 1.473887
C9    C     C_R   0.088199 0.956441 0.606534 -0.059822
C10   C     C_R   0.911802 0.043558 0.393464 -0.059822
C11   C     C_R   0.411800 0.456437 0.893467 -0.059822
C12   C     C_R   0.588199 0.543562 0.106535 -0.059822
C13   C     C_R   0.004659 0.222005 0.456437 -0.172096
C14   C     C_R   0.995343 0.777993 0.543560 -0.168737
C15   C     C_R   0.495346 0.722018 0.043556 -0.172101
C16   C     C_R   0.504652 0.277980 0.956447 -0.168742
C17   C     C_R   0.951700 0.203369 0.402007 -0.130387
C18   C     C_R   0.048301 0.796629 0.597990 -0.126334
C19   C     C_R   0.548304 0.703381 0.097987 -0.130387
C20   C     C_R   0.451694 0.296617 0.902016 -0.126336
C21   C     C_R   0.927408 0.899889 0.440386 -0.214060
C22   C     C_R   0.072593 0.100110 0.559612 -0.215162
C23   C     C_R   0.572589 0.399884 0.059617 -0.214058
C24   C     C_R   0.427409 0.600114 0.940385 -0.215159
C25   C     C_R   0.980609 0.918609 0.495830 0.152715
C26   C     C_R   0.019393 0.081389 0.504168 0.154043
C27   C     C_R   0.519389 0.418605 0.004173 0.152719
C28   C     C_R   0.480609 0.581393 0.995830 0.154047
H1    H     H_    0.102958 0.223226 0.564930 0.126392
H2    H     H_    0.897043 0.776773 0.435069 0.127239
H3    H     H_    0.397047 0.723237 0.935063 0.126391
H4    H     H_    0.602951 0.276762 0.064939 0.127239
H5    H     H_    0.058537 0.683477 0.633312 0.140636
H6    H     H_    0.941464 0.316521 0.366686 0.139045
H7    H     H_    0.441456 0.183458 0.866698 0.140636
H8    H     H_    0.558542 0.816540 0.133305 0.139044
H9    H     H_    0.033709 0.347522 0.461470 0.129060
H10   H     H_    0.966293 0.652476 0.538527 0.131619
H11   H     H_    0.466299 0.847541 0.038519 0.129055
H12   H     H_    0.533699 0.152456 0.961484 0.131613
C29   C     C_3   0.559339 0.056869 0.534690 -0.232391
C30   C     C_3   0.440563 0.943441 0.465221 -0.215272
C31   C     C_3   0.940661 0.556873 0.965309 -0.232396
C32   C     C_3   0.059436 0.443435 0.034778 -0.215256
C33   C     C_3   0.521615 0.882137 0.548872 0.477724
C34   C     C_3   0.478324 0.118151 0.451068 0.531103
C35   C     C_3   0.978383 0.382140 0.951127 0.477722
C36   C     C_3   0.021676 0.618147 0.048932 0.531103
H13   H     H_    0.608258 0.101583 0.563573 0.196897
H14   H     H_    0.391640 0.898805 0.436325 0.181500
H15   H     H_    0.891742 0.601591 0.936427 0.196897
H16   H     H_    0.108359 0.398795 0.063674 0.181507
H17   H     H_    0.511934 0.692931 0.452745 0.207902
H18   H     H_    0.487671 0.307207 0.547012 0.213763
H19   H     H_    0.988063 0.192928 0.047253 0.207912
H20   H     H_    0.012330 0.807209 0.952989 0.213761
C37   C     C_1   0.371011 0.971005 0.624771 -0.120447
C38   C     C_1   0.628968 0.029014 0.375207 -0.122692
C39   C     C_1   0.128989 0.471004 0.875228 -0.120449
C40   C     C_1   0.871031 0.529014 0.124793 -0.122693
C41   C     C_3   0.493674 0.168251 0.526404 -0.247770
C42   C     C_3   0.506233 0.831908 0.473525 -0.278767
C43   C     C_3   0.006327 0.668251 0.973596 -0.247768
C44   C     C_3   0.993765 0.331906 0.026474 -0.278737
C45   C     C_3   0.456923 0.991710 0.540812 -0.016490
C46   C     C_3   0.543000 0.008510 0.459111 -0.035705
C47   C     C_3   0.043076 0.491709 0.959187 -0.016500
C48   C     C_3   0.956999 0.508510 0.040888 -0.035714
C49   C     C_1   0.409486 0.980428 0.586744 0.118516
C50   C     C_1   0.590469 0.019657 0.413211 0.112201
C51   C     C_1   0.090513 0.480427 0.913256 0.118518
C52   C     C_1   0.909531 0.519657 0.086789 0.112203
S1    S     S_3+6 0.551136 0.723580 0.615020 0.059314
O21   O     O_2   0.576662 0.828891 0.678553 -0.266647
O22   O     O_2   0.495779 0.599619 0.625633 -0.339885
O23   O     O_3   0.612766 0.596262 0.595548 -0.460085
H21   H     H_    0.592164 0.526180 0.554907 0.326855
S2    S     S_3+6 0.449115 0.278750 0.385586 0.008490
O24   O     O_2   0.505777 0.396103 0.373880 -0.356575
O25   O     O_2   0.420195 0.176174 0.322306 -0.300309
O26   O     O_3   0.390776 0.412790 0.408246 -0.500124
H22   H     H_    0.383724 0.514270 0.374970 0.373940
S3    S     S_3+6 0.948862 0.223587 0.884978 0.059314
O27   O     O_2   0.923335 0.328902 0.821446 -0.266647
O28   O     O_2   0.004219 0.099626 0.874365 -0.339886
O29   O     O_3   0.887231 0.096269 0.904451 -0.460086
H23   H     H_    0.907835 0.026174 0.945088 0.326857
S4    S     S_3+6 0.050886 0.778739 0.114415 0.008484
O30   O     O_2   0.994226 0.896101 0.126120 -0.356559
O31   O     O_2   0.079802 0.676155 0.177695 -0.300328
O32   O     O_3   0.109228 0.912771 0.091757 -0.500130
H24   H     H_    0.116307 0.014195 0.125056 0.373952

loop_
_geom_bond_atom_site_label_1
_geom_bond_atom_site_label_2
_ccdc_geom_bond_type
O17   V3    S    
C24   H3    S    
C36   S4    S    
O1    C5    A    
C38   C50   T    
C43   C47   S    
O19   V1    S    
O13   V1    S    
O3    C7    A    
O1    V3    S    
O15   V3    S    
C36   C43   S    
S4    O31   D    
S1    O21   D    
C5    C12   S    
O7    C3    A    
C6    C11   S    
C12   C23   A    
C9    C18   A    
O9    V1    S    
C17   H6    S    
C14   C18   A    
H20   C43   S    
C35   S3    S    
O4    C8    A    
C20   H7    S    
O32   H24   S    
C30   H14   S    
C2    C39   S    
C48   C52   S    
C32   C47   S    
C29   H13   S    
S2    O26   S    
O2    V4    S    
C40   C52   T    
O3    V1    S    
O29   H23   S    
H19   C44   S    
C1    O15   A    
C36   C48   S    
C44   C48   S    
C2    O16   A    
O2    C6    A    
S3    O27   D    
O14   V2    S    
C32   C36   S    
O11   C7    A    
C15   C28   A    
O12   C8    A    
C45   C49   S    
C9    C22   A    
S3    O28   D    
C34   C46   S    
C10   C17   A    
O10   V2    S    
C33   C45   S    
C11   C24   A    
C18   H5    S    
S4    O30   D    
S1    O22   D    
C46   C50   S    
C30   C45   S    
O5    V1    S    
C3    C38   S    
C29   C46   S    
O7    V3    S    
C27   C28   A    
O8    V4    S    
C42   C46   S    
C14   C25   A    
C41   C45   S    
O18   V4    S    
C15   C19   A    
O11   V3    S    
O5    C1    A    
C37   C49   T    
C13   H9    S    
C21   C25   A    
O8    C4    A    
C7    C10   S    
C39   C51   T    
O9    C5    A    
C10   C21   A    
C32   H16   S    
S2    O25   D    
C11   C20   A    
C19   H8    S    
H18   C41   S    
O6    V2    S    
H17   C42   S    
C32   C44   S    
S3    O29   S    
C31   H15   S    
C30   C42   S    
S1    O23   S    
C31   C48   S    
O16   V4    S    
C3    O13   A    
C21   H2    S    
O6    C2    A    
C23   C27   A    
C34   S2    S    
C29   C41   S    
O12   V4    S    
C16   C27   A    
C15   H11   S    
O26   H22   S    
C22   C26   A    
C31   C43   S    
C8    C9    S    
C16   H12   S    
O10   C6    A    
O20   V2    S    
C13   C26   A    
C30   C34   S    
C29   C33   S    
C22   H1    S    
O23   H21   S    
C4    C37   S    
C31   C35   S    
C13   C17   A    
S2    O24   D    
C1    C40   S    
C47   C51   S    
C35   C44   S    
C16   C20   A    
C35   C47   S    
C25   C26   A    
C4    O14   A    
C12   C19   A    
C24   C28   A    
C34   C41   S    
S4    O32   S    
O4    V2    S    
C33   C42   S    
C23   H4    S    
C14   H10   S    
C33   S1    S    
