data_mof_unit_68399.cif
_audit_creation_date              2013-03-05T15:53:54-0500
_audit_creation_method            fapswitch 2.2
_symmetry_space_group_name_H-M    P1
_symmetry_Int_Tables_number       1
_space_group_crystal_system       triclinic
_cell_length_a                    8.43069
_cell_length_b                    14.497644
_cell_length_c                    16.47819
_cell_angle_alpha                 94.128573
_cell_angle_beta                  93.054713
_cell_angle_gamma                 91.620056
_cell_volume                      2004.92571055

loop_
_atom_site_label
_atom_site_type_symbol
_atom_site_description
_atom_site_fract_x
_atom_site_fract_y
_atom_site_fract_z
_atom_type_partial_charge
P1    P     P_3+3 0.934880 0.713230 0.554140 0.589813
O1    O     O_2   0.106830 0.727750 0.529310 -0.270132
O2    O     O_3   0.863420 0.611560 0.536200 -0.398959
O3    O     O_3   0.352370 0.670610 0.385960 -0.382767
O4    O     O_2   0.243128 0.833316 0.436270 -0.298531
O5    O     O_3   0.932523 0.746866 0.659083 -0.606207
O6    O     O_3   0.331273 0.822470 0.286752 -0.490231
C1    C     C_3   0.352207 0.785417 0.143819 -0.111974
H1    H     H_    0.242725 0.825048 0.138073 0.190047
P2    P     P_3+3 0.367500 0.426600 0.319160 0.640444
P3    P     P_3+3 0.903366 0.618083 0.241638 0.682876
O7    O     O_2   0.193140 0.454660 0.305430 -0.424332
O8    O     O_3   0.941260 0.623660 0.347470 -0.322406
O9    O     O_2   0.027337 0.551837 0.207104 -0.231413
O10   O     O_3   0.376239 0.306725 0.291577 -0.559489
O11   O     O_3   0.958712 0.725534 0.206404 -0.500116
C2    C     C_3   0.829533 0.785081 0.212250 0.978230
H2    H     H_    0.719994 0.750896 0.182720 -0.158934
C3    C     C_3   0.860170 0.873794 0.166500 0.361144
C4    C     C_3   0.888827 0.324209 0.290244 0.477435
H3    H     H_    0.975643 0.374490 0.318532 0.046805
C5    C     C_3   0.942563 0.287147 0.206387 0.508297
H4    H     H_    0.904761 0.213322 0.193117 0.153053
H5    H     H_    0.072640 0.294162 0.205905 0.002923
Ba1   Ba    Ba6+2 0.152520 0.545410 0.458840 1.789640
C6    C     C_3   0.037980 0.701921 0.710782 1.068618
C7    C     C_3   0.941210 0.640269 0.761865 0.309316
H6    H     H_    0.016248 0.614676 0.812273 0.049073
H7    H     H_    0.894455 0.580302 0.721855 0.085228
C8    C     C_3   0.275655 0.248274 0.330725 0.542130
H8    H     H_    0.162642 0.279934 0.342208 -0.129055
C9    C     C_3   0.249717 0.158622 0.275275 0.475391
H9    H     H_    0.211063 0.171964 0.212127 0.071444
H10   H     H_    0.362553 0.121263 0.271270 0.179199
P4    P     P_3+3 0.875420 0.286760 0.445790 0.597636
O12   O     O_2   0.703470 0.272190 0.470670 -0.248615
O13   O     O_3   0.946880 0.388430 0.463740 -0.402951
O14   O     O_3   0.457930 0.329380 0.613970 -0.298826
O15   O     O_3   0.864415 0.251978 0.340249 -0.570838
P5    P     P_3+3 0.889957 0.380257 0.759552 0.622221
O16   O     O_3   0.367050 0.547540 0.594170 -0.366033
O17   O     O_3   0.869040 0.376330 0.652460 -0.374463
O18   O     O_2   0.764568 0.447989 0.790611 -0.276337
O19   O     O_3   0.819441 0.274010 0.792391 -0.478646
Ba2   Ba    Ba6+2 0.657660 0.454590 0.541090 1.787238
P6    P     P_3+3 0.375095 0.789902 0.385716 0.631698
C10   C     C_3   0.369950 0.751023 0.229517 1.105657
H11   H     H_    0.493744 0.730253 0.241294 -0.169252
H12   H     H_    0.453123 0.832962 0.133814 0.144931
O20   O     O_3   0.443250 0.452450 0.405760 -0.301834
C11   C     C_3   0.504473 0.736158 0.643043 0.262966
H13   H     H_    0.613929 0.704003 0.621333 -0.025787
H14   H     H_    0.408441 0.727388 0.593970 0.103526
C12   C     C_3   0.540131 0.839186 0.662333 0.642713
H15   H     H_    0.636829 0.849837 0.710871 0.134767
H16   H     H_    0.578368 0.871214 0.607205 -0.144590
P7    P     P_3+3 0.440672 0.576734 0.695001 0.613137
O21   O     O_2   0.617170 0.545280 0.694550 -0.346507
O22   O     O_3   0.456439 0.697101 0.713723 -0.453837
C13   C     C_3   0.945397 0.217175 0.815680 0.354003
H17   H     H_    0.061713 0.254621 0.818801 -0.050175
C14   C     C_3   0.924125 0.185948 0.903151 1.322241
P8    P     P_3+3 0.432215 0.210001 0.619637 0.638544
C15   C     C_3   0.404743 0.229195 0.773864 1.050745
H18   H     H_    0.276899 0.219269 0.755423 -0.158947
O23   O     O_2   0.555636 0.164849 0.564273 -0.289758
O24   O     O_3   0.499204 0.183642 0.717032 -0.507157
H19   H     H_    0.354598 0.224995 0.900799 0.157720
C16   C     C_3   0.434577 0.191123 0.857038 -0.128084
H20   H     H_    0.558391 0.209485 0.879475 0.179561
C17   C     C_R   0.001608 0.942558 0.546336 0.837487
C18   C     C_R   0.822797 0.802511 0.499449 0.345127
C19   C     C_R   0.678262 0.770838 0.460102 -0.542561
C20   C     C_R   0.572484 0.832004 0.427466 0.050802
C21   C     C_R   0.615270 0.924957 0.426108 0.848784
C22   C     C_R   0.763853 0.960432 0.460432 -0.314657
C23   C     C_R   0.864614 0.900884 0.503248 -0.285515
H21   H     H_    0.643144 0.698362 0.459060 0.160742
C24   C     C_R   0.942746 0.097469 0.498895 -0.164566
C25   C     C_R   0.040337 0.038468 0.544615 -0.083821
C26   C     C_R   0.984066 0.196256 0.503248 0.243429
C27   C     C_R   0.120773 0.228742 0.550449 -0.334293
C28   C     C_R   0.226442 0.168067 0.585419 0.157519
C29   C     C_R   0.183600 0.074418 0.584581 -0.002369
C30   C     C_R   0.812105 0.053883 0.450614 0.410554
H22   H     H_    0.266018 0.029159 0.613301 0.212685
H23   H     H_    0.153005 0.301728 0.553836 0.145012
C31   C     C_R   0.589554 0.555492 0.261046 -0.403468
C32   C     C_R   0.460268 0.493886 0.239613 0.302611
C33   C     C_R   0.422407 0.468883 0.155929 0.188868
C34   C     C_R   0.518963 0.502497 0.095722 0.029465
C35   C     C_R   0.666211 0.546988 0.120412 0.222314
C36   C     C_R   0.702178 0.572933 0.203909 -0.015592
C37   C     C_R   0.380851 0.518565 0.850867 -0.220099
C38   C     C_R   0.330263 0.514053 0.768419 0.366685
C39   C     C_R   0.287104 0.476819 0.907455 0.056035
N1    N     N_2   0.476364 0.490705 0.010081 0.024071
N2    N     N_2   0.330424 0.482804 0.992507 0.065810
C40   C     C_R   0.188587 0.465760 0.741669 -0.499146
H24   H     H_    0.490315 0.556308 0.870878 0.220629
C41   C     C_R   0.089692 0.428407 0.797409 -0.092961
C42   C     C_R   0.139089 0.435031 0.880503 0.702794
H25   H     H_    0.616540 0.577535 0.324560 0.181075
H26   H     H_    0.150235 0.462352 0.677772 0.196430
F1    F     F_    0.268816 0.675273 0.233908 -0.642786
F2    F     F_    0.882132 0.337318 0.143938 -0.547118
N3    N     N_R   0.128714 0.771271 0.765089 0.265207
O25   O     O_R   0.228964 0.745478 0.821220 -0.309353
O26   O     O_R   0.100082 0.858828 0.762787 -0.158882
F3    F     F_    0.140545 0.648132 0.667869 -0.758736
F4    F     F_    0.816952 0.687968 0.794738 -0.595513
N4    N     N_R   0.349291 0.227706 0.408395 0.224914
O27   O     O_R   0.389314 0.295736 0.461174 -0.355788
O28   O     O_R   0.350730 0.143375 0.430569 -0.331136
N5    N     N_R   0.344309 0.709036 0.080935 0.247267
O29   O     O_R   0.452195 0.703230 0.027420 -0.316512
O30   O     O_R   0.216575 0.656212 0.069761 -0.253751
F5    F     F_    0.137870 0.102115 0.306540 -0.599871
F6    F     F_    0.405651 0.882174 0.688195 -0.562398
N6    N     N_R   0.730983 0.939284 0.176411 0.241950
O31   O     O_R   0.727366 0.011671 0.134046 -0.219184
O32   O     O_R   0.626253 0.930593 0.230813 -0.361347
N7    N     N_R   0.953217 0.138193 0.755583 0.200089
O33   O     O_R   0.072123 0.083124 0.759258 -0.351270
O34   O     O_R   0.844454 0.123758 0.696614 -0.337903
N8    N     N_R   0.824496 0.101573 0.905172 0.203356
O35   O     O_R   0.871054 0.023380 0.872222 -0.231024
O36   O     O_R   0.716248 0.098941 0.958452 -0.260044
F7    F     F_    0.071628 0.170502 0.939482 -0.636267
F8    F     F_    0.858142 0.257024 0.949616 -0.567471
F9    F     F_    0.445205 0.322588 0.781149 -0.712923
F10   F     F_    0.805974 0.808100 0.293677 -0.704890
N9    N     N_R   0.408814 0.090633 0.852810 0.291831
O37   O     O_R   0.499327 0.036949 0.810215 -0.232572
O38   O     O_R   0.308380 0.053779 0.899256 -0.159523
F11   F     F_    0.505572 0.980813 0.394627 -0.595766
F12   F     F_    0.097306 0.892021 0.593152 -0.628198
N10   N     N_R   0.763016 0.090242 0.375333 0.283028
O39   O     O_R   0.836869 0.065340 0.310630 -0.242802
O40   O     O_R   0.629219 0.131350 0.366667 -0.261914
N11   N     N_R   0.780312 0.561088 0.060308 0.284760
O41   O     O_R   0.802025 0.496138 0.003713 -0.205264
O42   O     O_R   0.851780 0.641079 0.056820 -0.282450
N12   N     N_R   0.302943 0.398553 0.132660 0.243044
O43   O     O_R   0.345788 0.316020 0.108471 -0.301461
O44   O     O_R   0.158385 0.422221 0.115456 -0.235001
F13   F     F_    0.044108 0.400987 0.935607 -0.554312
N13   N     N_R   0.009695 0.921446 0.197809 0.245888
O45   O     O_R   0.058575 0.917003 0.273632 -0.230754
O46   O     O_R   0.072038 0.985505 0.156830 -0.268473
N14   N     N_R   0.867292 0.845954 0.079055 0.240161
O47   O     O_R   0.002233 0.839686 0.044556 -0.240155
O48   O     O_R   0.736657 0.825023 0.035109 -0.249736
N15   N     N_R   0.744162 0.370581 0.281411 0.211814
O49   O     O_R   0.634928 0.334764 0.229003 -0.347990
O50   O     O_R   0.707441 0.421388 0.345048 -0.415880

loop_
_geom_bond_atom_site_label_1
_geom_bond_atom_site_label_2
_geom_bond_distance
_ccdc_geom_bond_type
C41   C42   1.405527 A    
C39   C42   1.407448 A    
C7    H7    1.102835 S    
C17   C23   1.419306 A    
C19   C20   1.390354 A    
C14   F8    1.386248 S    
P4    O12   1.540358 D    
P6    C20   1.837191 S    
C25   C29   1.412214 A    
N4    O28   1.301192 A    
N1    N2    1.249034 D    
P4    C26   1.900373 S    
N7    O33   1.300668 A    
C17   F12   1.353262 S    
O3    P6    1.734967 S    
C6    C7    1.520962 S    
N8    O35   1.301223 A    
C4    N15   1.414987 S    
P4    O13   1.578312 S    
C29   H22   1.082943 S    
P2    O10   1.769009 S    
N11   O42   1.298066 A    
C8    H8    1.088902 S    
P3    O9    1.542730 D    
C38   C40   1.401182 A    
N7    O34   1.301412 A    
N5    O29   1.300430 A    
C13   C14   1.559339 S    
P1    O1    1.539996 D    
Ba1   O20   2.972294 S    
C17   C25   1.421906 A    
O14   Ba2   2.815909 S    
C1    N5    1.458647 S    
Ba1   O13   2.830181 S    
P5    C41   1.863019 S    
C31   C36   1.402824 A    
P5    O18   1.545206 D    
C28   C29   1.393923 A    
P2    C32   1.879264 S    
N14   O47   1.301158 A    
C1    H1    1.104321 S    
C10   F1    1.379609 S    
C39   N2    1.425230 S    
C3    N14   1.472980 S    
N3    O25   1.301543 A    
C6    F3    1.371035 S    
N15   O50   1.293941 A    
P3    C36   1.859614 S    
P5    O17   1.760747 S    
C40   H26   1.082097 S    
P8    O23   1.548278 D    
C7    F4    1.384398 S    
C12   F6    1.381525 S    
C2    F10   1.385238 S    
P1    Ba1   3.429520 S    
N3    O26   1.301648 A    
C14   F7    1.382271 S    
O8    Ba1   2.809393 S    
C16   H20   1.107313 S    
N4    O27   1.292044 A    
C34   N1    1.434400 S    
N6    O32   1.301309 A    
O3    Ba1   2.816423 S    
C12   H16   1.108258 S    
P8    O24   1.744878 S    
Ba2   O21   2.806848 S    
P1    C18   1.877982 S    
C20   C21   1.387212 A    
P1    O5    1.763911 S    
C15   O24   1.402686 S    
O2    Ba1   2.961838 S    
C9    F5    1.376426 S    
N13   O45   1.301247 A    
N12   O44   1.297775 A    
Ba1   O16   2.793217 S    
C34   C35   1.409165 A    
C24   C26   1.460118 A    
C4    O15   1.395714 S    
C21   F11   1.353460 S    
H19   C16   1.111456 S    
N5    O30   1.300768 A    
C5    F2    1.385781 S    
O2    Ba2   2.830644 S    
C26   C27   1.405745 A    
C11   H13   1.110104 S    
P8    C28   1.866501 S    
C13   H17   1.104307 S    
C11   H14   1.111361 S    
O17   Ba2   2.810078 S    
C9    H10   1.110553 S    
C13   N7    1.464287 S    
P4    O15   1.772378 S    
C21   C22   1.414123 A    
O6    P6    1.753636 S    
C18   C23   1.455532 A    
C42   F13   1.352387 S    
P3    O11   1.760541 S    
C10   H11   1.105514 S    
C15   F9    1.382078 S    
C37   H24   1.082985 S    
C19   H21   1.082246 S    
C4    H3    1.081169 S    
C2    H2    1.107571 S    
O5    C6    1.404543 S    
O12   Ba2   2.855178 S    
C15   C16   1.525247 S    
C22   C23   1.424771 A    
C37   C39   1.411797 A    
C35   N11   1.437915 S    
N15   O49   1.298902 A    
P2    O7    1.545678 D    
P2    Ba1   3.405841 S    
C40   C41   1.399913 A    
C4    C5    1.541724 S    
C3    N6    1.472906 S    
N9    O37   1.301030 A    
C5    H5    1.098982 S    
C11   O22   1.404767 S    
O13   Ba2   2.962673 S    
P4    Ba2   3.430205 S    
Ba1   Ba2   4.639530 S    
C24   C30   1.428349 A    
C31   H25   1.082411 S    
N6    O31   1.301778 A    
O10   C8    1.396316 S    
C14   N8    1.467544 S    
O14   P8    1.747946 S    
C12   H15   1.110743 S    
N8    O36   1.301284 A    
C1    H12   1.106473 S    
N13   O46   1.302015 A    
C18   C19   1.399037 A    
C6    N3    1.466568 S    
N10   O40   1.296552 A    
C16   N9    1.463011 S    
O4    P6    1.546220 D    
C3    N13   1.470595 S    
O7    Ba1   2.806680 S    
N12   O43   1.300829 A    
C11   C12   1.522669 S    
C15   H18   1.106684 S    
C32   C33   1.417521 A    
C1    C10   1.532404 S    
O16   P7    1.760393 S    
N11   O41   1.300529 A    
C9    H9    1.105799 S    
C8    C9    1.537420 S    
P3    O8    1.751774 S    
C33   C34   1.420446 A    
O11   C2    1.411732 S    
Ba2   O20   2.792595 S    
O19   C13   1.416129 S    
C30   N10   1.428191 S    
C35   C36   1.414595 A    
C2    C3    1.559092 S    
O1    Ba1   2.854496 S    
N14   O48   1.301496 A    
C37   C38   1.398507 A    
P7    O22   1.750133 S    
N10   O39   1.297239 A    
C24   C25   1.429241 A    
P5    O19   1.766746 S    
C31   C32   1.403206 A    
C27   C28   1.400730 A    
P7    C38   1.840197 S    
C8    N4    1.446753 S    
C7    H6    1.108822 S    
N9    O38   1.300209 A    
O16   Ba2   2.971367 S    
C5    H4    1.111079 S    
P1    O2    1.578297 S    
P7    O21   1.568822 D    
C22   C30   1.426397 A    
C33   N12   1.430217 S    
C27   H23   1.081771 S    
O6    C10   1.407115 S    
P2    O20   1.548220 S    
