data_mof_unit_66786.cif
_audit_creation_date              2012-12-11T14:22:51-0500
_audit_creation_method            fapswitch 2.2
_symmetry_space_group_name_H-M    P1
_symmetry_Int_Tables_number       1
_space_group_crystal_system       triclinic
_cell_length_a                    8.518989
_cell_length_b                    14.576139
_cell_length_c                    15.065528
_cell_angle_alpha                 94.680986
_cell_angle_beta                  98.817375
_cell_angle_gamma                 91.883515
_cell_volume                      1840.51512567

loop_
_atom_site_label
_atom_site_type_symbol
_atom_type_description
_atom_site_fract_x
_atom_site_fract_y
_atom_site_fract_z
_atom_type_partial_charge
Ba1   Ba    Ba6+2 0.142880 0.544780 0.454020 1.818396
Ba2   Ba    Ba6+2 0.667290 0.455210 0.545900 1.852543
C1    C     C_3   0.190963 0.917691 0.190767 0.276436
C2    C     C_3   0.208101 0.816395 0.209961 0.423894
C3    C     C_3   0.557882 0.746757 0.670017 0.370052
C4    C     C_3   0.615286 0.847841 0.703807 0.433287
C5    C     C_3   0.025454 0.227389 0.842285 0.506714
C6    C     C_3   0.965559 0.134882 0.872272 -0.012876
C7    C     C_3   0.481140 0.201833 0.802800 0.634111
C8    C     C_3   0.560575 0.163501 0.889755 -0.107218
C9    C     C_R   0.011068 0.943444 0.553373 0.024933
C10   C     C_R   0.823476 0.803558 0.502685 0.048029
C11   C     C_R   0.674080 0.772188 0.454879 0.038251
C12   C     C_3   0.736231 0.779255 0.204486 0.665601
C13   C     C_R   0.552588 0.832570 0.434402 0.004741
C14   C     C_R   0.585651 0.927009 0.452057 0.322721
C15   C     C_R   0.744388 0.962344 0.478617 -0.009411
C16   C     C_R   0.861730 0.902135 0.513140 -0.121051
C17   C     C_R   0.934911 0.099046 0.507999 -0.118635
C18   C     C_R   0.046167 0.040251 0.553876 -0.013451
C19   C     C_R   0.978335 0.197722 0.509435 0.076884
C20   C     C_R   0.126475 0.230918 0.559523 -0.094852
C21   C     C_R   0.241657 0.170015 0.594354 -0.009477
C22   C     C_R   0.198258 0.076614 0.593930 -0.058591
C23   C     C_3   0.636255 0.811007 0.120712 -0.191615
C24   C     C_R   0.787863 0.054483 0.464270 0.490833
C25   C     C_R   0.231404 0.485161 0.770195 -0.215827
C26   C     C_R   0.140988 0.452652 0.831999 0.058870
C27   C     C_R   0.197778 0.469209 0.924517 -0.030371
C28   C     C_R   0.352075 0.509804 0.956221 0.054096
C29   C     C_R   0.440525 0.540915 0.890752 -0.042511
C30   C     C_R   0.380900 0.529068 0.798924 0.042136
C31   C     C_R   0.576279 0.558508 0.085465 -0.144154
C32   C     C_R   0.645899 0.561820 0.175341 0.021146
C33   C     C_R   0.411630 0.485209 0.212578 0.085043
C34   C     C_3   0.794896 0.293652 0.249930 0.917428
C35   C     C_R   0.341353 0.479956 0.121474 -0.083383
C36   C     C_R   0.422050 0.517453 0.055436 0.016955
C37   C     C_R   0.562272 0.526191 0.237822 -0.149588
C38   C     C_3   0.852161 0.250604 0.163033 0.097848
C39   C     C_3   0.066043 0.688514 0.729820 0.764941
C40   C     C_3   0.205724 0.746012 0.783646 0.315497
C41   C     C_3   0.336891 0.242151 0.323383 0.467880
C42   C     C_3   0.326491 0.147698 0.267688 -0.258238
H1    H     H_    0.111372 0.795456 0.246233 0.139193
H2    H     H_    0.783390 0.278449 0.102509 0.103597
H3    H     H_    0.110635 0.630955 0.689357 -0.241649
H4    H     H_    0.284598 0.702252 0.825621 -0.013690
H5    H     H_    0.267408 0.776957 0.733969 0.000283
H6    H     H_    0.459147 0.259259 0.358125 0.136842
H7    H     H_    0.203985 0.132441 0.231056 0.097086
H8    H     H_    0.355334 0.092006 0.311516 0.172986
H9    H     H_    0.407220 0.144406 0.216827 0.197346
H10   H     H_    0.300771 0.944941 0.168816 0.064119
H11   H     H_    0.658957 0.712267 0.644862 0.035699
H12   H     H_    0.662350 0.880692 0.648837 -0.035104
H13   H     H_    0.173373 0.958684 0.253563 0.083634
H14   H     H_    0.548230 0.860128 0.140312 0.116159
H15   H     H_    0.928185 0.146658 0.939543 0.078315
H16   H     H_    0.861130 0.107897 0.822809 0.137791
H17   H     H_    0.358410 0.172193 0.787778 -0.062979
H18   H     H_    0.499284 0.186317 0.947023 0.115312
H19   H     H_    0.683454 0.192587 0.907901 0.142500
H20   H     H_    0.286335 0.031510 0.623151 0.091095
H21   H     H_    0.102025 0.900649 0.583916 0.092150
H22   H     H_    0.647528 0.588324 0.041358 0.088845
H23   H     H_    0.119833 0.448462 0.969846 0.056177
H24   H     H_    0.227395 0.443777 0.103915 0.068091
H25   H     H_    0.655976 0.742757 0.243165 -0.032288
H26   H     H_    0.555685 0.575578 0.907850 0.092471
H27   H     H_    0.620818 0.521834 0.305356 0.162000
H28   H     H_    0.181306 0.480973 0.699761 0.057947
H29   H     H_    0.712771 0.845667 0.079020 0.216133
H30   H     H_    0.571591 0.751100 0.079339 0.017291
O1    O     O_2   0.113690 0.728200 0.532750 -0.482800
O2    O     O_3   0.285575 0.306343 0.262751 -0.572673
O3    O     O_3   0.860595 0.726707 0.178374 -0.596276
O4    O     O_2   0.696600 0.271740 0.467230 -0.435130
O5    O     O_3   0.938380 0.387880 0.459490 -0.419555
O6    O     O_3   0.484630 0.331100 0.627330 -0.438090
O7    O     O_3   0.840987 0.240524 0.323424 -0.594476
O8    O     O_3   0.389110 0.548970 0.605210 -0.489739
O9    O     O_3   0.904740 0.378630 0.670330 -0.471642
O10   O     O_2   0.814883 0.453126 0.820441 -0.373526
O11   O     O_3   0.896756 0.286958 0.832189 -0.569279
O12   O     O_3   0.871900 0.612110 0.540440 -0.406381
O13   O     O_3   0.421180 0.451020 0.394720 -0.472638
O14   O     O_2   0.662730 0.548230 0.717350 -0.375030
O15   O     O_3   0.514131 0.702055 0.742152 -0.618473
O16   O     O_2   0.550878 0.170462 0.557673 -0.416798
O17   O     O_3   0.562922 0.178170 0.730252 -0.584651
O18   O     O_3   0.325660 0.668890 0.372600 -0.433087
O19   O     O_2   0.209377 0.834576 0.403195 -0.450266
O20   O     O_3   0.972226 0.746595 0.676865 -0.620660
O21   O     O_3   0.360065 0.807604 0.259411 -0.663741
O22   O     O_2   0.147570 0.451710 0.282630 -0.402348
O23   O     O_3   0.905540 0.621350 0.329600 -0.389493
O24   O     O_2   0.975384 0.562579 0.169258 -0.459951
P1    P     P_3+3 0.947560 0.714050 0.560480 1.064848
P2    P     P_3+3 0.325150 0.423860 0.297970 1.091349
P3    P     P_3+3 0.847074 0.615295 0.212623 1.065071
P4    P     P_3+3 0.862730 0.285940 0.439440 1.139032
P5    P     P_3+3 0.944480 0.392377 0.789498 1.077950
P6    P     P_3+3 0.355625 0.787691 0.372487 1.047376
P7    P     P_3+3 0.487206 0.582170 0.716348 1.035771
P8    P     P_3+3 0.455346 0.211506 0.629179 1.040122
N1    N     N_3   0.821837 0.150232 0.154287 -0.399938
H31   H     H_    0.835680 0.124307 0.089279 0.210378
H32   H     H_    0.906748 0.120372 0.199490 0.257443
N2    N     N_3   0.019180 0.273046 0.161601 -0.465601
H33   H     H_    0.028464 0.339710 0.141494 0.204285
H34   H     H_    0.058093 0.230189 0.111067 0.169176
Cl1   Cl    Cl    0.953015 0.644086 0.807706 -0.600375
Cl2   Cl    Cl    0.152200 0.837939 0.857180 -0.525820
N3    N     N_3   0.232278 0.238232 0.389526 -0.530169
H35   H     H_    0.119772 0.216362 0.355759 0.177028
H36   H     H_    0.271709 0.185097 0.428389 0.157395
Cl3   Cl    Cl    0.027498 0.933592 0.104882 -0.584583
N4    N     N_3   0.192705 0.757292 0.125502 -0.395350
H37   H     H_    0.283498 0.775722 0.090012 0.199084
H38   H     H_    0.210630 0.689512 0.141388 0.177060
N5    N     N_3   0.421561 0.744224 0.597845 -0.499414
H39   H     H_    0.437294 0.694065 0.547113 0.217747
H40   H     H_    0.413193 0.806198 0.568094 0.108397
Cl4   Cl    Cl    0.772413 0.851147 0.796583 -0.486462
N6    N     N_3   0.489835 0.903923 0.732378 -0.500093
H41   H     H_    0.389503 0.901363 0.682955 0.145284
H42   H     H_    0.458196 0.880884 0.791324 0.242308
N7    N     N_3   0.080793 0.207746 0.756204 -0.525094
H43   H     H_    0.148966 0.264335 0.743535 0.140854
H44   H     H_    0.981978 0.197122 0.705336 0.176461
N8    N     N_3   0.154232 0.269481 0.910652 -0.496795
H45   H     H_    0.112047 0.280359 0.972061 0.147128
H46   H     H_    0.247351 0.225284 0.920240 0.167295
N9    N     N_3   0.083579 0.063796 0.877194 -0.392835
H47   H     H_    0.173452 0.080642 0.932102 0.200445
H48   H     H_    0.133957 0.056966 0.818118 0.204815
Cl5   Cl    Cl    0.486254 0.323535 0.826810 -0.738058
Cl6   Cl    Cl    0.820948 0.877830 0.275046 -0.660444
N10   N     N_3   0.559417 0.063182 0.882315 -0.465450
H49   H     H_    0.620289 0.041499 0.829968 0.248429
H50   H     H_    0.441572 0.037566 0.865682 0.196952
Cl7   Cl    Cl    0.635461 0.655629 0.421460 -0.724356
Cl8   Cl    Cl    0.423996 0.998949 0.452969 -0.728738
N11   N     N_3   0.162712 0.327970 0.569790 -0.457134
H51   H     H_    0.244733 0.344950 0.528356 0.207262
H52   H     H_    0.209367 0.346812 0.636716 0.146398
Cl9   Cl    Cl    0.681477 0.092529 0.365943 -0.608246
Cl10  Cl    Cl    0.590763 0.289778 0.217462 -0.788705
Cl11  Cl    Cl    0.846102 0.409393 0.274145 -0.698139

loop_
_geom_bond_atom_site_label_1
_geom_bond_atom_site_label_2
_ccdc_geom_bond_type
Ba1   O13   S    
C9    C16   A    
N6    H41   S    
O4    P4    D    
C39   C40   S    
O3    P3    S    
C17   C18   A    
C7    O17   S    
N11   H51   S    
C5    C6    S    
C5    O11   S    
C38   H2    S    
C28   C36   S    
C35   C36   A    
O9    P5    S    
C7    H17   S    
C15   C24   A    
C26   C27   A    
C17   C19   A    
N10   H50   S    
C23   H30   S    
C6    H15   S    
C28   C29   A    
C1    H10   S    
C34   Cl10  S    
C12   O3    S    
Ba2   P4    S    
C13   C14   A    
C35   H24   S    
O6    P8    S    
Ba1   O12   S    
Ba1   P2    S    
Ba1   Ba2   S    
O8    P7    S    
C17   C24   A    
N2    H33   S    
C10   P1    S    
Ba2   O5    S    
C41   N3    S    
C27   H23   S    
C42   H9    S    
C40   Cl2   S    
C29   H26   S    
C8    H19   S    
C14   C15   A    
N3    H36   S    
C6    H16   S    
C21   C22   A    
O5    P4    S    
Ba2   O14   S    
C13   P6    S    
C7    C8    S    
O11   P5    S    
C2    H1    S    
C42   H8    S    
N9    H47   S    
C22   H20   S    
C19   C20   A    
C6    N9    S    
N1    H32   S    
O17   P8    S    
Ba1   P1    S    
Ba2   O9    S    
C8    H18   S    
C8    N10   S    
O19   P6    D    
N11   H52   S    
O15   P7    S    
C31   H22   S    
C31   C32   A    
O7    P4    S    
N4    H38   S    
C9    C18   A    
C32   P3    S    
C32   C37   A    
Ba1   O1    S    
C18   C22   A    
C34   C38   S    
N10   H49   S    
C4    N6    S    
Ba1   O23   S    
N8    H45   S    
C38   N2    S    
Ba1   O8    S    
C21   P8    S    
C3    N5    S    
C33   C37   A    
C41   C42   S    
C27   C28   A    
Ba2   O4    S    
C1    Cl3   S    
C2    O21   S    
C7    Cl5   S    
C39   O20   S    
C20   N11   S    
C34   O7    S    
N1    H31   S    
O23   P3    S    
O1    P1    D    
C15   C16   A    
C39   H3    S    
Ba2   O13   S    
C2    N4    S    
C40   H4    S    
C10   C11   A    
C24   Cl9   S    
O12   P1    S    
O16   P8    D    
C5    N8    S    
C38   N1    S    
C19   P4    S    
C1    H13   S    
C42   H7    S    
Ba1   O18   S    
C30   P7    S    
C11   C13   A    
Ba1   O5    S    
C12   H25   S    
Ba2   O8    S    
C23   H14   S    
N5    H40   S    
C1    C2    S    
O21   P6    S    
C33   C35   A    
O13   P2    S    
C41   O2    S    
N9    H48   S    
N6    H42   S    
C14   Cl8   S    
C25   C30   A    
C3    H11   S    
C29   C30   A    
C4    Cl4   S    
C39   Cl1   S    
N4    H37   S    
C41   H6    S    
O2    P2    S    
O24   P3    D    
C31   C36   A    
N7    H43   S    
C4    H12   S    
O14   P7    D    
C26   P5    S    
C34   Cl11  S    
C3    C4    S    
O20   P1    S    
Ba1   O22   S    
C33   P2    S    
O22   P2    D    
Ba2   O12   S    
C23   H29   S    
C11   Cl7   S    
C12   C23   S    
N2    H34   S    
C5    N7    S    
Ba2   O6    S    
O18   P6    S    
C40   H5    S    
C9    H21   S    
C12   Cl6   S    
N8    H46   S    
C10   C16   A    
C25   C26   A    
O10   P5    D    
C37   H27   S    
C20   C21   A    
N5    H39   S    
C3    O15   S    
C25   H28   S    
N3    H35   S    
N7    H44   S    
