data_mof_unit_59321.cif
_audit_creation_date              2012-12-11T14:06:36-0500
_audit_creation_method            fapswitch 2.2
_symmetry_space_group_name_H-M    P1
_symmetry_Int_Tables_number       1
_space_group_crystal_system       triclinic
_cell_length_a                    6.923129
_cell_length_b                    17.283646
_cell_length_c                    24.10982
_cell_angle_alpha                 104.523613
_cell_angle_beta                  90.439807
_cell_angle_gamma                 89.990879
_cell_volume                      2792.63065382

loop_
_atom_site_label
_atom_site_type_symbol
_atom_type_description
_atom_site_fract_x
_atom_site_fract_y
_atom_site_fract_z
_atom_type_partial_charge
O1    O     O_R   0.494290 0.391990 0.999150 -0.540761
O2    O     O_R   0.827170 0.534410 0.082350 -0.546698
O3    O     O_R   0.994360 0.608010 0.000850 -0.538220
C1    C     C_R   0.658679 0.550432 0.106117 0.693379
O4    O     O_R   0.824210 0.388010 0.004470 -0.529211
O5    O     O_R   0.991370 0.460560 0.922410 -0.527320
C2    C     C_R   0.654519 0.354879 0.001483 0.812534
O6    O     O_R   0.497270 0.539440 0.077590 -0.543579
O7    O     O_3   0.659770 0.523970 0.973170 -0.372085
V1    V     V_3+5 0.935840 0.495550 0.004980 1.454745
O8    O     O_R   0.320910 0.465590 0.917650 -0.541513
C3    C     C_R   0.151725 0.447089 0.894235 0.746497
O9    O     O_R   0.323870 0.611990 0.995530 -0.549158
C4    C     C_R   0.154411 0.645128 0.998521 0.763849
V2    V     V_3+5 0.435470 0.504450 0.995020 1.429344
O10   O     O_3   0.161670 0.476030 0.026830 -0.373962
C5    C     C_2   0.142799 0.730285 0.998105 -0.339010
H1    H     H_    0.277241 0.761153 0.994732 0.149764
C6    C     C_2   0.972754 0.769757 0.002035 -0.340803
H2    H     H_    0.838313 0.738889 0.005410 0.149328
C7    C     C_R   0.142095 0.239391 0.625995 0.585695
N1    N     N_R   0.115821 0.319815 0.648786 -0.555660
C8    C     C_R   0.076834 0.370143 0.614487 0.574009
C9    C     C_R   0.060262 0.340359 0.554825 -0.017670
C10   C     C_R   0.083842 0.257702 0.530311 -0.047168
C11   C     C_R   0.126196 0.205517 0.565790 -0.042632
C12   C     C_R   0.018655 0.391595 0.519301 -0.145157
C13   C     C_R   0.999135 0.361648 0.460193 -0.140467
C14   C     C_R   0.021132 0.279678 0.434987 -0.019852
C15   C     C_R   0.064307 0.227603 0.470056 -0.016872
C16   C     C_R   0.087758 0.145644 0.444781 -0.063663
C17   C     C_R   0.130328 0.094009 0.479645 -0.141600
C18   C     C_R   0.149781 0.122168 0.539448 0.124715
C19   C     C_R   0.000885 0.248378 0.375360 0.575616
N2    N     N_R   0.023730 0.168235 0.351463 -0.556169
C20   C     C_R   0.068092 0.116985 0.384808 0.573636
O11   O     O_2   0.184195 0.193095 0.661829 -0.516277
O12   O     O_2   0.051473 0.448890 0.638186 -0.517747
H3    H     H_    0.000298 0.455211 0.537086 0.167300
H4    H     H_    0.966526 0.403048 0.434337 0.173799
O13   O     O_2   0.958379 0.297643 0.341557 -0.514227
O14   O     O_2   0.093503 0.038567 0.360026 -0.518341
H5    H     H_    0.148147 0.030764 0.460110 0.166741
C21   C     C_R   0.832181 0.101862 0.264689 0.179743
C22   C     C_R   0.819063 0.073896 0.204593 -0.186374
H6    H     H_    0.685951 0.046557 0.185210 0.133708
C23   C     C_R   0.977149 0.080119 0.169541 -0.088966
C24   C     C_R   0.148596 0.115734 0.195632 -0.199634
H7    H     H_    0.272641 0.122040 0.170014 0.138571
C25   C     C_R   0.161510 0.144857 0.255095 -0.137716
H8    H     H_    0.293745 0.173251 0.274164 0.133394
C26   C     C_R   0.005318 0.137795 0.290101 0.388061
C27   C     C_R   0.273424 0.403124 0.736028 -0.053009
H9    H     H_    0.384057 0.420035 0.709786 0.136109
C28   C     C_R   0.281486 0.432938 0.795624 -0.172336
H10   H     H_    0.397802 0.473377 0.814058 0.145136
C29   C     C_R   0.140570 0.411781 0.831069 -0.134505
C30   C     C_R   0.990985 0.357890 0.805014 -0.055358
C31   C     C_R   0.982767 0.330031 0.745000 -0.132293
H11   H     H_    0.869160 0.289147 0.724912 0.158049
C32   C     C_R   0.123789 0.351649 0.710298 0.349295
C33   C     C_R   0.614670 0.875354 0.616449 0.568713
N3    N     N_R   0.504498 0.835369 0.647540 -0.555788
C34   C     C_R   0.411566 0.765499 0.621007 0.576409
C35   C     C_R   0.428647 0.733097 0.561451 -0.025961
C36   C     C_R   0.543445 0.772926 0.529289 -0.016498
C37   C     C_R   0.637024 0.844779 0.556842 -0.025900
C38   C     C_R   0.335631 0.661423 0.533473 -0.140500
C39   C     C_R   0.356944 0.629653 0.474519 -0.147999
C40   C     C_R   0.471770 0.668743 0.441986 -0.026507
C41   C     C_R   0.565155 0.740667 0.469469 -0.017145
C42   C     C_R   0.680339 0.780328 0.437283 -0.024849
C43   C     C_R   0.772698 0.852215 0.465252 -0.141059
C44   C     C_R   0.751200 0.884048 0.524244 -0.157509
C45   C     C_R   0.495492 0.637648 0.382536 0.575275
N4    N     N_R   0.606753 0.677156 0.351403 -0.556983
C46   C     C_R   0.698878 0.747326 0.377770 0.577519
O15   O     O_2   0.701872 0.944707 0.642996 -0.525284
O16   O     O_2   0.305369 0.726615 0.652212 -0.519263
H12   H     H_    0.246361 0.629447 0.557048 0.174865
H13   H     H_    0.283130 0.574296 0.454563 0.168272
O17   O     O_2   0.408811 0.568083 0.356176 -0.519633
O18   O     O_2   0.805909 0.785797 0.346493 -0.517521
H14   H     H_    0.861977 0.884187 0.441673 0.173987
H15   H     H_    0.824789 0.939449 0.544207 0.164106
C47   C     C_R   0.801502 0.622824 0.264078 -0.076074
H16   H     H_    0.931277 0.628783 0.290174 0.135561
C48   C     C_R   0.814472 0.591804 0.204519 -0.197303
H17   H     H_    0.954913 0.574907 0.185932 0.130822
C49   C     C_R   0.647742 0.582576 0.169561 -0.055772
C50   C     C_R   0.468338 0.605550 0.195835 -0.196003
H18   H     H_    0.336773 0.599907 0.170548 0.130729
C51   C     C_R   0.455831 0.636742 0.255134 -0.084399
H19   H     H_    0.316222 0.654376 0.274096 0.129724
C52   C     C_R   0.621873 0.645547 0.289930 0.371126
C53   C     C_R   0.312349 0.887050 0.735683 -0.075989
H20   H     H_    0.182056 0.882432 0.709912 0.134154
C54   C     C_R   0.300271 0.914469 0.795504 -0.192573
H21   H     H_    0.160059 0.930366 0.814559 0.132690
C55   C     C_R   0.467414 0.921358 0.830135 -0.058583
C56   C     C_R   0.646579 0.900169 0.803209 -0.193768
H22   H     H_    0.778463 0.904398 0.828234 0.131637
C57   C     C_R   0.658230 0.872556 0.743565 -0.084689
H23   H     H_    0.797463 0.855786 0.724064 0.129528
C58   C     C_R   0.491496 0.865652 0.709165 0.371789
C59   C     C_2   0.642906 0.269676 0.001782 -0.314174
H24   H     H_    0.777540 0.238774 0.005098 0.157216
C60   C     C_2   0.472622 0.230218 0.997847 -0.349135
H25   H     H_    0.338007 0.261111 0.994477 0.158644
O19   O     O_R   0.618210 0.960470 0.922400 -0.540443
O20   O     O_R   0.291310 0.111960 0.995450 -0.543524
O21   O     O_R   0.124210 0.039530 0.077580 -0.540402
C61   C     C_R   0.460987 0.145081 0.998361 0.780810
O22   O     O_R   0.288310 0.965490 0.917650 -0.542744
O23   O     O_R   0.121180 0.892010 0.999220 -0.535788
C62   C     C_R   0.456852 0.950430 0.893804 0.708255
O24   O     O_R   0.621230 0.107990 0.000760 -0.534584
O25   O     O_3   0.455770 0.976060 0.026840 -0.372920
V3    V     V_3+5 0.179680 0.004440 0.995020 1.423406
O26   O     O_R   0.791670 0.888040 0.004570 -0.547247
C63   C     C_R   0.961133 0.854902 0.001583 0.772131
O27   O     O_R   0.794680 0.034510 0.082370 -0.544839
C64   C     C_R   0.964284 0.049929 0.106092 0.710865
V4    V     V_3+5 0.680070 0.995560 0.005010 1.416188
O28   O     O_3   0.953840 0.023940 0.973160 -0.368370
C65   C     C_2   0.847744 0.325091 0.838452 0.766147
O29   O     O_2   0.898466 0.304088 0.881111 -0.566378
O30   O     O_R   0.655798 0.314807 0.819560 -0.661155
H26   H     H_    0.571776 0.291668 0.845713 0.297801
C66   C     C_3   0.194904 0.060956 0.572783 -0.649226
H27   H     H_    0.077431 0.059472 0.603578 0.244768
H28   H     H_    0.207113 0.999587 0.544538 0.171572
H29   H     H_    0.335438 0.075080 0.595558 0.247232
C67   C     C_3   0.661941 0.093753 0.301247 -0.728945
H30   H     H_    0.701871 0.056730 0.331087 0.240379
H31   H     H_    0.615983 0.153752 0.326456 0.206962
H32   H     H_    0.537471 0.064551 0.274863 0.207145

loop_
_geom_bond_atom_site_label_1
_geom_bond_atom_site_label_2
_ccdc_geom_bond_type
C18   C66   S    
C38   H12   S    
C28   H10   S    
C65   O29   D    
O23   C63   A    
C43   C44   A    
C20   O14   S    
N2    C20   A    
C55   C62   S    
C9    C12   A    
C1    O6    A    
O30   H26   S    
C67   H32   S    
C49   C50   A    
C27   H9    S    
O26   C63   A    
C56   H22   S    
C33   C37   A    
C13   C14   A    
O24   V4    S    
N4    C52   S    
O5    C3    A    
C15   C16   A    
C47   C48   A    
C59   H24   S    
C46   O18   S    
V2    O10   S    
C54   H21   S    
C60   H25   S    
O20   V3    S    
C19   N2    A    
C22   C23   A    
O25   V3    S    
C57   H23   S    
C42   C46   A    
O19   V4    S    
O8    V2    S    
C36   C41   A    
C12   H3    S    
C38   C39   A    
C53   C54   A    
C25   C26   A    
C8    C9    A    
C40   C41   A    
O1    V2    S    
N3    C58   S    
O7    V1    S    
C43   H14   S    
O22   V3    S    
C21   C26   A    
C24   C25   A    
C36   C37   A    
C31   H11   S    
C56   C57   A    
O9    C4    A    
C4    C5    S    
C19   O13   S    
C27   C32   A    
N1    C8    A    
C7    C11   A    
C25   H8    S    
C1    C49   S    
C27   C28   A    
C21   C67   S    
C31   C32   A    
N4    C46   A    
O21   C64   A    
C57   C58   A    
C50   H18   S    
O4    C2    A    
C47   H16   S    
C67   H31   S    
C10   C11   A    
C22   H6    S    
C14   C19   A    
C60   C61   S    
C66   H28   S    
C45   N4    A    
C14   C15   A    
C50   C51   A    
C11   C18   A    
C23   C64   S    
C23   C24   A    
C35   C38   A    
C53   H20   S    
C33   N3    A    
C5    H1    S    
C2    C59   S    
O20   C61   A    
C37   C44   A    
O25   V4    S    
C9    C10   A    
O3    C4    A    
C61   O24   A    
C3    C29   S    
V3    O28   S    
C24   H7    S    
C48   C49   A    
C30   C65   S    
O6    V2    S    
C54   C55   A    
C28   C29   A    
C34   O16   S    
C66   H29   S    
O27   V4    S    
O2    V1    S    
O19   C62   A    
N2    C26   S    
C21   C22   A    
C53   C58   A    
C10   C15   A    
C6    C63   S    
C65   O30   S    
O1    C2    A    
C33   O15   S    
C16   C17   A    
C42   C43   A    
O5    V1    S    
O21   V3    S    
O22   C62   A    
O8    C3    A    
C45   O17   S    
C67   H30   S    
C8    O12   S    
C51   H19   S    
O23   V3    S    
C34   C35   A    
C6    H2    S    
O9    V2    S    
C66   H27   S    
C30   C31   A    
C41   C42   A    
O3    V1    S    
V1    O10   S    
C17   C18   A    
N1    C32   S    
C29   C30   A    
C59   C60   D    
O2    C1    A    
C55   C56   A    
C5    C6    D    
C17   H5    S    
C44   H15   S    
O7    V2    S    
C39   C40   A    
C39   H13   S    
C47   C52   A    
N3    C34   A    
O4    V1    S    
C7    O11   S    
C48   H17   S    
C40   C45   A    
C51   C52   A    
C35   C36   A    
C12   C13   A    
C13   H4    S    
C16   C20   A    
O27   C64   A    
C7    N1    A    
O26   V4    S    
V4    O28   S    
