data_mof_unit_42470.cif
_audit_creation_date              2012-10-26T20:48:50-0400
_audit_creation_method            fapswitch 2.2
_symmetry_space_group_name_H-M    P1
_symmetry_Int_Tables_number       1
_space_group_crystal_system       triclinic
_cell_length_a                    15.128143
_cell_length_b                    13.927818
_cell_length_c                    9.047464
_cell_angle_alpha                 89.999981
_cell_angle_beta                  90.302606
_cell_angle_gamma                 89.999943
_cell_volume                      1906.29237492

loop_
_atom_site_label
_atom_site_type_symbol
_atom_type_description
_atom_site_fract_x
_atom_site_fract_y
_atom_site_fract_z
_atom_type_partial_charge
C1    C     C_R   0.329985 0.499985 0.499684 0.531975
C2    C     C_R   0.558121 0.891798 0.590299 -0.153198
C3    C     C_R   0.499971 0.499987 0.220719 0.549067
C4    C     C_R   0.500029 0.499987 0.779281 0.549071
C5    C     C_R   0.499996 0.054704 0.500006 -0.050849
C6    C     C_R   0.499996 0.945220 0.500006 -0.050222
C7    C     C_1   0.500000 0.499921 0.065607 -0.067533
C8    C     C_1   0.499999 0.499921 0.934393 -0.067534
C9    C     C_R   0.095008 0.581672 0.453814 -0.126433
C10   C     C_R   0.904570 0.417853 0.454857 -0.124928
C11   C     C_R   0.904992 0.581673 0.546181 -0.126432
C12   C     C_R   0.670015 0.499985 0.500317 0.531984
C13   C     C_R   0.095431 0.417854 0.545147 -0.124924
C14   C     C_R   0.186888 0.581933 0.454507 -0.130862
C15   C     C_R   0.812721 0.417726 0.455874 -0.145416
C16   C     C_R   0.813112 0.581934 0.545488 -0.130863
C17   C     C_R   0.187279 0.417727 0.544131 -0.145424
C18   C     C_R   0.233494 0.499890 0.499397 0.010819
C19   C     C_R   0.766506 0.499890 0.500604 0.010828
C20   C     C_R   0.048568 0.499765 0.499726 0.035993
C21   C     C_R   0.951432 0.499765 0.500273 0.035993
C22   C     C_3   0.682097 0.236451 0.719503 0.007106
C23   C     C_R   0.546750 0.209571 0.605603 0.378374
C24   C     C_3   0.706012 0.200650 0.874452 -0.266767
C25   C     C_3   0.804420 0.177942 0.887450 -0.491096
C26   C     C_3   0.406528 0.764438 0.160083 0.004976
C27   C     C_3   0.320610 0.799244 0.088343 -0.277857
C28   C     C_3   0.334141 0.823580 0.925420 -0.482989
C29   C     C_3   0.317898 0.236487 0.280550 0.007139
C30   C     C_3   0.293939 0.200638 0.125643 -0.266793
C31   C     C_3   0.195509 0.178021 0.112702 -0.491080
C32   C     C_3   0.593476 0.764435 0.839917 0.004976
C33   C     C_3   0.679392 0.799248 0.911651 -0.277859
C34   C     C_R   0.446070 0.790369 0.404373 0.376531
C35   C     C_3   0.665863 0.823584 0.074574 -0.482989
C36   C     C_R   0.453250 0.209570 0.394398 0.378367
C37   C     C_R   0.553928 0.790369 0.595629 0.376531
C38   C     C_R   0.543002 0.108131 0.611433 -0.151863
C39   C     C_R   0.441874 0.891798 0.409710 -0.153197
C40   C     C_R   0.456991 0.108130 0.388577 -0.151845
Cu1   Cu    Cu3+1 0.500000 0.596430 0.500000 1.026064
Cu2   Cu    Cu3+1 0.500000 0.403570 0.500000 1.041817
H1    H     H_    0.060333 0.645117 0.415764 0.102467
H2    H     H_    0.392745 0.926971 0.342073 0.099339
H3    H     H_    0.426061 0.072922 0.295680 0.099565
H4    H     H_    0.607248 0.926972 0.657937 0.099339
H5    H     H_    0.720463 0.302859 0.697358 0.162226
H6    H     H_    0.703317 0.182614 0.635290 0.095904
H7    H     H_    0.688708 0.256627 0.957004 0.182624
H8    H     H_    0.667474 0.134867 0.899957 0.154912
H9    H     H_    0.822791 0.120484 0.808180 0.141793
H10   H     H_    0.819651 0.152774 0.001219 0.145089
H11   H     H_    0.844369 0.243162 0.864614 0.148992
H12   H     H_    0.938866 0.354346 0.416691 0.099563
H13   H     H_    0.428481 0.698965 0.100786 0.158864
H14   H     H_    0.459469 0.819196 0.143191 0.095990
H15   H     H_    0.269540 0.742190 0.097549 0.171336
H16   H     H_    0.296399 0.864116 0.146986 0.152167
H17   H     H_    0.382691 0.882932 0.913987 0.140158
H18   H     H_    0.270390 0.846850 0.875738 0.149122
H19   H     H_    0.358359 0.759683 0.864203 0.157831
H20   H     H_    0.279563 0.302922 0.302652 0.162259
H21   H     H_    0.296669 0.182691 0.364820 0.095904
H22   H     H_    0.311280 0.256564 0.043031 0.182637
H23   H     H_    0.939667 0.645119 0.584227 0.102467
H24   H     H_    0.332422 0.134807 0.100199 0.154869
H25   H     H_    0.177089 0.120641 0.192075 0.141793
H26   H     H_    0.180252 0.152779 0.998980 0.145081
H27   H     H_    0.155616 0.243298 0.135418 0.149001
H28   H     H_    0.571529 0.698959 0.899214 0.158864
H29   H     H_    0.540531 0.819187 0.856814 0.095991
H30   H     H_    0.730466 0.742197 0.902443 0.171335
H31   H     H_    0.703599 0.864121 0.853006 0.152167
H32   H     H_    0.617308 0.882932 0.086009 0.140158
H33   H     H_    0.729613 0.846860 0.124252 0.149121
H34   H     H_    0.061134 0.354348 0.583317 0.099564
H35   H     H_    0.641652 0.759685 0.135793 0.157830
H36   H     H_    0.221381 0.645806 0.418144 0.153612
H37   H     H_    0.777918 0.353852 0.419744 0.116502
H38   H     H_    0.778619 0.645808 0.581847 0.153612
H39   H     H_    0.222082 0.353854 0.580265 0.116497
H40   H     H_    0.573929 0.072923 0.704333 0.099559
N1    N     N_R   0.500000 0.258690 0.500000 -0.206327
N2    N     N_R   0.500000 0.741310 0.500000 -0.203590
O1    O     O_R   0.371460 0.581430 0.500010 -0.471926
O2    O     O_3   0.390934 0.739489 0.309976 -0.541076
O3    O     O_3   0.408911 0.260524 0.285560 -0.529192
O4    O     O_3   0.609067 0.739489 0.690022 -0.541076
O5    O     O_R   0.628540 0.418570 0.499990 -0.504166
O6    O     O_R   0.628540 0.581430 0.499990 -0.471930
O7    O     O_R   0.371460 0.418570 0.500010 -0.504196
O8    O     O_R   0.500000 0.581420 0.288390 -0.493026
O9    O     O_R   0.500000 0.418580 0.711610 -0.443025
O10   O     O_R   0.500000 0.581420 0.711610 -0.493028
O11   O     O_R   0.500000 0.418580 0.288390 -0.443032
O12   O     O_3   0.591094 0.260530 0.714431 -0.529175

loop_
_geom_bond_atom_site_label_1
_geom_bond_atom_site_label_2
_ccdc_geom_bond_type
C22   H6    S    
C29   H21   S    
C35   H32   S    
C30   H22   S    
Cu2   O9    S    
Cu1   Cu2   S    
C14   C18   A    
C37   O4    S    
C4    C8    S    
C26   H13   S    
C7    C8    T    
C23   O12   S    
C15   C19   A    
C35   H33   S    
C26   C27   S    
C23   N1    A    
C12   O6    A    
C25   H11   S    
C3    C7    S    
C10   C15   A    
C30   C31   S    
C36   N1    A    
C32   O4    S    
C31   H26   S    
Cu2   O7    S    
C34   O2    S    
C33   H30   S    
C15   H37   S    
C37   N2    A    
C28   H19   S    
C22   H5    S    
C1    O7    A    
C5    C38   A    
C38   H40   S    
C1    O1    A    
C2    C6    A    
C34   N2    A    
C32   H29   S    
C28   H18   S    
C10   C21   A    
C24   H8    S    
C40   H3    S    
C9    H1    S    
Cu2   O11   S    
C12   O5    A    
C36   C40   A    
C24   C25   S    
C27   H15   S    
C32   H28   S    
Cu1   N2    S    
C11   C21   A    
C2    H4    S    
C34   C39   A    
C3    O8    A    
C16   H38   S    
C31   H25   S    
C9    C14   A    
C25   H9    S    
C29   C30   S    
C11   C16   A    
C9    C20   A    
Cu1   O10   S    
C13   H34   S    
C26   O2    S    
C17   C18   A    
C1    C18   S    
C30   H24   S    
C4    O10   A    
C33   H31   S    
C22   C24   S    
C28   H17   S    
C24   H7    S    
C29   H20   S    
C13   C20   A    
C22   O12   S    
Cu2   N1    S    
C27   H16   S    
C26   H14   S    
C39   H2    S    
C23   C38   A    
Cu1   O1    S    
C13   C17   A    
Cu2   O5    S    
C32   C33   S    
C25   H10   S    
C2    C37   A    
C5    C6    S    
C16   C19   A    
C12   C19   S    
C33   C35   S    
C35   H35   S    
Cu1   O6    S    
C17   H39   S    
C14   H36   S    
C10   H12   S    
C29   O3    S    
C4    O9    A    
C36   O3    S    
C31   H27   S    
Cu1   O8    S    
C20   C21   S    
C5    C40   A    
C27   C28   S    
C6    C39   A    
C3    O11   A    
C11   H23   S    
