data_mof_unit_32450.cif
_audit_creation_date              2012-12-10T20:48:45-0500
_audit_creation_method            fapswitch 2.2
_symmetry_space_group_name_H-M    P1
_symmetry_Int_Tables_number       1
_space_group_crystal_system       triclinic
_cell_length_a                    15.586602
_cell_length_b                    8.984437
_cell_length_c                    8.470488
_cell_angle_alpha                 89.910387
_cell_angle_beta                  92.883416
_cell_angle_gamma                 91.149629
_cell_volume                      1184.44000286

loop_
_atom_site_label
_atom_site_type_symbol
_atom_type_description
_atom_site_fract_x
_atom_site_fract_y
_atom_site_fract_z
_atom_type_partial_charge
C1    C     C_R   0.500058 0.219354 0.500084 0.901182
C2    C     C_1   0.824217 0.444961 0.504547 0.014464
C3    C     C_1   0.176651 0.420545 0.479847 -0.019690
C4    C     C_R   0.338535 0.494249 0.496064 0.877332
C5    C     C_R   0.661625 0.499299 0.503598 0.870483
C6    C     C_1   0.500347 0.934597 0.499937 -0.201397
C7    C     C_1   0.500282 0.065413 0.500146 -0.194501
C8    C     C_R   0.500240 0.780630 0.499949 0.898644
C9    C     C_3   0.057806 0.292255 0.632252 0.029289
C10   C     C_3   0.040971 0.347786 0.307819 0.069025
C11   C     C_3   0.950300 0.320413 0.645375 0.053581
C12   C     C_3   0.931214 0.339732 0.320646 0.024049
C13   C     C_1   0.750250 0.474662 0.509990 -0.241505
C14   C     C_1   0.250733 0.456701 0.485837 -0.244137
C15   C     C_3   0.084260 0.395231 0.480569 0.212438
C16   C     C_3   0.914923 0.411751 0.492217 0.237892
C17   C     C_3   0.961148 0.570128 0.498310 -0.461769
C18   C     C_3   0.056486 0.557198 0.510845 -0.442715
H1    H     H_    0.080414 0.600918 0.625820 0.173487
H2    H     H_    0.084449 0.640840 0.431041 0.202117
H3    H     H_    0.946880 0.641105 0.597168 0.206484
H4    H     H_    0.943587 0.648468 0.403127 0.153838
N1    N     N_1   0.500000 0.500030 0.073640 -0.047318
N2    N     N_1   0.500000 0.500030 0.926360 -0.047564
O1    O     O_R   0.500000 0.285340 0.636850 -0.612002
O2    O     O_R   0.500000 0.285340 0.363150 -0.611324
O3    O     O_R   0.377140 0.500000 0.636930 -0.607470
O4    O     O_R   0.377140 0.500000 0.363070 -0.615040
O5    O     O_R   0.622860 0.500000 0.636930 -0.617530
O6    O     O_R   0.622860 0.500000 0.363070 -0.615088
O7    O     O_R   0.500000 0.714650 0.636900 -0.609915
O8    O     O_R   0.500000 0.714650 0.363100 -0.608707
Zn1   Zn    Zn3+2 0.500000 0.499990 0.682780 0.965768
Zn2   Zn    Zn3+2 0.500000 0.499990 0.317220 0.965222
C19   C     C_R   0.888150 0.177937 0.670902 0.055681
C20   C     C_R   0.900338 0.033654 0.608973 -0.168057
C21   C     C_R   0.840826 0.916300 0.622726 -0.156080
C22   C     C_R   0.765670 0.936131 0.699635 -0.145116
C23   C     C_R   0.749020 0.075153 0.759247 -0.143062
C24   C     C_R   0.808046 0.192650 0.743285 -0.134926
H5    H     H_    0.952218 0.009567 0.539063 0.136257
H6    H     H_    0.849974 0.813103 0.562344 0.128262
H7    H     H_    0.719073 0.845774 0.707399 0.140254
H8    H     H_    0.688899 0.093803 0.814123 0.150283
H9    H     H_    0.785153 0.296018 0.778542 0.168662
C25   C     C_R   0.886861 0.186189 0.271823 0.118346
C26   C     C_R   0.905299 0.123185 0.123887 -0.141078
C27   C     C_R   0.866835 0.990035 0.069201 -0.139856
C28   C     C_R   0.798428 0.927611 0.146578 -0.140437
C29   C     C_R   0.767975 0.000619 0.276244 -0.133382
C30   C     C_R   0.810228 0.129312 0.335596 -0.120335
H10   H     H_    0.955329 0.171157 0.056801 0.115922
H11   H     H_    0.889201 0.937068 0.964809 0.154618
H12   H     H_    0.767097 0.826252 0.102537 0.136840
H13   H     H_    0.711279 0.957951 0.331271 0.143413
H14   H     H_    0.780152 0.183981 0.429713 0.152185
C31   C     C_R   0.086103 0.124808 0.637268 0.106958
C32   C     C_R   0.061210 0.034079 0.766272 -0.124996
C33   C     C_R   0.095984 0.894659 0.797438 -0.146591
C34   C     C_R   0.164384 0.846603 0.713301 -0.159449
C35   C     C_R   0.196488 0.936841 0.596129 -0.133780
C36   C     C_R   0.159873 0.074821 0.562575 -0.108819
H15   H     H_    0.015114 0.072829 0.846279 0.128858
H16   H     H_    0.071812 0.826994 0.891578 0.128374
H17   H     H_    0.194411 0.741796 0.742399 0.136039
H18   H     H_    0.252486 0.903099 0.535618 0.136610
H19   H     H_    0.195400 0.145662 0.487579 0.151187
C37   C     C_R   0.090435 0.204502 0.251260 0.078144
C38   C     C_R   0.061473 0.055445 0.270160 -0.171272
C39   C     C_R   0.106446 0.933156 0.220816 -0.152317
C40   C     C_R   0.187662 0.951892 0.163560 -0.106433
C41   C     C_R   0.223602 0.093525 0.158190 -0.182464
C42   C     C_R   0.176282 0.216466 0.200377 -0.134617
H20   H     H_    0.005928 0.027096 0.329674 0.134942
H21   H     H_    0.078768 0.823655 0.235422 0.133275
H22   H     H_    0.224401 0.857109 0.130368 0.138839
H23   H     H_    0.289209 0.108652 0.123875 0.147928
H24   H     H_    0.213568 0.316326 0.210150 0.179153
C43   C     C_3   0.058642 0.476994 0.179896 -0.363479
C44   C     C_3   0.144188 0.557578 0.146583 -0.947318
H25   H     H_    0.179732 0.604777 0.250914 0.270818
H26   H     H_    0.186188 0.495007 0.072690 0.259631
H27   H     H_    0.128786 0.652589 0.067663 0.221759
H28   H     H_    0.037568 0.432403 0.066037 0.180524
H29   H     H_    0.017193 0.572116 0.199422 0.204318
C45   C     C_3   0.117098 0.345429 0.787062 -0.397630
C46   C     C_3   0.210367 0.287767 0.816844 -0.792161
H30   H     H_    0.209421 0.173070 0.863869 0.269957
H31   H     H_    0.249136 0.284692 0.712843 0.259118
H32   H     H_    0.247490 0.357457 0.904513 0.227564
H33   H     H_    0.125322 0.466328 0.801513 0.195499
H34   H     H_    0.085267 0.303043 0.891245 0.204509
C47   C     C_3   0.876105 0.442676 0.196415 -0.418777
C48   C     C_3   0.779968 0.406575 0.148255 -0.802138
H35   H     H_    0.774556 0.320509 0.054466 0.249507
H36   H     H_    0.741140 0.364217 0.242688 0.275753
H37   H     H_    0.747572 0.508406 0.103370 0.235120
H38   H     H_    0.876998 0.562494 0.219554 0.195065
H39   H     H_    0.905867 0.435779 0.088758 0.220735
C49   C     C_3   0.940230 0.426579 0.795320 -0.366136
C50   C     C_3   0.867798 0.541952 0.825947 -0.915145
H40   H     H_    0.844437 0.613954 0.730046 0.252116
H41   H     H_    0.809293 0.496219 0.872602 0.260764
H42   H     H_    0.892992 0.623402 0.916499 0.224971
H43   H     H_    0.944514 0.347595 0.891724 0.172089
H44   H     H_    0.995396 0.502897 0.809482 0.207385

loop_
_geom_bond_atom_site_label_1
_geom_bond_atom_site_label_2
_ccdc_geom_bond_type
C15   C18   S    
C46   H30   S    
C47   C48   S    
C19   C20   A    
C31   C36   A    
O3    Zn1   S    
C49   H43   S    
C21   C22   A    
C36   H19   S    
C20   C21   A    
C18   H1    S    
C10   C15   S    
C40   H22   S    
C28   H12   S    
O5    Zn1   S    
C30   H14   S    
C21   H6    S    
C2    C13   T    
C35   H18   S    
O2    Zn2   S    
C12   C16   S    
C16   C17   S    
N1    N2    T    
O7    Zn1   S    
C39   C40   A    
C17   H4    S    
C2    C16   S    
C47   H39   S    
C5    C13   S    
C35   C36   A    
C41   C42   A    
O4    Zn2   S    
C33   C34   A    
C50   H41   S    
C1    O1    A    
C43   H28   S    
C20   H5    S    
C38   C39   A    
C44   H27   S    
C4    O4    A    
C29   C30   A    
C5    O5    A    
C27   H11   S    
O6    Zn2   S    
C8    O8    A    
C50   H40   S    
C9    C31   S    
C12   C25   S    
C23   C24   A    
C45   C46   S    
C37   C38   A    
C6    C8    S    
C48   H37   S    
C32   C33   A    
C25   C30   A    
C17   H3    S    
C34   C35   A    
O8    Zn2   S    
C26   H10   S    
C41   H23   S    
C9    C45   S    
C11   C16   S    
C26   C27   A    
C42   H24   S    
N1    Zn2   S    
C17   C18   S    
C33   H16   S    
C38   H20   S    
C48   H36   S    
C9    C11   S    
C6    C7    T    
C3    C14   T    
C10   C12   S    
C44   H26   S    
C27   C28   A    
C34   H17   S    
C50   H42   S    
C46   H31   S    
C1    O2    A    
C12   C47   S    
C43   H29   S    
C4    O3    A    
C3    C15   S    
C5    O6    A    
C32   H15   S    
C25   C26   A    
C1    C7    S    
C8    O7    A    
N2    Zn1   S    
C44   H25   S    
C10   C43   S    
C23   H8    S    
C10   C37   S    
C49   H44   S    
C29   H13   S    
C45   H33   S    
C11   C19   S    
C19   C24   A    
C37   C42   A    
C40   C41   A    
C45   H34   S    
C31   C32   A    
C22   C23   A    
C49   C50   S    
C18   H2    S    
C4    C14   S    
C48   H35   S    
C43   C44   S    
C22   H7    S    
C24   H9    S    
C28   C29   A    
C46   H32   S    
C39   H21   S    
C11   C49   S    
C47   H38   S    
C9    C15   S    
O1    Zn1   S    
