data_mof_unit_22904.cif
_audit_creation_date              2012-12-10T18:57:50-0500
_audit_creation_method            fapswitch 2.2
_symmetry_space_group_name_H-M    P1
_symmetry_Int_Tables_number       1
_space_group_crystal_system       triclinic
_cell_length_a                    10.69925
_cell_length_b                    10.097318
_cell_length_c                    8.940192
_cell_angle_alpha                 91.051431
_cell_angle_beta                  95.285603
_cell_angle_gamma                 89.202447
_cell_volume                      961.500929924

loop_
_atom_site_label
_atom_site_type_symbol
_atom_type_description
_atom_site_fract_x
_atom_site_fract_y
_atom_site_fract_z
_atom_type_partial_charge
C1    C     C_R   0.260568 0.500556 0.498567 0.839546
C2    C     C_R   0.065417 0.617082 0.537047 -0.205919
C3    C     C_R   0.872374 0.499097 0.502181 0.001052
C4    C     C_R   0.127640 0.500900 0.498029 0.002030
C5    C     C_R   0.575622 0.072454 0.605665 0.155829
C6    C     C_R   0.424594 0.927911 0.393766 0.143028
C7    C     C_R   0.425517 0.071470 0.393251 0.150228
C8    C     C_R   0.572878 0.929228 0.608024 0.147746
C9    C     C_3   0.671266 0.146468 0.712491 -0.343211
C10   C     C_3   0.638531 0.160598 0.874579 -0.850241
C11   C     C_3   0.331349 0.854120 0.283244 -0.324019
C12   C     C_R   0.739436 0.499447 0.501505 0.839824
C13   C     C_3   0.376385 0.827276 0.128609 -0.840381
C14   C     C_3   0.341416 0.145407 0.274525 -0.306384
C15   C     C_3   0.390721 0.142032 0.119011 -0.853199
C16   C     C_3   0.648577 0.856194 0.733813 -0.324533
C17   C     C_3   0.575087 0.840156 0.870847 -0.822852
C18   C     C_R   0.499883 0.499256 0.219381 0.932330
C19   C     C_R   0.500449 0.500708 0.780648 0.935573
C20   C     C_1   0.500395 0.498925 0.065493 -0.238033
C21   C     C_1   0.500311 0.500924 0.934546 -0.228555
C22   C     C_R   0.062524 0.383857 0.460849 -0.195869
C23   C     C_R   0.937491 0.616131 0.539432 -0.196896
C24   C     C_R   0.934605 0.382904 0.463226 -0.203530
H1    H     H_    0.109962 0.293480 0.429323 0.143235
H2    H     H_    0.480136 0.829779 0.135727 0.277801
H3    H     H_    0.344736 0.728330 0.085461 0.246201
H4    H     H_    0.334130 0.897311 0.044854 0.244864
H5    H     H_    0.311490 0.758587 0.325340 0.255559
H6    H     H_    0.237047 0.901113 0.273116 0.156868
H7    H     H_    0.419008 0.241135 0.085753 0.268471
H8    H     H_    0.473478 0.075168 0.115560 0.261428
H9    H     H_    0.314851 0.112443 0.032412 0.233046
H10   H     H_    0.243724 0.109763 0.267844 0.146612
H11   H     H_    0.329164 0.248778 0.304851 0.252790
H12   H     H_    0.890044 0.706504 0.571001 0.143244
H13   H     H_    0.473274 0.828158 0.837488 0.278751
H14   H     H_    0.612214 0.752927 0.935214 0.247695
H15   H     H_    0.585287 0.924654 0.949319 0.233364
H16   H     H_    0.676332 0.757921 0.695410 0.242799
H17   H     H_    0.739941 0.902292 0.768886 0.165899
H18   H     H_    0.884725 0.292192 0.433091 0.154565
H19   H     H_    0.115309 0.707784 0.567198 0.152508
H20   H     H_    0.657067 0.262838 0.918251 0.249798
H21   H     H_    0.537800 0.140322 0.881601 0.276031
H22   H     H_    0.700506 0.095726 0.948440 0.240512
H23   H     H_    0.767133 0.104516 0.706800 0.151369
H24   H     H_    0.680851 0.246319 0.677547 0.267778
N1    N     N_R   0.500000 0.857200 0.500000 -0.146066
N2    N     N_R   0.500000 0.142800 0.500000 -0.148697
O1    O     O_R   0.316770 0.614620 0.499990 -0.651504
O2    O     O_R   0.683230 0.385380 0.500010 -0.652001
O3    O     O_R   0.683230 0.614620 0.500010 -0.641525
O4    O     O_R   0.316770 0.385380 0.499990 -0.645508
O5    O     O_R   0.500010 0.614640 0.285340 -0.604634
O6    O     O_R   0.499990 0.385360 0.714660 -0.607082
O7    O     O_R   0.499990 0.614640 0.714660 -0.614100
O8    O     O_R   0.500010 0.385360 0.285340 -0.618115
Zn1   Zn    Zn3+2 0.500000 0.653120 0.500000 0.909314
Zn2   Zn    Zn3+2 0.500000 0.346880 0.500000 0.915163

loop_
_geom_bond_atom_site_label_1
_geom_bond_atom_site_label_2
_ccdc_geom_bond_type
C19   O6    A    
C14   H10   S    
C5    C8    A    
C2    C4    A    
C1    O4    A    
C13   H4    S    
C5    C9    S    
C6    C7    A    
O5    Zn1   S    
C4    C22   A    
C9    C10   S    
C3    C23   A    
C12   O3    A    
N1    Zn1   S    
C2    H19   S    
C1    O1    A    
C1    C4    S    
N2    Zn2   S    
C2    C23   A    
C10   H21   S    
O3    Zn1   S    
C15   H8    S    
C8    C16   S    
O4    Zn2   S    
C19   O7    A    
C15   H7    S    
C11   C13   S    
C3    C24   A    
C18   O5    A    
C16   H16   S    
C16   H17   S    
C19   C21   S    
C15   H9    S    
C9    H23   S    
C18   C20   S    
C17   H14   S    
C6    N1    A    
C13   H2    S    
C22   C24   A    
C5    N2    A    
O7    Zn1   S    
O1    Zn1   S    
O8    Zn2   S    
C10   H22   S    
C6    C11   S    
C24   H18   S    
C20   C21   T    
C11   H5    S    
C9    H24   S    
C23   H12   S    
C17   H15   S    
C14   H11   S    
C14   C15   S    
C13   H3    S    
C17   H13   S    
C3    C12   S    
O2    Zn2   S    
C12   O2    A    
C7    N2    A    
C10   H20   S    
C8    N1    A    
C18   O8    A    
C7    C14   S    
O6    Zn2   S    
C11   H6    S    
C16   C17   S    
C22   H1    S    
