data_mof_unit_28243.cif
_audit_creation_date              2012-12-10T17:57:26-0500
_audit_creation_method            fapswitch 2.2
_symmetry_space_group_name_H-M    P1
_symmetry_Int_Tables_number       1
_space_group_crystal_system       triclinic
_cell_length_a                    9.558005
_cell_length_b                    10.803055
_cell_length_c                    13.349323
_cell_angle_alpha                 90.827064
_cell_angle_beta                  73.199643
_cell_angle_gamma                 91.171707
_cell_volume                      1319.23184448

loop_
_atom_site_label
_atom_site_type_symbol
_atom_type_description
_atom_site_fract_x
_atom_site_fract_y
_atom_site_fract_z
_atom_type_partial_charge
C1    C     C_R   0.500814 0.737758 0.500489 0.787138
C2    C     C_R   0.454064 0.519062 0.973992 0.069690
C3    C     C_R   0.464713 0.468414 0.873688 0.081921
C4    C     C_R   0.550729 0.477870 0.029195 0.015989
C5    C     C_R   0.634421 0.370352 0.992931 0.139188
C6    C     C_R   0.637466 0.316993 0.896661 -0.239947
C7    C     C_R   0.556540 0.367048 0.836573 -0.204844
C8    C     C_R   0.563585 0.537627 0.121229 -0.083650
C9    C     C_R   0.697733 0.361393 0.154697 -0.204004
C10   C     C_R   0.379724 0.518010 0.813748 -0.096645
C11   C     C_R   0.632691 0.937786 0.461963 -0.182571
C12   C     C_R   0.422306 0.501029 0.700002 0.777257
C13   C     C_R   0.631529 0.065923 0.460471 -0.191512
C14   C     C_R   0.499220 0.128269 0.499331 -0.006583
C15   C     C_R   0.368472 0.062048 0.540323 -0.189227
C16   C     C_R   0.369233 0.933969 0.540427 -0.207689
C17   C     C_R   0.501379 0.871615 0.501392 -0.018557
C18   C     C_R   0.901383 0.577115 0.565297 -0.021224
C19   C     C_R   0.050019 0.577197 0.565210 -0.050907
C20   C     C_R   0.096322 0.422658 0.434326 0.092738
C21   C     C_R   0.948241 0.423868 0.434725 -0.053275
C22   C     C_R   0.499307 0.262200 0.499564 0.782522
C23   C     C_R   0.577913 0.497944 0.300342 0.806989
C24   C     C_R   0.710774 0.315149 0.054953 -0.201776
C25   C     C_R   0.621232 0.470486 0.188917 -0.052765
C26   C     C_R   0.268614 0.601477 0.859785 -0.189703
C27   C     C_R   0.246859 0.640772 0.962690 -0.148958
C28   C     C_R   0.339907 0.602014 0.018898 -0.173402
Cu1   Cu    Cu3+1 0.359340 0.499980 0.500000 0.937144
Cu2   Cu    Cu3+1 0.640660 0.500020 0.500000 0.938969
H1    H     H_    0.743665 0.310016 0.206474 0.139396
H2    H     H_    0.733712 0.116141 0.428448 0.141760
H3    H     H_    0.266516 0.109162 0.573848 0.138782
H4    H     H_    0.266996 0.883808 0.572312 0.140552
H5    H     H_    0.825989 0.638924 0.617807 0.124619
H6    H     H_    0.086116 0.638985 0.617619 0.117873
H7    H     H_    0.909567 0.362354 0.383224 0.125078
H8    H     H_    0.701943 0.235623 0.867967 0.143313
H9    H     H_    0.771993 0.231415 0.029258 0.130463
H10   H     H_    0.201970 0.639755 0.814908 0.139572
H11   H     H_    0.317160 0.633632 0.098969 0.138130
H12   H     H_    0.159960 0.704321 0.998199 0.140458
H13   H     H_    0.560322 0.321041 0.763298 0.158334
H14   H     H_    0.735339 0.890574 0.430833 0.148977
N1    N     N_R   0.147940 0.499970 0.499970 -0.174471
N2    N     N_R   0.852060 0.500060 0.499990 -0.163208
O1    O     O_R   0.381250 0.680340 0.500010 -0.596879
O2    O     O_R   0.618820 0.680370 0.500010 -0.581757
O3    O     O_R   0.323240 0.499950 0.650980 -0.580401
O4    O     O_R   0.560810 0.499980 0.650980 -0.575723
O5    O     O_R   0.381180 0.319630 0.499990 -0.573909
O6    O     O_R   0.618750 0.319660 0.499990 -0.593907
O7    O     O_R   0.439190 0.500020 0.349020 -0.586885
O8    O     O_R   0.676760 0.500050 0.349020 -0.580874
C29   C     C_R   0.186413 0.330136 0.364334 0.155491
C30   C     C_R   0.174814 0.206361 0.396587 -0.144849
C31   C     C_R   0.231339 0.111740 0.324848 -0.152747
C32   C     C_R   0.296904 0.139652 0.219674 -0.136065
C33   C     C_R   0.304845 0.262099 0.186194 -0.134843
C34   C     C_R   0.248561 0.357071 0.257935 -0.135063
H15   H     H_    0.116023 0.182919 0.476434 0.113473
H16   H     H_    0.219388 0.016523 0.350385 0.130712
H17   H     H_    0.337373 0.066174 0.163479 0.140662
H18   H     H_    0.349854 0.282561 0.104044 0.148280
H19   H     H_    0.248587 0.450769 0.230183 0.123562
C35   C     C_R   0.568964 0.675663 0.127722 0.090097
C36   C     C_R   0.485528 0.741805 0.215549 -0.192668
C37   C     C_R   0.507394 0.869314 0.224284 -0.143035
C38   C     C_R   0.608538 0.933102 0.144201 -0.115313
C39   C     C_R   0.688153 0.869312 0.054921 -0.149185
C40   C     C_R   0.669209 0.741259 0.046839 -0.107978
H20   H     H_    0.403150 0.695982 0.277150 0.158596
H21   H     H_    0.446341 0.918592 0.293556 0.147797
H22   H     H_    0.624847 0.031949 0.151257 0.129821
H23   H     H_    0.766365 0.918748 0.992692 0.118178
H24   H     H_    0.735350 0.692710 0.978481 0.123482

loop_
_geom_bond_atom_site_label_1
_geom_bond_atom_site_label_2
_ccdc_geom_bond_type
C29   C30   A    
C8    C35   S    
C13   H2    S    
C4    C8    A    
C12   O3    A    
C9    C25   A    
C31   H16   S    
Cu1   O3    S    
Cu2   O8    S    
C26   C27   A    
Cu1   O1    S    
Cu2   O2    S    
C36   H20   S    
C3    C7    A    
C19   H6    S    
C40   H24   S    
C16   C17   A    
C15   C16   A    
C28   H11   S    
C24   H9    S    
C30   C31   A    
C18   C19   A    
C16   H4    S    
C37   C38   A    
C6    H8    S    
C39   C40   A    
C7    H13   S    
C18   H5    S    
C20   N1    A    
C10   C26   A    
C35   C36   A    
Cu2   O4    S    
C33   C34   A    
C29   C34   A    
C8    C25   A    
C20   C29   S    
C18   N2    A    
C23   O7    A    
C36   C37   A    
C11   H14   S    
C1    O1    A    
C32   C33   A    
Cu1   N1    S    
C2    C4    A    
Cu1   Cu2   S    
C35   C40   A    
C33   H18   S    
C38   H22   S    
C1    O2    A    
C10   C12   S    
C34   H19   S    
C27   C28   A    
C23   O8    A    
C22   O6    A    
C21   N2    A    
Cu1   O5    S    
C32   H17   S    
Cu2   O6    S    
C11   C17   A    
C30   H15   S    
Cu2   N2    S    
C4    C5    A    
C12   O4    A    
C19   N1    A    
C9    C24   A    
C6    C7    A    
C1    C17   S    
C14   C22   S    
C2    C3    A    
C37   H21   S    
C3    C10   A    
C11   C13   A    
C27   H12   S    
C26   H10   S    
C31   C32   A    
C5    C6    A    
C5    C24   A    
Cu1   O7    S    
C23   C25   S    
C38   C39   A    
C9    H1    S    
C21   H7    S    
C20   C21   A    
C39   H23   S    
C14   C15   A    
C2    C28   A    
C13   C14   A    
C15   H3    S    
C22   O5    A    
