data_mof_unit_27858.cif
_audit_creation_date              2012-10-26T18:32:00-0400
_audit_creation_method            fapswitch 2.2
_symmetry_space_group_name_H-M    P1
_symmetry_Int_Tables_number       1
_space_group_crystal_system       triclinic
_cell_length_a                    12.429474
_cell_length_b                    13.330737
_cell_length_c                    14.358161
_cell_angle_alpha                 94.538119
_cell_angle_beta                  107.983811
_cell_angle_gamma                 117.319574
_cell_volume                      1940.58076128

loop_
_atom_site_label
_atom_site_type_symbol
_atom_type_description
_atom_site_fract_x
_atom_site_fract_y
_atom_site_fract_z
_atom_type_partial_charge
C1    C     C_R   0.650239 0.713779 0.508105 0.520321
C2    C     C_R   0.181849 0.456648 0.003887 0.052084
C3    C     C_R   0.143222 0.488026 0.079236 0.036145
C4    C     C_R   0.619109 0.518002 0.686593 0.535381
C5    C     C_R   0.287318 0.436360 0.030593 -0.129159
C6    C     C_R   0.354164 0.445522 0.131477 -0.124273
C7    C     C_R   0.217974 0.504217 0.180715 -0.117213
C8    C     C_R   0.147780 0.959053 0.378885 -0.122183
C9    C     C_R   0.251237 0.161409 0.468646 0.005094
C10   C     C_R   0.726446 0.922906 0.567410 -0.128015
C11   C     C_R   0.816093 0.040485 0.585266 -0.139826
C12   C     C_R   0.859118 0.514078 0.920147 0.032943
C13   C     C_R   0.918644 0.074107 0.552357 -0.119800
C14   C     C_R   0.930382 0.989801 0.496312 0.037831
C15   C     C_R   0.829237 0.870859 0.467583 0.023686
C16   C     C_R   0.346134 0.285276 0.486428 0.572854
C17   C     C_R   0.038886 0.019349 0.467669 0.035259
C18   C     C_R   0.039406 0.931979 0.404725 0.051781
C19   C     C_R   0.930736 0.819174 0.366521 -0.134622
C20   C     C_R   0.825830 0.789684 0.395525 -0.120475
C21   C     C_R   0.147920 0.132973 0.500622 -0.119217
C22   C     C_R   0.253560 0.073246 0.411122 -0.119507
C23   C     C_R   0.810202 0.530678 0.993563 0.053711
C24   C     C_R   0.733844 0.836882 0.511265 -0.002035
C25   C     C_R   0.260557 0.693195 0.661277 -0.157553
C26   C     C_R   0.654477 0.328034 0.375315 0.236891
C27   C     C_R   0.725497 0.271576 0.380161 -0.123266
C28   C     C_R   0.383241 0.485164 0.313708 0.571862
C29   C     C_R   0.857468 0.329377 0.442762 -0.136954
C30   C     C_R   0.924700 0.449154 0.489537 -0.003410
C31   C     C_R   0.844483 0.495143 0.501075 0.155523
C32   C     C_R   0.066631 0.519998 0.535037 -0.001459
C33   C     C_R   0.123510 0.624699 0.609977 0.017287
C34   C     C_R   0.967261 0.494976 0.947648 0.033141
C35   C     C_R   0.042988 0.660903 0.632590 -0.172641
C36   C     C_R   0.906992 0.599101 0.577916 -0.107037
C37   C     C_R   0.154960 0.496321 0.505331 0.215296
C38   C     C_R   0.342149 0.661525 0.635364 0.019209
C39   C     C_R   0.685386 0.526623 0.793356 -0.002111
C40   C     C_R   0.318519 0.478283 0.206949 0.006702
C41   C     C_R   0.699861 0.544071 0.966170 -0.128378
C42   C     C_R   0.636719 0.540623 0.866233 -0.134723
C43   C     C_R   0.797815 0.517277 0.821427 -0.133788
C44   C     C_R   0.031802 0.502403 0.050967 0.035184
C45   C     C_R   0.979858 0.519504 0.121912 -0.129182
C46   C     C_R   0.870938 0.532756 0.093338 -0.127224
C47   C     C_R   0.010072 0.464706 0.874846 -0.136402
C48   C     C_R   0.114673 0.445266 0.902707 -0.130946
Cu1   Cu    Cu3+1 0.416420 0.526630 0.522910 0.968181
Cu2   Cu    Cu3+1 0.583580 0.473370 0.477090 0.958319
H1    H     H_    0.833764 0.544419 0.149957 0.111661
H2    H     H_    0.447634 0.714562 0.675868 0.122214
H3    H     H_    0.201133 0.538954 0.241334 0.141861
H4    H     H_    0.086008 0.739992 0.691514 0.118707
H5    H     H_    0.304740 0.771903 0.720921 0.105262
H6    H     H_    0.905604 0.278997 0.454844 0.144125
H7    H     H_    0.678175 0.182269 0.336051 0.139683
H8    H     H_    0.854117 0.633156 0.601458 0.178365
H9    H     H_    0.433786 0.427625 0.150240 0.155002
H10   H     H_    0.142971 0.420834 0.844335 0.108416
H11   H     H_    0.661450 0.555719 0.021851 0.107138
H12   H     H_    0.316982 0.411968 0.973236 0.109578
H13   H     H_    0.550005 0.548529 0.846076 0.128492
H14   H     H_    0.836732 0.514128 0.764744 0.122393
H15   H     H_    0.017842 0.518977 0.200016 0.131850
H16   H     H_    0.962234 0.450938 0.794588 0.108887
H17   H     H_    0.154742 0.202065 0.550609 0.125223
H18   H     H_    0.334457 0.092914 0.388098 0.160401
H19   H     H_    0.926724 0.753258 0.313952 0.107172
H20   H     H_    0.149361 0.892372 0.331893 0.117758
H21   H     H_    0.652938 0.899334 0.599874 0.130760
H22   H     H_    0.985385 0.166884 0.570750 0.101601
H23   H     H_    0.808818 0.106101 0.628066 0.121904
H24   H     H_    0.741278 0.702926 0.358806 0.151573
I1    I     I_    0.076877 0.366944 0.365105 -0.390792
I2    I     I_    0.461108 0.236251 0.262193 -0.393757
N1    N     N_R   0.290690 0.566960 0.557640 -0.224422
N2    N     N_R   0.709100 0.433710 0.442970 -0.230666
O1    O     O_R   0.545970 0.684450 0.528810 -0.507693
O2    O     O_R   0.687130 0.639470 0.490120 -0.533871
O3    O     O_R   0.519670 0.535100 0.660030 -0.507972
O4    O     O_R   0.660830 0.490120 0.621340 -0.523039
O5    O     O_R   0.312870 0.360530 0.509880 -0.479488
O6    O     O_R   0.454030 0.315550 0.471190 -0.476955
O7    O     O_R   0.339170 0.509880 0.378660 -0.473813
O8    O     O_R   0.480330 0.464900 0.339970 -0.480840

loop_
_geom_bond_atom_site_label_1
_geom_bond_atom_site_label_2
_ccdc_geom_bond_type
C30   C32   A    
C27   C29   A    
C41   C42   A    
C35   C36   A    
C41   H11   S    
Cu2   O6    S    
C45   C46   A    
C12   C23   A    
C26   C27   A    
C26   N2    A    
C9    C16   S    
C12   C43   A    
C36   H8    S    
C5    C6    A    
C9    C22   A    
C38   H2    S    
C28   C40   S    
C16   O6    A    
C18   C19   A    
Cu1   O3    S    
C4    O3    A    
C19   C20   A    
C8    C22   A    
C7    C40   A    
C47   H16   S    
C10   H21   S    
C37   I1    S    
C23   C46   A    
C13   C14   A    
C21   H17   S    
C35   H4    S    
C14   C17   A    
Cu2   N2    S    
C43   H14   S    
C48   H10   S    
C39   C42   A    
C15   C20   A    
C3    C44   A    
Cu1   O7    S    
C34   C44   A    
C27   H7    S    
C39   C43   A    
C3    C7    A    
C2    C48   A    
C37   N1    A    
C46   H1    S    
C16   O5    A    
C17   C21   A    
Cu1   O1    S    
C29   C30   A    
C25   C38   A    
C26   I2    S    
C47   C48   A    
C4    C39   S    
C8    C18   A    
C17   C18   A    
C20   H24   S    
C32   C37   A    
C22   H18   S    
C15   C24   A    
C29   H6    S    
C13   H22   S    
C28   O8    A    
C1    O1    A    
C6    C40   A    
C19   H19   S    
C2    C5    A    
C7    H3    S    
C12   C34   A    
C44   C45   A    
Cu2   O4    S    
C31   N2    A    
C14   C15   A    
C6    H9    S    
C25   H5    S    
Cu2   O2    S    
C38   N1    A    
C8    H20   S    
C23   C41   A    
C10   C24   A    
C32   C33   A    
Cu1   O5    S    
C2    C3    A    
C45   H15   S    
C11   C13   A    
C9    C21   A    
C30   C31   A    
C33   C35   A    
Cu1   N1    S    
C5    H12   S    
C11   H23   S    
C10   C11   A    
Cu2   O8    S    
C4    O4    A    
C1    C24   S    
Cu1   Cu2   S    
C28   O7    A    
C1    O2    A    
C31   C36   A    
C34   C47   A    
C42   H13   S    
C25   C33   A    
