data_mof_unit_13256.cif
_audit_creation_date              2012-12-10T18:10:24-0500
_audit_creation_method            fapswitch 2.2
_symmetry_space_group_name_H-M    P1
_symmetry_Int_Tables_number       1
_space_group_crystal_system       triclinic
_cell_length_a                    10.74102
_cell_length_b                    9.447116
_cell_length_c                    15.867868
_cell_angle_alpha                 90.101808
_cell_angle_beta                  89.590259
_cell_angle_gamma                 89.966863
_cell_volume                      1610.09494139

loop_
_atom_site_label
_atom_site_type_symbol
_atom_type_description
_atom_site_fract_x
_atom_site_fract_y
_atom_site_fract_z
_atom_type_partial_charge
C1    C     C_R   0.259670 0.499975 0.500746 0.780250
C2    C     C_3   0.569124 0.629788 0.952035 -0.397719
C3    C     C_3   0.569391 0.627085 0.049652 -0.506224
C4    C     C_1   0.501547 0.499876 0.824900 -0.087966
C5    C     C_1   0.500343 0.497474 0.175229 -0.093967
C6    C     C_1   0.500523 0.499158 0.250754 -0.215592
C7    C     C_3   0.075887 0.618820 0.566515 -0.429040
C8    C     C_3   0.073262 0.352922 0.536214 -0.431176
C9    C     C_3   0.930990 0.627046 0.569245 0.136839
C10   C     C_3   0.931403 0.357635 0.554754 0.123142
C11   C     C_3   0.066173 0.527899 0.418218 -0.430397
C12   C     C_3   0.121580 0.499864 0.505648 0.118283
C13   C     C_3   0.877434 0.499396 0.516964 0.098987
C14   C     C_R   0.500033 0.499860 0.340352 0.839383
C15   C     C_3   0.923532 0.514944 0.423689 -0.509740
C16   C     C_3   0.579594 0.083450 0.569206 -0.234943
C17   C     C_3   0.581229 0.917251 0.568326 -0.240155
C18   C     C_3   0.373487 0.083751 0.516519 -0.280720
C19   C     C_3   0.373773 0.916497 0.517879 -0.279311
C20   C     C_3   0.545244 0.084262 0.419173 0.239436
C21   C     C_3   0.542296 0.915329 0.418529 0.244124
C22   C     C_R   0.738547 0.499852 0.511901 0.806839
C23   C     C_R   0.500122 0.500123 0.659757 0.823667
C24   C     C_3   0.361737 0.505422 0.048574 0.122670
C25   C     C_3   0.568211 0.361559 0.047482 0.145400
C26   C     C_3   0.566449 0.362959 0.949370 -0.421956
C27   C     C_3   0.364944 0.497945 0.950500 -0.380442
C28   C     C_1   0.501169 0.500339 0.749358 -0.192263
C29   C     C_3   0.498284 0.494853 0.082892 0.208489
C30   C     C_3   0.500773 0.498100 0.917044 0.248443
Cu1   Cu    Cu3+1 0.499860 0.642410 0.500040 0.910457
Cu2   Cu    Cu3+1 0.499860 0.357590 0.500040 0.910266
H1    H     H_    0.317452 0.400494 0.927747 0.180267
H2    H     H_    0.518169 0.267688 0.924281 0.169119
H3    H     H_    0.902678 0.727131 0.537453 0.124214
H4    H     H_    0.888834 0.264737 0.522652 0.127792
H5    H     H_    0.092391 0.635723 0.396134 0.170284
H6    H     H_    0.103308 0.450682 0.371268 0.164356
H7    H     H_    0.881425 0.610115 0.393959 0.181526
H8    H     H_    0.893299 0.421306 0.386328 0.181443
H9    H     H_    0.546512 0.120383 0.632042 0.160446
H10   H     H_    0.550386 0.879098 0.631283 0.159514
H11   H     H_    0.675713 0.122039 0.561903 0.143274
H12   H     H_    0.678210 0.881100 0.559295 0.138421
H13   H     H_    0.334791 0.124546 0.577107 0.166915
H14   H     H_    0.337566 0.878532 0.579718 0.165838
H15   H     H_    0.478200 0.119313 0.370118 0.098995
H16   H     H_    0.470767 0.884559 0.371352 0.086832
H17   H     H_    0.309217 0.120085 0.466329 0.139937
H18   H     H_    0.307541 0.877707 0.469504 0.141127
H19   H     H_    0.667141 0.370774 0.067796 0.132031
H20   H     H_    0.324740 0.611323 0.067447 0.127384
H21   H     H_    0.663796 0.359055 0.924880 0.147811
H22   H     H_    0.313193 0.589965 0.924453 0.134953
H23   H     H_    0.525599 0.725826 0.074321 0.174619
H24   H     H_    0.667229 0.626337 0.072388 0.176061
H25   H     H_    0.522410 0.728043 0.929962 0.171199
H26   H     H_    0.666730 0.632222 0.928017 0.172595
H27   H     H_    0.111970 0.723567 0.545608 0.149922
H28   H     H_    0.091347 0.272270 0.486286 0.148879
H29   H     H_    0.116911 0.599284 0.629565 0.142776
H30   H     H_    0.127168 0.316777 0.591780 0.151559
N1    N     N_3   0.500250 0.143650 0.501830 -0.139172
N2    N     N_3   0.500250 0.856350 0.501830 -0.138243
O1    O     O_R   0.317570 0.620260 0.500050 -0.599862
O2    O     O_R   0.317570 0.379740 0.500050 -0.599599
O3    O     O_R   0.499890 0.620310 0.379470 -0.555243
O4    O     O_R   0.499890 0.379690 0.379470 -0.560955
O5    O     O_R   0.682190 0.620260 0.500020 -0.577214
O6    O     O_R   0.682190 0.379740 0.500020 -0.577361
O7    O     O_R   0.499870 0.620210 0.620600 -0.594119
O8    O     O_R   0.499870 0.379790 0.620600 -0.596402
N3    N     N_2   0.667787 0.141450 0.397090 -0.372478
H31   H     H_    0.743393 0.111532 0.432389 0.221964
C31   C     C_3   0.695131 0.174441 0.309679 -0.671244
H32   H     H_    0.789943 0.136608 0.292726 0.188832
H33   H     H_    0.694167 0.290661 0.300658 0.238631
H34   H     H_    0.627065 0.124705 0.266452 0.230758
N4    N     N_2   0.660678 0.851989 0.392097 -0.366318
H35   H     H_    0.739056 0.870759 0.427358 0.228058
C32   C     C_3   0.683422 0.823372 0.303409 -0.682823
H36   H     H_    0.759914 0.891256 0.279505 0.206054
H37   H     H_    0.599421 0.841002 0.264369 0.210892
H38   H     H_    0.713173 0.711584 0.295819 0.224594
N5    N     N_2   0.278549 0.397569 0.083235 -0.430524
H39   H     H_    0.296681 0.367873 0.144391 0.267542
C33   C     C_3   0.146755 0.422235 0.071059 -0.764446
H40   H     H_    0.093273 0.329025 0.093693 0.229851
H41   H     H_    0.125497 0.437859 0.003359 0.236686
H42   H     H_    0.116278 0.516873 0.107443 0.220902
N6    N     N_2   0.517331 0.229650 0.080683 -0.415556
H43   H     H_    0.430672 0.203270 0.058149 0.283014
C34   C     C_3   0.601550 0.109885 0.080287 -0.777335
H44   H     H_    0.556977 0.019246 0.113187 0.226066
H45   H     H_    0.688925 0.136454 0.113803 0.234554
H46   H     H_    0.623908 0.077726 0.014521 0.229370
N7    N     N_2   0.886455 0.627743 0.656883 -0.400295
H47   H     H_    0.948313 0.597705 0.702908 0.263044
C35   C     C_3   0.805251 0.740614 0.684171 -0.758546
H48   H     H_    0.798449 0.741620 0.754083 0.221297
H49   H     H_    0.711094 0.719985 0.660233 0.261846
H50   H     H_    0.841183 0.845006 0.662973 0.209203
N8    N     N_2   0.909939 0.347782 0.645911 -0.409377
H51   H     H_    0.985611 0.355645 0.685318 0.249680
C36   C     C_3   0.813415 0.255995 0.677513 -0.740095
H52   H     H_    0.810961 0.261027 0.747449 0.222452
H53   H     H_    0.832419 0.144909 0.658409 0.205617
H54   H     H_    0.722078 0.293306 0.655131 0.261143

loop_
_geom_bond_atom_site_label_1
_geom_bond_atom_site_label_2
_ccdc_geom_bond_type
C24   H20   S    
C33   H40   S    
C26   H21   S    
C34   H44   S    
N3    H31   S    
C24   C27   S    
N7    H47   S    
C2    H25   S    
Cu2   O8    S    
N5    H39   S    
C27   H1    S    
Cu1   O3    S    
C36   H53   S    
C10   N8    S    
C17   N2    S    
C5    C6    T    
C18   N1    S    
N6    C34   S    
C11   H5    S    
C18   C19   S    
C3    C29   S    
C9    C13   S    
C24   C29   S    
C7    H29   S    
C21   N2    S    
C4    C28   T    
C17   H10   S    
C11   C15   S    
C26   H2    S    
Cu1   Cu2   S    
C16   C17   S    
C13   C22   S    
C1    O1    A    
C14   O3    A    
C16   N1    S    
C24   N5    S    
C22   O5    A    
Cu2   O4    S    
C21   H16   S    
Cu1   O7    S    
C34   H45   S    
C27   C30   S    
N3    C31   S    
C1    C12   S    
C3    H23   S    
C23   O8    A    
C7    H27   S    
N7    C35   S    
C32   H36   S    
C5    C29   S    
N5    C33   S    
C25   C29   S    
C7    C12   S    
C36   H54   S    
C19   H14   S    
C25   N6    S    
C23   O7    A    
N6    H43   S    
N4    C32   S    
Cu2   O6    S    
C25   C26   S    
C11   H6    S    
C31   H32   S    
C25   H19   S    
C6    C14   S    
C3    H24   S    
C35   H48   S    
C19   N2    S    
C8    C12   S    
C21   N4    S    
C1    O2    A    
N8    C36   S    
C23   C28   S    
C31   H33   S    
C16   H11   S    
C15   H7    S    
C27   H22   S    
C35   H49   S    
C26   C30   S    
C34   H46   S    
C13   C15   S    
C18   H13   S    
C32   H38   S    
Cu2   O2    S    
Cu1   O1    S    
C9    N7    S    
Cu1   N2    S    
Cu2   N1    S    
C10   C13   S    
C32   H37   S    
C11   C12   S    
C2    H26   S    
C36   H52   S    
C2    C30   S    
C20   N1    S    
C33   H41   S    
C2    C3    S    
C17   H12   S    
C8    H28   S    
C19   H18   S    
C20   N3    S    
C31   H34   S    
C15   H8    S    
C20   H15   S    
N4    H35   S    
C7    C9    S    
Cu1   O5    S    
C35   H50   S    
C20   C21   S    
C8    C10   S    
C33   H42   S    
N8    H51   S    
C9    H3    S    
C14   O4    A    
C10   H4    S    
C16   H9    S    
C22   O6    A    
C4    C30   S    
C18   H17   S    
C8    H30   S    
