data_mof_unit_20939.cif
_audit_creation_date              2012-12-11T14:26:44-0500
_audit_creation_method            fapswitch 2.2
_symmetry_space_group_name_H-M    P1
_symmetry_Int_Tables_number       1
_space_group_crystal_system       triclinic
_cell_length_a                    14.990575
_cell_length_b                    14.882331
_cell_length_c                    14.91984
_cell_angle_alpha                 109.51584
_cell_angle_beta                  109.570786
_cell_angle_gamma                 109.07946
_cell_volume                      2570.06571114

loop_
_atom_site_label
_atom_site_type_symbol
_atom_type_description
_atom_site_fract_x
_atom_site_fract_y
_atom_site_fract_z
_atom_type_partial_charge
C1    C     C_R   0.992593 0.799150 0.086855 -0.156772
C2    C     C_R   0.697609 0.138073 0.696450 0.141909
C3    C     C_R   0.946549 0.499527 0.676264 0.132899
C4    C     C_R   0.673686 0.499497 0.949708 -0.007822
C5    C     C_R   0.003123 0.591107 0.302800 -0.162087
C6    C     C_R   0.208239 0.407536 0.903506 -0.150128
C7    C     C_R   0.313735 0.762377 0.224332 0.145852
C8    C     C_R   0.979597 0.255594 0.068643 -0.149341
C9    C     C_R   0.071686 0.255821 0.977636 -0.118110
C10   C     C_R   0.220057 0.748930 0.313316 -0.165178
C11   C     C_R   0.911975 0.409012 0.211146 -0.134589
C12   C     C_R   0.791144 0.199349 0.699360 -0.162887
C13   C     C_R   0.296811 0.588420 0.990973 -0.147801
C14   C     C_R   0.947736 0.500316 0.307511 0.138520
C15   C     C_R   0.297787 0.497223 0.928848 -0.004773
C16   C     C_R   0.323241 0.781511 0.325761 0.099083
C17   C     C_R   0.058370 0.232604 0.056357 0.133603
C18   C     C_3   0.469896 0.394295 0.830263 -0.397601
C19   C     C_3   0.365286 0.394597 0.823591 -0.405601
C20   C     C_3   0.565190 0.500721 0.037904 -0.393576
C21   C     C_3   0.569294 0.599957 0.929149 -0.397338
C22   C     C_3   0.571478 0.498641 0.935641 0.392375
C23   C     C_R   0.023486 0.591187 0.778169 -0.152606
C24   C     C_3   0.394755 0.497424 0.925877 0.399161
C25   C     C_3   0.460668 0.497634 0.030965 -0.390827
C26   C     C_3   0.466065 0.600758 0.926319 -0.408345
C27   C     C_2   0.432874 0.872983 0.524635 -0.114909
C28   C     C_2   0.424306 0.828260 0.426027 -0.199133
C29   C     C_2   0.536056 0.964271 0.621726 -0.116539
C30   C     C_2   0.617060 0.025494 0.612238 -0.197326
C31   C     C_2   0.841373 0.412106 0.477413 -0.113335
C32   C     C_2   0.895185 0.502226 0.576062 -0.193083
C33   C     C_2   0.843260 0.418377 0.381935 -0.119918
C34   C     C_R   0.685956 0.408043 0.934108 -0.137079
C35   C     C_2   0.924147 0.504078 0.394896 -0.197754
C36   C     C_2   0.163536 0.138976 0.076742 -0.113601
C37   C     C_2   0.110211 0.185090 0.112283 -0.193055
C38   C     C_2   0.159111 0.040551 0.080801 -0.120197
C39   C     C_2   0.075494 0.972345 0.082328 -0.197336
C40   C     C_R   0.934274 0.408052 0.687173 -0.116377
C41   C     C_R   0.775702 0.591462 0.025826 -0.131993
C42   C     C_R   0.700476 0.199809 0.790845 -0.127274
C43   C     C_R   0.085991 0.799894 0.998064 -0.134056
C44   C     C_R   0.049721 0.860237 0.053210 0.137017
H1    H     H_    0.967532 0.828835 0.145405 0.089786
H2    H     H_    0.178103 0.322470 0.848199 0.085241
H3    H     H_    0.950332 0.246400 0.123731 0.098556
H4    H     H_    0.127468 0.248360 0.949045 0.087635
H5    H     H_    0.198229 0.754617 0.376026 0.106051
H6    H     H_    0.854124 0.325252 0.181355 0.083117
H7    H     H_    0.347187 0.669831 0.010286 0.087300
H8    H     H_    0.465655 0.318534 0.830590 0.146064
H9    H     H_    0.473824 0.391063 0.756160 0.158047
H10   H     H_    0.318775 0.394185 0.747466 0.157253
H11   H     H_    0.820979 0.169180 0.645832 0.092535
H12   H     H_    0.313612 0.317970 0.818655 0.144714
H13   H     H_    0.567921 0.429218 0.044619 0.155942
H14   H     H_    0.411642 0.422948 0.030972 0.155747
H15   H     H_    0.640931 0.677789 0.001198 0.145182
H16   H     H_    0.571125 0.597773 0.854527 0.159442
H17   H     H_    0.418911 0.603244 0.852449 0.155658
H18   H     H_    0.492260 0.677001 0.999914 0.150043
H19   H     H_    0.636084 0.576238 0.114097 0.156467
H20   H     H_    0.481308 0.570100 0.105310 0.156077
H21   H     H_    0.360877 0.857960 0.532644 0.115842
H22   H     H_    0.052019 0.675625 0.798066 0.098390
H23   H     H_    0.495191 0.836563 0.417635 0.133797
H24   H     H_    0.535737 0.993159 0.698572 0.113491
H25   H     H_    0.619531 0.999299 0.536651 0.122961
H26   H     H_    0.811935 0.331113 0.468867 0.117256
H27   H     H_    0.917716 0.582666 0.583815 0.128300
H28   H     H_    0.788336 0.344435 0.302430 0.117912
H29   H     H_    0.981760 0.577735 0.473985 0.128891
H30   H     H_    0.193386 0.158938 0.025204 0.113549
H31   H     H_    0.087022 0.170696 0.169841 0.128716
H32   H     H_    0.214554 0.015397 0.063753 0.117821
H33   H     H_    0.623469 0.323091 0.886745 0.090466
H34   H     H_    0.017527 0.994590 0.096572 0.129919
H35   H     H_    0.880661 0.323176 0.624211 0.090928
H36   H     H_    0.795936 0.676226 0.063528 0.089306
H37   H     H_    0.648130 0.172011 0.822127 0.078837
H38   H     H_    0.144820 0.828691 0.973575 0.082912
H39   H     H_    0.027269 0.674680 0.357093 0.090177
N1    N     N_R   0.993980 0.704500 0.053430 -0.036332
N2    N     N_R   0.154170 0.443650 0.946570 -0.032849
N3    N     N_R   0.207180 0.704490 0.150760 -0.062960
N4    N     N_R   0.948740 0.295490 0.002840 -0.041552
N5    N     N_R   0.006020 0.295500 0.946570 -0.044161
N6    N     N_R   0.149890 0.704480 0.207030 -0.051846
N7    N     N_R   0.946310 0.443620 0.150760 -0.041290
N8    N     N_R   0.209610 0.556360 0.002840 -0.035677
N9    N     N_R   0.850110 0.295520 0.792970 -0.039089
N10   N     N_R   0.053690 0.556380 0.849240 -0.040506
N11   N     N_R   0.790390 0.443640 0.997160 -0.036253
N12   N     N_R   0.998260 0.443670 0.792970 -0.042373
N13   N     N_R   0.845830 0.556350 0.053430 -0.034639
N14   N     N_R   0.792820 0.295510 0.849240 -0.040544
N15   N     N_R   0.051260 0.704510 0.997160 -0.041659
N16   N     N_R   0.001740 0.556330 0.207030 -0.037122
Ni1   Ni    Ni4+2 0.997880 0.629240 0.129060 0.207168
Ni2   Ni    Ni4+2 0.002120 0.370760 0.870940 0.208542
Ni3   Ni    Ni4+2 0.129260 0.629260 0.000000 0.201092
Ni4   Ni    Ni4+2 0.870740 0.370740 0.000000 0.207090
C45   C     C_3   0.399842 0.825775 0.205189 -0.482598
C46   C     C_3   0.453595 0.950379 0.278757 -0.220104
C47   C     C_3   0.534235 0.012645 0.251631 -0.965362
H40   H     H_    0.599385 0.990154 0.264012 0.261176
H41   H     H_    0.491828 0.993536 0.165248 0.260333
H42   H     H_    0.572337 0.102236 0.306452 0.252340
H43   H     H_    0.389904 0.975074 0.266725 0.200859
H44   H     H_    0.498123 0.974954 0.366383 0.197902
H45   H     H_    0.461905 0.799009 0.217383 0.184437
H46   H     H_    0.359403 0.810217 0.120262 0.193577

loop_
_geom_bond_atom_site_label_1
_geom_bond_atom_site_label_2
_ccdc_geom_bond_type
C19   H12   S    
C16   C28   S    
N4    N5    A    
C27   C29   S    
C3    C23   A    
C43   N15   A    
C46   H43   S    
C2    C12   A    
C41   H36   S    
N5    Ni2   S    
N2    N8    A    
C18   H8    S    
C38   H32   S    
C1    N1    A    
C6    N2    A    
C23   H22   S    
C36   C37   D    
C26   H17   S    
C24   C26   S    
C21   H15   S    
C34   H33   S    
C38   C39   D    
C5    H39   S    
C11   C14   A    
C7    N3    A    
C20   C25   S    
C18   C19   S    
C33   H28   S    
C6    C15   A    
C13   H7    S    
C15   C24   S    
C31   H26   S    
C31   C32   D    
C10   N6    A    
C31   C33   S    
C18   H9    S    
C46   H44   S    
N10   N12   A    
C21   C22   S    
C13   N8    A    
C42   H37   S    
C45   C46   S    
C21   C26   S    
N9    N14   A    
C32   H27   S    
C4    C34   A    
N6    Ni1   S    
N1    Ni1   S    
C39   H34   S    
C5    N16   A    
C28   H23   S    
C24   C25   S    
C21   H16   S    
C42   N14   A    
C14   C35   S    
C45   H45   S    
N15   Ni3   S    
C23   N10   A    
C25   H20   S    
C43   C44   A    
C29   C30   D    
C27   H21   S    
C29   H24   S    
C4    C22   S    
C1    C44   A    
N16   Ni1   S    
C40   H35   S    
C17   C37   S    
N11   N13   A    
C5    C14   A    
N14   Ni4   S    
C36   H30   S    
N9    Ni2   S    
N4    Ni4   S    
C19   H10   S    
C9    C17   A    
C7    C16   A    
C20   C22   S    
N11   Ni4   S    
C7    C45   S    
C13   C15   A    
C25   H14   S    
N8    Ni3   S    
N3    Ni3   S    
N7    N16   A    
C30   H25   S    
N2    Ni2   S    
C35   H29   S    
C6    H2    S    
C18   C22   S    
C12   N9    A    
C34   N11   A    
N3    N6    A    
N10   Ni3   S    
C3    C40   A    
C39   C44   S    
C46   C47   S    
C8    C17   A    
C2    C30   S    
C8    N4    A    
N1    N15   A    
C20   H19   S    
C36   C38   S    
C19   C24   S    
C26   H18   S    
C8    H3    S    
C9    N5    A    
C11   H6    S    
C10   C16   A    
C4    C41   A    
C11   N7    A    
C1    H1    S    
C47   H41   S    
C2    C42   A    
N13   Ni1   S    
C33   C35   D    
C37   H31   S    
C3    C32   S    
N7    Ni4   S    
C12   H11   S    
C45   H46   S    
C41   N13   A    
C9    H4    S    
C47   H40   S    
C27   C28   D    
C43   H38   S    
C40   N12   A    
C20   H13   S    
C10   H5    S    
N12   Ni2   S    
C47   H42   S    
