data_mof_unit_45744.cif
_audit_creation_date              2012-12-10T20:27:10-0500
_audit_creation_method            fapswitch 2.2
_symmetry_space_group_name_H-M    P1
_symmetry_Int_Tables_number       1
_space_group_crystal_system       triclinic
_cell_length_a                    10.823037
_cell_length_b                    10.650085
_cell_length_c                    10.008936
_cell_angle_alpha                 87.494832
_cell_angle_beta                  103.669223
_cell_angle_gamma                 94.239316
_cell_volume                      1117.53861809

loop_
_atom_site_label
_atom_site_type_symbol
_atom_type_description
_atom_site_fract_x
_atom_site_fract_y
_atom_site_fract_z
_atom_type_partial_charge
C1    C     C_R   0.513749 0.261442 0.505559 0.887474
C2    C     C_R   0.552789 0.133333 0.519169 -0.277188
C3    C     C_R   0.596237 0.076341 0.414162 0.435848
C4    C     C_R   0.579293 0.945352 0.403727 -0.187986
C5    C     C_R   0.535668 0.873799 0.506327 -0.210346
C6    C     C_R   0.534534 0.931207 0.627728 0.144884
C7    C     C_3   0.440689 0.912517 0.715184 -0.475530
C8    C     C_3   0.448177 0.053954 0.721729 -0.384534
C9    C     C_R   0.391080 0.467749 0.043810 -0.007360
C10   C     C_R   0.599179 0.557655 0.091571 0.032605
C11   C     C_R   0.600767 0.550259 0.949618 -0.164923
C12   C     C_R   0.259663 0.507046 0.442848 0.866109
C13   C     C_R   0.391535 0.468265 0.903113 0.237771
C14   C     C_3   0.304745 0.351892 0.879293 0.626278
C15   C     C_3   0.298636 0.353540 0.032366 -0.332171
C16   C     C_R   0.506943 0.740442 0.499458 0.920147
C17   C     C_R   0.740607 0.501847 0.558026 0.759304
C18   C     C_2   0.124433 0.530293 0.414272 -0.231299
C19   C     C_2   0.074415 0.554368 0.520576 -0.181869
C20   C     C_2   0.878760 0.507498 0.593323 0.307156
C21   C     C_2   0.939329 0.565616 0.504351 -0.137743
C22   C     C_R   0.541865 0.059276 0.634115 0.098820
H1    H     H_    0.887197 0.611179 0.411513 0.166950
H2    H     H_    0.494794 0.086068 0.826829 0.275318
H3    H     H_    0.680767 0.591092 0.911481 0.199073
H4    H     H_    0.132386 0.558604 0.624899 0.261711
H5    H     H_    0.597802 0.901554 0.315689 0.232182
H6    H     H_    0.346037 0.872006 0.658611 0.210832
H7    H     H_    0.481229 0.865161 0.815597 0.225262
H8    H     H_    0.357603 0.094758 0.667308 0.224725
N1    N     N_R   0.499160 0.499140 0.142600 -0.119987
N2    N     N_R   0.499160 0.499180 0.856960 -0.115533
O1    O     O_R   0.500020 0.316790 0.614700 -0.561738
O2    O     O_R   0.500000 0.316760 0.385350 -0.590207
O3    O     O_R   0.317820 0.500020 0.571850 -0.621598
O4    O     O_R   0.317800 0.499980 0.342510 -0.594621
O5    O     O_R   0.500000 0.683240 0.614650 -0.623621
O6    O     O_R   0.499980 0.683210 0.385300 -0.562627
O7    O     O_R   0.682200 0.500020 0.657490 -0.624757
O8    O     O_R   0.682180 0.499980 0.428150 -0.598271
Zn1   Zn    Zn3+2 0.500010 0.500020 0.653140 0.998409
Zn2   Zn    Zn3+2 0.499990 0.499980 0.346860 1.039098
C23   C     C_2   0.699052 0.645431 0.172155 0.887580
O9    O     O_2   0.681672 0.696892 0.271370 -0.622887
O10   O     O_R   0.808605 0.681393 0.125100 -0.816206
H9    H     H_    0.865377 0.748311 0.183446 0.368589
O11   O     O_3   0.189197 0.371695 0.784032 -0.723424
H10   H     H_    0.194280 0.337840 0.694853 0.367744
O12   O     O_3   0.364248 0.249976 0.846880 -0.782956
H11   H     H_    0.303884 0.176006 0.852315 0.324821
C24   C     C_2   0.167913 0.386857 0.044939 1.011892
O13   O     O_2   0.101700 0.314448 0.100983 -0.559603
O14   O     O_R   0.118573 0.497322 0.979500 -0.705831
H12   H     H_    0.024361 0.501107 0.974215 0.371251
C25   C     C_2   0.353496 0.240291 0.118802 0.969568
O15   O     O_2   0.458569 0.208660 0.113742 -0.539577
O16   O     O_R   0.285100 0.171071 0.202792 -0.750169
H13   H     H_    0.331769 0.097109 0.252285 0.338333
O17   O     O_3   0.945758 0.449025 0.711393 -0.700185
H14   H     H_    0.884270 0.402553 0.757950 0.343483
C26   C     C_2   0.047688 0.534055 0.272262 0.967060
O18   O     O_2   0.073268 0.616437 0.192539 -0.590638
O19   O     O_R   0.942863 0.447643 0.232391 -0.748854
H15   H     H_    0.896108 0.459529 0.132823 0.357111
O20   O     O_3   0.651989 0.143585 0.320621 -0.669651
H16   H     H_    0.689919 0.224568 0.361919 0.356498

loop_
_geom_bond_atom_site_label_1
_geom_bond_atom_site_label_2
_ccdc_geom_bond_type
C2    C22   A    
C8    C22   S    
N2    Zn1   S    
C18   C26   S    
O14   H12   S    
C14   O11   S    
C7    H7    S    
N1    Zn2   S    
C15   C24   S    
C12   O4    A    
C24   O14   S    
C13   N2    A    
O4    Zn2   S    
O11   H10   S    
O2    Zn2   S    
C16   O5    A    
C23   O9    D    
O1    Zn1   S    
C4    H5    S    
C25   O15   D    
O8    Zn2   S    
C2    C3    A    
C9    C15   S    
C8    H8    S    
C7    C8    S    
O7    Zn1   S    
C13   C14   S    
C12   O3    A    
C4    C5    A    
C23   O10   S    
O16   H13   S    
C3    O20   S    
C5    C6    A    
C1    C2    S    
C19   C21   S    
C11   N2    A    
O6    Zn2   S    
C6    C7    S    
C25   O16   S    
C21   H1    S    
O5    Zn1   S    
C26   O18   D    
O3    Zn1   S    
C14   O12   S    
C10   C11   A    
C11   H3    S    
C1    O2    A    
C1    O1    A    
C24   O13   D    
C6    C22   A    
O17   H14   S    
C17   C20   S    
C20   C21   D    
C26   O19   S    
O20   H16   S    
C17   O7    A    
C12   C18   S    
O12   H11   S    
C19   H4    S    
C9    N1    A    
C14   C15   S    
C18   C19   D    
C5    C16   S    
C9    C13   A    
C8    H2    S    
C10   C23   S    
O10   H9    S    
C10   N1    A    
C7    H6    S    
C3    C4    A    
C16   O6    A    
O19   H15   S    
C20   O17   S    
C17   O8    A    
C15   C25   S    
