data_mof_unit_9415.cif
_audit_creation_date              2012-12-10T19:00:48-0500
_audit_creation_method            fapswitch 2.2
_symmetry_space_group_name_H-M    P1
_symmetry_Int_Tables_number       1
_space_group_crystal_system       triclinic
_cell_length_a                    15.090189
_cell_length_b                    10.830216
_cell_length_c                    9.531446
_cell_angle_alpha                 89.784994
_cell_angle_beta                  90.033517
_cell_angle_gamma                 89.671712
_cell_volume                      1557.68745668

loop_
_atom_site_label
_atom_site_type_symbol
_atom_type_description
_atom_site_fract_x
_atom_site_fract_y
_atom_site_fract_z
_atom_type_partial_charge
C1    C     C_R   0.500263 0.262229 0.500073 0.841729
C2    C     C_R   0.906383 0.538482 0.385526 0.025216
C3    C     C_R   0.957671 0.420478 0.744197 -0.101161
C4    C     C_R   0.049584 0.428335 0.744869 -0.190694
C5    C     C_R   0.094625 0.466173 0.624342 0.137448
C6    C     C_R   0.046899 0.502744 0.503824 0.015649
C7    C     C_R   0.092250 0.542821 0.382340 -0.020628
C8    C     C_R   0.044024 0.582494 0.264290 0.592186
C9    C     C_R   0.951625 0.581776 0.266862 -0.245662
C10   C     C_R   0.186775 0.467783 0.622540 -0.219776
C11   C     C_R   0.232039 0.503416 0.500930 -0.097466
C12   C     C_R   0.328694 0.501271 0.500031 0.803364
C13   C     C_R   0.184888 0.541576 0.381441 -0.183450
C14   C     C_R   0.507178 0.062755 0.625646 0.129980
C15   C     C_R   0.507686 0.128978 0.499808 -0.078042
C16   C     C_R   0.520279 0.064668 0.373383 -0.190315
C17   C     C_R   0.520511 0.935966 0.373178 -0.207158
C18   C     C_R   0.508475 0.870690 0.499426 -0.093734
C19   C     C_R   0.507632 0.935729 0.625493 0.126790
C20   C     C_3   0.444446 0.928857 0.745874 -0.447503
C21   C     C_3   0.444377 0.069032 0.746429 -0.492767
C22   C     C_R   0.528379 0.601120 0.073125 0.252690
C23   C     C_R   0.501082 0.737670 0.499756 0.793694
C24   C     C_R   0.462901 0.406128 0.074781 -0.056726
C25   C     C_R   0.462881 0.406161 0.925863 -0.043707
C26   C     C_R   0.527690 0.601558 0.925780 0.247970
C27   C     C_3   0.616322 0.661137 0.918246 -0.465819
C28   C     C_3   0.618102 0.658049 0.077559 -0.489045
C29   C     C_R   0.671381 0.493605 0.500406 0.896409
C30   C     C_R   0.814295 0.537183 0.387825 -0.248772
C31   C     C_R   0.768565 0.485802 0.501694 -0.185231
C32   C     C_R   0.816311 0.431147 0.614812 0.368311
C33   C     C_R   0.908733 0.449537 0.622360 0.002396
C34   C     C_R   0.953848 0.497687 0.504293 0.006866
Cu1   Cu    Cu3+1 0.500000 0.499980 0.640670 0.988027
Cu2   Cu    Cu3+1 0.500000 0.500020 0.359330 0.962791
H1    H     H_    0.778051 0.576102 0.299934 0.165498
H2    H     H_    0.525966 0.888363 0.273896 0.158502
H3    H     H_    0.379475 0.888699 0.715976 0.206683
H4    H     H_    0.475421 0.887822 0.841155 0.193698
H5    H     H_    0.379307 0.110651 0.717506 0.197678
H6    H     H_    0.475994 0.108179 0.841626 0.197700
H7    H     H_    0.434044 0.329166 0.130611 0.135573
H8    H     H_    0.433749 0.329587 0.870506 0.127070
H9    H     H_    0.667694 0.601834 0.869260 0.258141
H10   H     H_    0.612338 0.756282 0.874572 0.186374
H11   H     H_    0.669267 0.594042 0.120106 0.227398
H12   H     H_    0.617129 0.751443 0.125259 0.187133
H13   H     H_    0.925568 0.393601 0.840850 0.209816
H14   H     H_    0.085516 0.403528 0.839466 0.164206
H15   H     H_    0.223280 0.438669 0.715110 0.155684
H16   H     H_    0.220440 0.570981 0.288462 0.205006
H17   H     H_    0.915409 0.613439 0.175177 0.177316
H18   H     H_    0.525961 0.113121 0.274202 0.165439
N1    N     N_R   0.500570 0.500930 0.147930 -0.183625
N2    N     N_R   0.500570 0.500890 0.852020 -0.172106
O1    O     O_R   0.500000 0.319640 0.618810 -0.567758
O2    O     O_R   0.500010 0.319680 0.381230 -0.595927
O3    O     O_R   0.370250 0.499950 0.618800 -0.590615
O4    O     O_R   0.370260 0.499990 0.381220 -0.586711
O5    O     O_R   0.499990 0.680320 0.618770 -0.588802
O6    O     O_R   0.500000 0.680360 0.381190 -0.589948
O7    O     O_R   0.629740 0.500010 0.618780 -0.530393
O8    O     O_R   0.629750 0.500050 0.381200 -0.588515
S1    S     S_3+6 0.765305 0.322001 0.730010 -0.008636
O9    O     O_2   0.830193 0.221820 0.769467 -0.290764
O10   O     O_2   0.734569 0.386203 0.860781 -0.322838
O11   O     O_3   0.678873 0.254257 0.651720 -0.535971
H19   H     H_    0.655002 0.197218 0.723632 0.371147
F1    F     F_    0.086063 0.622263 0.146698 -0.671316

loop_
_geom_bond_atom_site_label_1
_geom_bond_atom_site_label_2
_ccdc_geom_bond_type
C2    C9    A    
C11   C12   S    
C29   O7    A    
C28   H11   S    
C6    C7    A    
C1    C15   S    
C1    O1    A    
C13   H16   S    
C20   H3    S    
C8    F1    S    
C19   C20   S    
C25   N2    A    
C2    C30   A    
C30   C31   A    
Cu1   O1    S    
S1    O11   S    
C32   C33   A    
C27   H9    S    
C17   C18   A    
C3    H13   S    
C29   O8    A    
C5    C10   A    
Cu1   O5    S    
Cu2   N1    S    
C22   C28   S    
C1    O2    A    
C24   C25   A    
C24   N1    A    
C4    C5    A    
C11   C13   A    
C2    C34   A    
C26   C27   S    
C22   N1    A    
C18   C23   S    
C21   H5    S    
C10   H15   S    
C14   C21   S    
Cu1   O3    S    
C28   H12   S    
C33   C34   A    
Cu2   O2    S    
C17   H2    S    
C5    C6    A    
C20   H4    S    
C31   C32   A    
C16   H18   S    
C7    C8    A    
C10   C11   A    
C3    C33   A    
C15   C16   A    
C12   O4    A    
C6    C34   A    
C7    C13   A    
C9    H17   S    
C20   C21   S    
C25   H8    S    
C30   H1    S    
C29   C31   S    
S1    O9    D    
C22   C26   A    
C23   O5    A    
C27   C28   S    
C24   H7    S    
C18   C19   A    
Cu2   O4    S    
C14   C15   A    
C32   S1    S    
Cu1   O7    S    
C21   H6    S    
S1    O10   D    
Cu1   N2    S    
Cu2   O8    S    
C12   O3    A    
C14   C19   A    
O11   H19   S    
C23   O6    A    
C27   H10   S    
C3    C4    A    
C16   C17   A    
C4    H14   S    
C8    C9    A    
Cu2   O6    S    
Cu1   Cu2   S    
C26   N2    A    
