data_mof_unit_49029.cif
_audit_creation_date              2012-12-10T17:50:12-0500
_audit_creation_method            fapswitch 2.2
_symmetry_space_group_name_H-M    P1
_symmetry_Int_Tables_number       1
_space_group_crystal_system       triclinic
_cell_length_a                    10.617279
_cell_length_b                    14.715129
_cell_length_c                    14.723926
_cell_angle_alpha                 65.084319
_cell_angle_beta                  103.242983
_cell_angle_gamma                 102.739466
_cell_volume                      2010.67121846

loop_
_atom_site_label
_atom_site_type_symbol
_atom_type_description
_atom_site_fract_x
_atom_site_fract_y
_atom_site_fract_z
_atom_type_partial_charge
C1    C     C_R   0.476993 0.119704 0.312293 0.833747
C2    C     C_R   0.520786 0.880320 0.687692 0.833733
C3    C     C_R   0.473339 0.291716 0.178594 -0.265181
C4    C     C_R   0.506108 0.708252 0.821301 -0.259657
C5    C     C_R   0.453806 0.360007 0.077102 0.018719
C6    C     C_R   0.490655 0.639227 0.920256 0.018514
C7    C     C_R   0.425534 0.320671 0.000548 0.018561
C8    C     C_R   0.503436 0.678321 0.995604 0.018420
C9    C     C_R   0.465840 0.466304 0.049887 0.108587
C10   C     C_R   0.464653 0.532712 0.946335 0.107335
C11   C     C_R   0.434348 0.490469 0.872140 -0.244627
C12   C     C_R   0.476347 0.508208 0.122484 -0.242867
C13   C     C_R   0.413869 0.386610 0.898963 -0.160960
C14   C     C_R   0.493820 0.612040 0.095487 -0.162156
C15   C     C_R   0.718436 0.285368 0.667428 -0.355499
C16   C     C_R   0.282529 0.715135 0.331789 -0.349027
C17   C     C_R   0.684431 0.203639 0.638284 0.813773
C18   C     C_R   0.315961 0.796565 0.361403 0.813946
C19   C     C_R   0.518515 0.285217 0.509137 -0.109622
C20   C     C_R   0.481622 0.714856 0.490709 -0.111703
C21   C     C_R   0.549134 0.371535 0.534658 -0.014292
C22   C     C_R   0.451591 0.628843 0.464704 -0.014747
C23   C     C_R   0.259565 0.000486 0.500051 0.789583
C24   C     C_R   0.740442 0.999505 0.499964 0.790828
C25   C     C_R   0.650927 0.369146 0.616455 0.071061
C26   C     C_R   0.350164 0.631419 0.382633 0.072836
C27   C     C_R   0.482592 0.458921 0.483185 0.105087
C28   C     C_R   0.518374 0.541581 0.515979 0.101093
C29   C     C_R   0.619396 0.534059 0.598941 -0.232562
C30   C     C_R   0.381965 0.466636 0.399937 -0.237801
C31   C     C_R   0.684428 0.449865 0.647499 -0.150837
C32   C     C_R   0.317151 0.550944 0.351215 -0.160241
C33   C     C_3   0.016430 0.010727 0.408057 -0.135279
C34   C     C_3   0.983598 0.989255 0.591979 -0.134108
C35   C     C_3   0.962026 0.087473 0.429884 -0.184815
C36   C     C_3   0.038005 0.912508 0.570153 -0.184879
C37   C     C_3   0.877151 0.998864 0.499757 0.005951
C38   C     C_3   0.122872 0.001118 0.500278 0.006875
C39   C     C_3   0.929250 0.922065 0.477920 -0.124987
C40   C     C_3   0.070778 0.077916 0.522117 -0.123603
C41   C     C_R   0.458588 0.187366 0.204621 -0.155136
C42   C     C_R   0.523026 0.812676 0.794999 -0.152110
C43   C     C_R   0.410027 0.215613 0.026786 0.609623
C44   C     C_R   0.524964 0.783533 0.969744 0.610345
C45   C     C_R   0.425481 0.149477 0.128295 -0.215275
C46   C     C_R   0.533344 0.850169 0.869752 -0.220853
Cu1   Cu    Cu3+1 0.465750 0.918270 0.475680 0.996100
Cu2   Cu    Cu3+1 0.534250 0.081730 0.524320 0.996193
H1    H     H_    0.558921 0.720546 0.550485 0.149369
H2    H     H_    0.440853 0.279361 0.449630 0.149298
H3    H     H_    0.796807 0.282915 0.729930 0.174904
H4    H     H_    0.204491 0.717768 0.269036 0.175460
H5    H     H_    0.650968 0.592218 0.628695 0.129762
H6    H     H_    0.350736 0.408620 0.369971 0.127535
N1    N     N_R   0.585750 0.204560 0.560800 -0.230578
N2    N     N_R   0.414250 0.795440 0.439200 -0.230233
O1    O     O_R   0.454850 0.022100 0.338110 -0.532869
O2    O     O_R   0.545150 0.977900 0.661890 -0.532348
O3    O     O_R   0.512700 0.160150 0.379180 -0.606136
O4    O     O_R   0.487300 0.839850 0.620820 -0.606066
O5    O     O_R   0.287930 0.931000 0.479440 -0.535807
O6    O     O_R   0.712070 0.069000 0.520560 -0.535077
O7    O     O_R   0.345780 0.069050 0.520520 -0.600531
O8    O     O_R   0.654220 0.930950 0.479480 -0.599805
H7    H     H_    0.927662 0.158928 0.372442 0.141386
H8    H     H_    0.072396 0.841062 0.627598 0.141620
F1    F     F_    0.250540 0.877548 0.311406 -0.656627
F2    F     F_    0.749771 0.122618 0.688354 -0.654335
H9    H     H_    0.033202 0.019646 0.332853 0.168954
H10   H     H_    0.966848 0.980342 0.667186 0.170317
H11   H     H_    0.868662 0.858207 0.459883 0.154605
H12   H     H_    0.131373 0.141771 0.540155 0.155257
H13   H     H_    0.390598 0.358082 0.839287 0.204000
H14   H     H_    0.500719 0.640307 0.153832 0.204983
H15   H     H_    0.506965 0.682630 0.762990 0.164253
H16   H     H_    0.504073 0.318307 0.239078 0.169282
H17   H     H_    0.546454 0.930878 0.850755 0.208272
H18   H     H_    0.413199 0.068857 0.147002 0.215103
F3    F     F_    0.380885 0.176866 0.954252 -0.653479
F4    F     F_    0.535987 0.821984 0.040891 -0.655097
H19   H     H_    0.421420 0.535480 0.791895 0.147217
H20   H     H_    0.467066 0.462724 0.200817 0.142341
H21   H     H_    0.761737 0.447777 0.710609 0.147841
H22   H     H_    0.240308 0.553259 0.287767 0.149144

loop_
_geom_bond_atom_site_label_1
_geom_bond_atom_site_label_2
_ccdc_geom_bond_type
C25   C31   A    
Cu2   N1    S    
C30   C32   A    
C26   C32   A    
C34   C37   S    
Cu1   O5    S    
C20   N2    A    
C11   H19   S    
C30   H6    S    
C33   C39   S    
C29   H5    S    
C34   C40   S    
C14   H14   S    
C28   C29   A    
C19   C21   A    
C1    O3    A    
C36   H8    S    
C15   C25   A    
C35   H7    S    
C43   F3    S    
C31   H21   S    
C42   C46   A    
C4    H15   S    
Cu1   O4    S    
C8    C14   A    
C45   H18   S    
C7    C43   A    
C9    C10   A    
C17   N1    A    
C34   C36   S    
C33   H9    S    
C23   O7    A    
C21   C27   A    
C24   O8    A    
C22   C28   A    
C27   C30   A    
C44   C46   A    
C16   C26   A    
C32   H22   S    
C8    C44   A    
C44   F4    S    
C4    C6    A    
Cu1   O8    S    
C5    C7    A    
C34   H10   S    
Cu2   O7    S    
C6    C8    A    
C18   F1    S    
C37   C39   S    
C5    C9    A    
C20   H1    S    
C1    O1    A    
Cu1   O1    S    
Cu2   O6    S    
Cu1   Cu2   S    
C23   O5    A    
C24   C37   S    
C12   H20   S    
C3    H16   S    
C43   C45   A    
C1    C41   S    
C13   H13   S    
C15   H3    S    
Cu2   O3    S    
C19   N1    A    
C15   C17   A    
C21   C25   A    
C3    C41   A    
C17   F2    S    
C24   O6    A    
C40   H12   S    
C35   C37   S    
C36   C39   S    
C16   H4    S    
C20   C22   A    
C3    C5    A    
C6    C10   A    
C46   H17   S    
C2    O2    A    
Cu2   O2    S    
C18   N2    A    
C23   C38   S    
C33   C38   S    
C36   C38   S    
C35   C40   S    
C12   C14   A    
C29   C31   A    
C38   C40   S    
C11   C13   A    
C19   H2    S    
C4    C42   A    
C2    C42   S    
C33   C35   S    
C2    O4    A    
C9    C12   A    
C10   C11   A    
C7    C13   A    
C16   C18   A    
C22   C26   A    
C27   C28   A    
C41   C45   A    
Cu1   N2    S    
C39   H11   S    
