data_mof_unit_15047.cif
_audit_creation_date              2012-12-10T17:45:34-0500
_audit_creation_method            fapswitch 2.2
_symmetry_space_group_name_H-M    P1
_symmetry_Int_Tables_number       1
_space_group_crystal_system       triclinic
_cell_length_a                    11.527123
_cell_length_b                    10.63531
_cell_length_c                    9.992927
_cell_angle_alpha                 91.822608
_cell_angle_beta                  89.102818
_cell_angle_gamma                 91.915859
_cell_volume                      1223.64327872

loop_
_atom_site_label
_atom_site_type_symbol
_atom_type_description
_atom_site_fract_x
_atom_site_fract_y
_atom_site_fract_z
_atom_type_partial_charge
C1    C     C_R   0.502069 0.260844 0.498306 0.962564
C2    C     C_R   0.496439 0.870977 0.506192 -0.066393
C3    C     C_R   0.316330 0.369858 0.132087 0.581501
C4    C     C_R   0.282276 0.499978 0.500750 0.873589
C5    C     C_R   0.212861 0.346379 0.063010 -0.394764
C6    C     C_R   0.214496 0.345432 0.924354 -0.058769
C7    C     C_R   0.318401 0.377560 0.858329 -0.133634
C8    C     C_R   0.410184 0.440017 0.926831 0.063337
C9    C     C_R   0.409933 0.438463 0.070485 0.036763
C10   C     C_R   0.585725 0.558540 0.071784 -0.097879
C11   C     C_R   0.585835 0.558237 0.929250 -0.089347
C12   C     C_R   0.183548 0.058374 0.568509 -0.099760
C13   C     C_R   0.499596 0.738903 0.501918 0.845429
C14   C     C_R   0.717791 0.502015 0.499249 0.946145
C15   C     C_1   0.161768 0.501744 0.501699 -0.125324
C16   C     C_1   0.059538 0.502990 0.500469 0.045766
C17   C     C_1   0.940793 0.503452 0.498572 0.007111
C18   C     C_1   0.838482 0.503102 0.497877 -0.146808
C19   C     C_R   0.287200 0.126078 0.544521 -0.135588
C20   C     C_2   0.716818 0.125434 0.433708 0.368438
C21   C     C_2   0.110672 0.299428 0.850614 0.413976
C22   C     C_3   0.367097 0.174882 0.186079 -0.285260
C23   C     C_R   0.183465 0.928150 0.576793 -0.172318
C24   C     C_R   0.286678 0.864936 0.558705 -0.163959
C25   C     C_R   0.392010 0.931941 0.531517 0.094867
C26   C     C_R   0.393019 0.063296 0.525720 0.014145
C27   C     C_R   0.499192 0.127698 0.495278 -0.139357
C28   C     C_R   0.602901 0.063906 0.468445 -0.014186
C29   C     C_R   0.599640 0.934905 0.475449 -0.311489
H1    H     H_    0.327696 0.347023 0.756211 0.223678
H2    H     H_    0.795603 0.072916 0.440395 0.064695
H3    H     H_    0.036398 0.259385 0.904349 0.066645
H4    H     H_    0.455421 0.181412 0.139736 0.175065
H5    H     H_    0.304097 0.132400 0.112892 0.148386
H6    H     H_    0.369488 0.108210 0.268126 0.191658
H7    H     H_    0.656115 0.606381 0.876738 0.141212
H8    H     H_    0.283077 0.227012 0.537197 0.156464
H9    H     H_    0.102709 0.106656 0.579440 0.183436
H10   H     H_    0.103045 0.875824 0.595849 0.139169
H11   H     H_    0.282994 0.763604 0.564571 0.129471
H12   H     H_    0.677803 0.882863 0.454904 0.126203
H13   H     H_    0.655855 0.606883 0.125102 0.140106
H14   H     H_    0.138748 0.304620 0.115312 0.172643
N1    N     N_R   0.498930 0.498800 0.142780 -0.105397
N2    N     N_R   0.498900 0.498720 0.857170 -0.102141
O1    O     O_R   0.500000 0.316780 0.614690 -0.650451
O2    O     O_2   0.105585 0.308326 0.729513 -0.614256
O3    O     O_3   0.333492 0.294168 0.238247 -0.579309
O4    O     O_R   0.499990 0.316750 0.385360 -0.524845
O5    O     O_R   0.334450 0.500030 0.614670 -0.633025
O6    O     O_R   0.334440 0.500000 0.385330 -0.586717
O7    O     O_R   0.500010 0.683250 0.614640 -0.617985
O8    O     O_R   0.500000 0.683220 0.385310 -0.622385
O9    O     O_R   0.665560 0.500000 0.614670 -0.622443
O10   O     O_R   0.665550 0.499970 0.385330 -0.592221
O11   O     O_2   0.724802 0.232207 0.393049 -0.578261
Zn1   Zn    Zn3+2 0.500010 0.500020 0.653130 0.949194
Zn2   Zn    Zn3+2 0.499990 0.499980 0.346870 1.002612

loop_
_geom_bond_atom_site_label_1
_geom_bond_atom_site_label_2
_ccdc_geom_bond_type
C22   O3    S    
C23   C24   A    
C6    C7    A    
C3    C9    A    
C11   H7    S    
C10   H13   S    
C13   O7    A    
C19   H8    S    
C14   C18   S    
C20   O11   D    
O8    Zn2   S    
C4    C15   S    
C14   O10   A    
C5    H14   S    
C7    C8    A    
C14   O9    A    
O6    Zn2   S    
C22   H6    S    
O5    Zn1   S    
C12   C23   A    
N2    Zn1   S    
C26   C27   A    
C2    C29   A    
C23   H10   S    
C12   C19   A    
C28   C29   A    
C24   H11   S    
C17   C18   T    
C2    C25   A    
C13   O8    A    
O1    Zn1   S    
C12   H9    S    
C5    C6    A    
C22   H5    S    
C21   H3    S    
C1    O1    A    
C11   N2    A    
C10   C11   A    
C4    O6    A    
C10   N1    A    
C15   C16   T    
C3    C5    A    
C3    O3    S    
C24   C25   A    
C19   C26   A    
C1    C27   S    
O7    Zn1   S    
O10   Zn2   S    
N1    Zn2   S    
C27   C28   A    
C22   H4    S    
C2    C13   S    
C8    N2    A    
C16   C17   S    
C9    N1    A    
C20   C28   S    
C29   H12   S    
C25   C26   A    
C6    C21   S    
C1    O4    A    
C20   H2    S    
O4    Zn2   S    
C4    O5    A    
C8    C9    A    
C21   O2    D    
O9    Zn1   S    
C7    H1    S    
