data_mof_unit_52351.cif
_audit_creation_date              2012-10-26T18:47:54-0400
_audit_creation_method            fapswitch 2.2
_symmetry_space_group_name_H-M    P1
_symmetry_Int_Tables_number       1
_space_group_crystal_system       triclinic
_cell_length_a                    15.869604
_cell_length_b                    8.686403
_cell_length_c                    7.489908
_cell_angle_alpha                 103.181535
_cell_angle_beta                  94.543068
_cell_angle_gamma                 92.69844
_cell_volume                      999.860690068

loop_
_atom_site_label
_atom_site_type_symbol
_atom_type_description
_atom_site_fract_x
_atom_site_fract_y
_atom_site_fract_z
_atom_type_partial_charge
C1    C     C_R   0.497410 0.199760 0.453123 0.552750
C2    C     C_2   0.503845 0.968406 0.572891 -0.134920
C3    C     C_R   0.340488 0.499665 0.501716 0.561156
C4    C     C_R   0.502570 0.800240 0.546871 0.545509
C5    C     C_R   0.659516 0.500196 0.498206 0.549967
C6    C     C_3   0.053542 0.491740 0.690727 -0.136211
C7    C     C_3   0.041587 0.350035 0.353726 0.109992
C8    C     C_3   0.942672 0.346786 0.352894 -0.067626
C9    C     C_1   0.748833 0.499421 0.494350 0.006459
C10   C     C_3   0.083080 0.498592 0.498258 0.015071
C11   C     C_1   0.094061 0.622015 0.840262 0.246134
C12   C     C_3   0.955465 0.493315 0.685044 -0.249245
C13   C     C_1   0.915316 0.683760 0.272191 0.217094
C14   C     C_1   0.415809 0.348856 0.928809 0.471277
C15   C     C_1   0.897602 0.322063 0.166950 0.294436
C16   C     C_3   0.916534 0.497982 0.489727 -0.015019
C17   C     C_3   0.954342 0.653332 0.445392 -0.102090
C18   C     C_3   0.052030 0.649868 0.443373 -0.202078
C19   C     C_1   0.824193 0.498755 0.492153 -0.045408
C20   C     C_1   0.175611 0.499195 0.503211 0.009033
C21   C     C_1   0.251132 0.499602 0.504654 0.040323
C22   C     C_2   0.496102 0.031594 0.427107 -0.137921
Cl1   Cl    Cl    0.079689 0.336247 0.129900 -0.627185
Cu1   Cu    Cu3+1 0.509300 0.517380 0.684380 1.003252
Cu2   Cu    Cu3+1 0.490700 0.482620 0.315620 1.002195
H1    H     H_    0.929833 0.385293 0.723931 0.165997
H2    H     H_    0.072392 0.654896 0.305847 0.198486
H3    H     H_    0.940694 0.755615 0.556688 0.120625
H4    H     H_    0.935756 0.596403 0.787653 0.176045
H5    H     H_    0.488781 0.959470 0.286875 0.138614
H6    H     H_    0.511213 0.040511 0.713118 0.141514
H7    H     H_    0.566550 0.622133 0.050870 0.234566
H8    H     H_    0.072663 0.379121 0.724108 0.161482
H9    H     H_    0.062733 0.242301 0.396515 0.136032
H10   H     H_    0.921945 0.241733 0.404222 0.082401
H11   H     H_    0.082741 0.757619 0.541261 0.124932
N1    N     N_2   0.476670 0.456430 0.038530 -0.193106
N2    N     N_2   0.523330 0.543570 0.961470 -0.264291
N3    N     N_1   0.125765 0.723924 0.957289 -0.253650
N4    N     N_1   0.884613 0.708174 0.136909 -0.286712
N5    N     N_1   0.364593 0.258325 0.839420 -0.305957
N6    N     N_1   0.861921 0.302221 0.021840 -0.275965
O1    O     O_R   0.506050 0.286130 0.619770 -0.504547
O2    O     O_R   0.490330 0.256780 0.308370 -0.504766
O3    O     O_R   0.387300 0.514690 0.655770 -0.496945
O4    O     O_R   0.371580 0.485340 0.344370 -0.487985
O5    O     O_R   0.509670 0.743220 0.691630 -0.499151
O6    O     O_R   0.493950 0.713870 0.380230 -0.515704
O7    O     O_R   0.628420 0.514660 0.655630 -0.491695
O8    O     O_R   0.612700 0.485310 0.344230 -0.507162

loop_
_geom_bond_atom_site_label_1
_geom_bond_atom_site_label_2
_ccdc_geom_bond_type
C6    C10   S    
C7    C10   S    
C2    C4    S    
C5    C9    S    
N1    N2    D    
H7    N2    S    
C12   H4    S    
C22   H5    S    
C1    O2    A    
Cu1   N2    S    
C6    C11   S    
C6    H8    S    
C13   C17   S    
C17   C18   S    
C3    O3    A    
C1    C22   S    
C8    C16   S    
C2    C22   D    
C20   C21   T    
C14   N1    S    
C11   N3    T    
Cu1   O5    S    
Cu2   O6    S    
C5    O7    A    
C10   C18   S    
C16   C19   S    
C7    Cl1   S    
Cu1   O3    S    
Cu2   O2    S    
C9    C19   T    
C8    C15   S    
C14   N5    T    
C6    C12   S    
C7    H9    S    
C5    O8    A    
C3    C21   S    
C7    C8    S    
Cu1   Cu2   S    
C4    O6    A    
C12   H1    S    
Cu1   O7    S    
Cu1   O1    S    
Cu2   O8    S    
C16   C17   S    
C13   N4    T    
C4    O5    A    
C3    O4    A    
Cu2   N1    S    
C17   H3    S    
C18   H11   S    
Cu2   O4    S    
C1    O1    A    
C18   H2    S    
C12   C16   S    
C15   N6    T    
C10   C20   S    
C2    H6    S    
C8    H10   S    
