data_mof_unit_13812.cif
_audit_creation_date              2012-12-10T21:10:01-0500
_audit_creation_method            fapswitch 2.2
_symmetry_space_group_name_H-M    P1
_symmetry_Int_Tables_number       1
_space_group_crystal_system       triclinic
_cell_length_a                    12.800452
_cell_length_b                    17.555015
_cell_length_c                    16.822787
_cell_angle_alpha                 88.033703
_cell_angle_beta                  96.76704
_cell_angle_gamma                 91.22708
_cell_volume                      3751.16354687

loop_
_atom_site_label
_atom_site_type_symbol
_atom_type_description
_atom_site_fract_x
_atom_site_fract_y
_atom_site_fract_z
_atom_type_partial_charge
C1    C     C_R   0.501040 0.353458 0.501211 0.879133
C2    C     C_R   0.531376 0.114934 0.501813 0.080982
C3    C     C_1   0.543935 0.967206 0.500463 -0.092236
C4    C     C_1   0.540844 0.034706 0.501045 -0.089919
C5    C     C_R   0.425094 0.457033 0.829796 0.027736
C6    C     C_R   0.549347 0.560629 0.168164 0.022482
C7    C     C_R   0.447866 0.444452 0.749783 0.203519
C8    C     C_R   0.570329 0.544354 0.252670 0.198791
C9    C     C_R   0.543347 0.561568 0.747751 -0.041520
C10   C     C_R   0.422662 0.460249 0.247725 -0.036306
C11   C     C_R   0.536934 0.569138 0.830660 -0.314484
C12   C     C_R   0.501827 0.646797 0.499017 0.871451
C13   C     C_R   0.411703 0.464649 0.162873 -0.313463
C14   C     C_R   0.477166 0.516951 0.872719 0.104517
C15   C     C_R   0.474597 0.515529 0.121931 0.105236
C16   C     C_R   0.297995 0.496821 0.484599 0.871800
C17   C     C_R   0.701691 0.503352 0.515446 0.877286
C18   C     C_1   0.473848 0.520245 0.960467 -0.049379
C19   C     C_1   0.470584 0.517733 0.033305 -0.049644
C20   C     C_R   0.813408 0.511032 0.524995 -0.081795
C21   C     C_R   0.185730 0.489434 0.475660 -0.096182
C22   C     C_R   0.023046 0.424377 0.430950 -0.209813
C23   C     C_R   0.513075 0.729351 0.498286 -0.103705
C24   C     C_R   0.975550 0.576186 0.570686 -0.217025
C25   C     C_R   0.131365 0.432562 0.428283 0.078114
C26   C     C_R   0.866434 0.569462 0.570693 0.080080
C27   C     C_R   0.134122 0.536576 0.522494 -0.294227
C28   C     C_R   0.865635 0.462470 0.480492 -0.315506
C29   C     C_R   0.027421 0.528160 0.524278 0.142419
C30   C     C_R   0.972073 0.471282 0.478728 0.144251
C31   C     C_R   0.536444 0.845184 0.572639 0.107153
C32   C     C_R   0.478717 0.153255 0.434088 0.118948
C33   C     C_R   0.522194 0.766706 0.570874 -0.255790
C34   C     C_R   0.508314 0.271355 0.503251 -0.088186
C35   C     C_R   0.468762 0.231719 0.435572 -0.253402
C36   C     C_3   0.804726 0.624622 0.614793 -0.387875
C37   C     C_3   0.867993 0.692150 0.652970 -0.364447
C38   C     C_3   0.796527 0.746206 0.689724 -0.903751
C39   C     C_3   0.189772 0.382000 0.377031 -0.395120
C40   C     C_3   0.124685 0.317135 0.334969 -0.367462
C41   C     C_3   0.192108 0.269318 0.287465 -0.905580
C42   C     C_3   0.544334 0.883003 0.652860 -0.430221
C43   C     C_3   0.436691 0.911628 0.669036 -0.327154
C44   C     C_3   0.440293 0.940396 0.753912 -0.899223
C45   C     C_R   0.519249 0.770446 0.426255 -0.226624
C46   C     C_3   0.432007 0.112392 0.359845 -0.429983
C47   C     C_3   0.327473 0.072292 0.373275 -0.338176
C48   C     C_3   0.271119 0.042339 0.295214 -0.896522
C49   C     C_3   0.536356 0.897063 0.348347 -0.415250
C50   C     C_3   0.530906 0.852644 0.270827 -0.370821
C51   C     C_3   0.535967 0.906897 0.198459 -0.886543
C52   C     C_3   0.626944 0.110460 0.643389 -0.415524
C53   C     C_3   0.668498 0.158227 0.715665 -0.364741
C54   C     C_3   0.720827 0.107981 0.784206 -0.884600
C55   C     C_3   0.345480 0.407438 0.870399 -0.448963
C56   C     C_R   0.560223 0.233357 0.570222 -0.234405
C57   C     C_3   0.245771 0.452296 0.878646 -0.323515
C58   C     C_3   0.167732 0.404435 0.921987 -0.893031
C59   C     C_3   0.608324 0.623955 0.125995 -0.447795
C60   C     C_3   0.534553 0.689118 0.094996 -0.322296
C61   C     C_3   0.590747 0.748228 0.045770 -0.904964
C62   C     C_3   0.433769 0.363550 0.721236 -0.390030
C63   C     C_3   0.326421 0.348282 0.672295 -0.292921
C64   C     C_3   0.303155 0.262985 0.665335 -0.928425
C65   C     C_3   0.682812 0.559111 0.289893 -0.375348
C66   C     C_3   0.699077 0.635292 0.332599 -0.316969
C67   C     C_R   0.532760 0.849764 0.425759 0.110992
C68   C     C_3   0.815374 0.658049 0.346555 -0.911642
C69   C     C_R   0.572205 0.154321 0.570913 0.105931
C70   C     C_R   0.540550 0.886496 0.499778 0.082229
H1    H     H_    0.822214 0.418730 0.445475 0.148049
H2    H     H_    0.928341 0.670785 0.701042 0.221092
H3    H     H_    0.907509 0.724662 0.606741 0.225780
H4    H     H_    0.740156 0.648211 0.571467 0.195168
H5    H     H_    0.768942 0.592091 0.662864 0.213939
H6    H     H_    0.228822 0.305640 0.242624 0.255718
H7    H     H_    0.254462 0.240777 0.328427 0.263718
H8    H     H_    0.142234 0.224792 0.255590 0.254805
H9    H     H_    0.091001 0.279272 0.380172 0.225261
H10   H     H_    0.059795 0.341393 0.292511 0.222352
H11   H     H_    0.219500 0.419351 0.329993 0.211513
H12   H     H_    0.177868 0.579708 0.558146 0.152832
H13   H     H_    0.257710 0.356398 0.415294 0.194543
H14   H     H_    0.977100 0.381932 0.396413 0.129133
H15   H     H_    0.020807 0.619176 0.604940 0.130718
H16   H     H_    0.361877 0.962019 0.763135 0.250735
H17   H     H_    0.460987 0.893367 0.798484 0.261747
H18   H     H_    0.499159 0.987423 0.763784 0.259348
H19   H     H_    0.377295 0.864477 0.661485 0.224465
H20   H     H_    0.411222 0.958642 0.625627 0.224127
H21   H     H_    0.573856 0.841592 0.701486 0.200648
H22   H     H_    0.602950 0.930684 0.654927 0.200610
H23   H     H_    0.585200 0.604925 0.716241 0.136585
H24   H     H_    0.251011 0.090308 0.251697 0.262643
H25   H     H_    0.321492 0.001865 0.268545 0.260510
H26   H     H_    0.197208 0.012193 0.307266 0.251980
H27   H     H_    0.341736 0.023793 0.417071 0.226528
H28   H     H_    0.275088 0.112883 0.397959 0.226031
H29   H     H_    0.417800 0.153870 0.308377 0.201137
H30   H     H_    0.488989 0.070955 0.342613 0.198493
H31   H     H_    0.518105 0.734781 0.626761 0.164779
H32   H     H_    0.429758 0.262288 0.383777 0.152039
H33   H     H_    0.512596 0.740049 0.371102 0.151809
H34   H     H_    0.371099 0.422569 0.277453 0.132113
H35   H     H_    0.592950 0.266334 0.620417 0.143317
H36   H     H_    0.469960 0.947496 0.193340 0.258666
H37   H     H_    0.611803 0.939332 0.203967 0.261755
H38   H     H_    0.529728 0.873837 0.143075 0.257666
H39   H     H_    0.598103 0.813175 0.274321 0.222394
H40   H     H_    0.455791 0.819383 0.261954 0.221539
H41   H     H_    0.469012 0.936357 0.342500 0.212590
H42   H     H_    0.610299 0.931913 0.354007 0.205353
H43   H     H_    0.663358 0.065583 0.804717 0.258091
H44   H     H_    0.788162 0.077603 0.764651 0.261117
H45   H     H_    0.576932 0.616619 0.861379 0.151881
H46   H     H_    0.750573 0.143959 0.835314 0.250080
H47   H     H_    0.727662 0.200845 0.697930 0.224465
H48   H     H_    0.602344 0.188318 0.737506 0.221103
H49   H     H_    0.569872 0.067549 0.663386 0.211443
H50   H     H_    0.694042 0.079563 0.623965 0.204623
H51   H     H_    0.143745 0.352334 0.888325 0.261678
H52   H     H_    0.203595 0.387746 0.983316 0.259265
H53   H     H_    0.096512 0.438221 0.926753 0.250037
H54   H     H_    0.265467 0.504860 0.912536 0.229566
H55   H     H_    0.207546 0.469429 0.818052 0.218123
H56   H     H_    0.353109 0.429092 0.129449 0.152163
H57   H     H_    0.319296 0.355853 0.837352 0.211985
H58   H     H_    0.381973 0.386452 0.930143 0.208259
H59   H     H_    0.658561 0.774208 0.083321 0.264771
H60   H     H_    0.619189 0.721312 0.993690 0.261051
H61   H     H_    0.535289 0.793893 0.022998 0.246621
H62   H     H_    0.464430 0.667286 0.056822 0.231408
H63   H     H_    0.506792 0.717202 0.146720 0.215852
H64   H     H_    0.673456 0.650257 0.165356 0.211173
H65   H     H_    0.644784 0.599752 0.075851 0.210063
H66   H     H_    0.365668 0.235192 0.636848 0.277888
H67   H     H_    0.739118 0.771908 0.642314 0.269581
H68   H     H_    0.298143 0.236020 0.725501 0.259432
H69   H     H_    0.226776 0.253949 0.627875 0.253869
H70   H     H_    0.262408 0.374428 0.700715 0.210772
H71   H     H_    0.324376 0.373370 0.611187 0.253896
H72   H     H_    0.501499 0.347130 0.691917 0.209626
H73   H     H_    0.444050 0.322933 0.773515 0.160625
H74   H     H_    0.860867 0.612702 0.381943 0.280735
H75   H     H_    0.847399 0.667870 0.288434 0.258555
H76   H     H_    0.824689 0.711546 0.380252 0.253067
H77   H     H_    0.655737 0.681221 0.296585 0.196188
H78   H     H_    0.753444 0.715286 0.734916 0.254457
H79   H     H_    0.669576 0.631373 0.391496 0.254556
H80   H     H_    0.713689 0.509673 0.326462 0.218178
H81   H     H_    0.736418 0.558012 0.242618 0.164603
H82   H     H_    0.844624 0.792779 0.719527 0.251900
N1    N     N_R   0.500030 0.500030 0.707230 -0.105041
N2    N     N_R   0.499970 0.499970 0.292770 -0.103726
O1    O     O_R   0.500000 0.389130 0.566570 -0.635115
O2    O     O_R   0.500000 0.610870 0.433430 -0.628819
O3    O     O_R   0.499990 0.389100 0.433480 -0.620731
O4    O     O_R   0.500010 0.610900 0.566520 -0.625525
O5    O     O_R   0.346360 0.500000 0.555540 -0.621111
O6    O     O_R   0.653640 0.500000 0.444460 -0.631108
O7    O     O_R   0.346350 0.499970 0.422460 -0.621999
O8    O     O_R   0.653650 0.500030 0.577540 -0.626691
Zn1   Zn    Zn3+2 0.500000 0.500020 0.588860 0.924306
Zn2   Zn    Zn3+2 0.500000 0.499980 0.411140 0.928030

loop_
_geom_bond_atom_site_label_1
_geom_bond_atom_site_label_2
_ccdc_geom_bond_type
C66   C68   S    
C46   H29   S    
C64   H66   S    
C34   C56   A    
C16   C21   S    
C23   C45   A    
C48   H25   S    
C27   C29   A    
C63   H70   S    
C14   C18   S    
C62   H73   S    
C35   H32   S    
C10   N2    A    
C64   H68   S    
C53   C54   S    
C15   C19   S    
C12   C23   S    
C58   H53   S    
C37   C38   S    
C47   H28   S    
C48   H24   S    
N1    Zn1   S    
C33   H31   S    
O6    Zn2   S    
N2    Zn2   S    
C36   C37   S    
C31   C42   S    
C12   O2    A    
C18   C19   T    
C10   H34   S    
C57   H55   S    
C11   C14   A    
C53   H47   S    
C54   H43   S    
C50   H40   S    
C17   C20   S    
C2    C32   A    
C34   C35   A    
C65   H80   S    
C1    O1    A    
C17   O6    A    
C24   C29   A    
C46   H30   S    
C52   C69   S    
C45   H33   S    
C6    C15   A    
C31   C70   A    
C51   H38   S    
C23   C33   A    
C22   C25   A    
C54   H46   S    
C45   C67   A    
C31   C33   A    
C2    C69   A    
C8    N2    A    
C24   H15   S    
C61   H59   S    
C49   H41   S    
C21   C27   A    
C9    N1    A    
C59   C60   S    
C16   O5    A    
C60   H62   S    
C62   H72   S    
C44   H16   S    
C38   H82   S    
C1    C34   S    
C58   H52   S    
C43   H20   S    
C32   C35   A    
C3    C70   S    
C39   H11   S    
C66   H79   S    
C21   C25   A    
C41   H8    S    
C5    C7    A    
C53   H48   S    
C6    C8    A    
C20   C28   A    
O1    Zn1   S    
C5    C14   A    
C50   H39   S    
C60   C61   S    
C22   H14   S    
C65   H81   S    
C2    C4    S    
C43   C44   S    
C7    C62   S    
C62   C63   S    
C36   H5    S    
C11   H45   S    
C47   C48   S    
C7    N1    A    
C40   H10   S    
C50   C51   S    
C63   H71   S    
C40   H9    S    
C1    O3    A    
C43   H19   S    
C9    C11   A    
O3    Zn2   S    
C38   H78   S    
C66   H77   S    
C36   H4    S    
C61   H60   S    
C49   H42   S    
C13   H56   S    
C52   H50   S    
C26   C36   S    
C40   C41   S    
C55   H57   S    
C65   C66   S    
C13   C15   A    
C49   C50   S    
O5    Zn1   S    
C28   H1    S    
C42   C43   S    
C3    C4    T    
C44   H17   S    
C9    H23   S    
C39   C40   S    
O7    Zn2   S    
C68   H76   S    
C52   C53   S    
O8    Zn1   S    
C37   H3    S    
C46   C47   S    
C58   H51   S    
C48   H26   S    
C32   C46   S    
C6    C59   S    
C5    C55   S    
C27   H12   S    
O4    Zn1   S    
C24   C26   A    
C10   C13   A    
C49   C67   S    
C16   O7    A    
C59   H64   S    
C47   H27   S    
C67   C70   A    
C55   C57   S    
C39   H13   S    
C28   C30   A    
C22   C30   A    
C25   C39   S    
C57   H54   S    
C41   H7    S    
C57   C58   S    
C20   C26   A    
C51   H36   S    
C54   H44   S    
C59   H65   S    
C38   H67   S    
C68   H74   S    
C42   H22   S    
C56   H35   S    
C17   O8    A    
C61   H61   S    
C29   C30   A    
C63   C64   S    
C52   H49   S    
C8    C65   S    
C55   H58   S    
O2    Zn2   S    
C51   H37   S    
C56   C69   A    
C37   H2    S    
C12   O4    A    
C44   H18   S    
C60   H63   S    
C68   H75   S    
C42   H21   S    
C41   H6    S    
C64   H69   S    
