data_mof_unit_26217.cif
_audit_creation_date              2012-12-11T16:19:06-0500
_audit_creation_method            fapswitch 2.2
_symmetry_space_group_name_H-M    P1
_symmetry_Int_Tables_number       1
_space_group_crystal_system       triclinic
_cell_length_a                    6.900925
_cell_length_b                    31.465275
_cell_length_c                    35.026579
_cell_angle_alpha                 90.035288
_cell_angle_beta                  90.003997
_cell_angle_gamma                 90.000714
_cell_volume                      7605.65249003

loop_
_atom_site_label
_atom_site_type_symbol
_atom_type_description
_atom_site_fract_x
_atom_site_fract_y
_atom_site_fract_z
_atom_type_partial_charge
O1    O     O_R   0.417270 0.211480 0.210950 -0.533362
O2    O     O_R   0.582730 0.788520 0.789050 -0.533364
O3    O     O_R   0.582730 0.788520 0.710950 -0.539867
O4    O     O_R   0.417270 0.211480 0.289050 -0.539867
O5    O     O_R   0.917270 0.288520 0.289050 -0.533376
O6    O     O_R   0.082730 0.711480 0.710950 -0.533376
O7    O     O_R   0.082730 0.711480 0.789050 -0.539874
O8    O     O_R   0.917270 0.288520 0.210950 -0.539874
O9    O     O_R   0.746940 0.206370 0.288750 -0.535804
O10   O     O_R   0.253060 0.793630 0.711250 -0.535804
O11   O     O_R   0.253060 0.793630 0.788750 -0.543415
O12   O     O_R   0.746940 0.206370 0.211250 -0.543416
O13   O     O_R   0.246940 0.293630 0.211250 -0.535798
O14   O     O_R   0.753060 0.706370 0.788750 -0.535800
O15   O     O_R   0.753060 0.706370 0.711250 -0.543427
O16   O     O_R   0.246940 0.293630 0.288750 -0.543428
C1    C     C_R   0.578271 0.195241 0.301492 0.715737
C2    C     C_R   0.421729 0.804759 0.698507 0.715739
C3    C     C_R   0.422730 0.804862 0.801399 0.715329
C4    C     C_R   0.577270 0.195138 0.198601 0.715329
C5    C     C_R   0.078265 0.304760 0.198508 0.715750
C6    C     C_R   0.921735 0.695240 0.801492 0.715749
C7    C     C_R   0.922724 0.695137 0.698603 0.715358
C8    C     C_R   0.077276 0.304863 0.301397 0.715353
O17   O     O_3   0.583760 0.276950 0.250000 -0.366468
O18   O     O_3   0.416240 0.723050 0.750000 -0.366468
O19   O     O_3   0.083760 0.223050 0.250000 -0.366459
O20   O     O_3   0.916240 0.776950 0.750000 -0.366458
V1    V     V_3+5 0.858600 0.245000 0.250000 1.388572
V2    V     V_3+5 0.141400 0.755000 0.750000 1.388568
V3    V     V_3+5 0.358600 0.255000 0.250000 1.388571
V4    V     V_3+5 0.641400 0.745000 0.750000 1.388565
C9    C     C_R   0.962424 0.587788 0.538868 0.572988
C10   C     C_R   0.037575 0.412212 0.461132 0.572988
C11   C     C_R   0.166491 0.425701 0.047281 0.581635
C12   C     C_R   0.833537 0.574302 0.952725 0.581625
C13   C     C_R   0.464117 0.912186 0.961121 0.573039
C14   C     C_R   0.535879 0.087812 0.038881 0.573034
C15   C     C_R   0.666494 0.074300 0.452726 0.581632
C16   C     C_R   0.333503 0.925700 0.547273 0.581630
N1    N     N_R   0.954736 0.572780 0.575576 -0.552592
N2    N     N_R   0.045262 0.427221 0.424424 -0.552592
N3    N     N_R   0.026180 0.426185 0.075033 -0.548675
N4    N     N_R   0.973842 0.573817 0.924970 -0.548665
N5    N     N_R   0.454814 0.927199 0.924439 -0.552637
N6    N     N_R   0.545180 0.072799 0.075564 -0.552634
N7    N     N_R   0.526172 0.073819 0.424972 -0.548667
N8    N     N_R   0.473827 0.926180 0.575027 -0.548666
C17   C     C_R   0.962742 0.530162 0.583008 0.577682
C18   C     C_R   0.037256 0.469838 0.416992 0.577681
C19   C     C_R   0.876453 0.454614 0.073607 0.581572
C20   C     C_R   0.123564 0.545386 0.926395 0.581558
C21   C     C_R   0.461211 0.969823 0.917024 0.577808
C22   C     C_R   0.538779 0.030175 0.082978 0.577804
C23   C     C_R   0.376425 0.045395 0.426397 0.581568
C24   C     C_R   0.623575 0.954605 0.573602 0.581568
C25   C     C_R   0.981357 0.500619 0.553069 -0.057902
C26   C     C_R   0.018641 0.499381 0.446930 -0.057901
C27   C     C_R   0.863381 0.484221 0.043636 -0.070172
C28   C     C_R   0.136639 0.515781 0.956368 -0.070167
C29   C     C_R   0.479704 0.999377 0.946959 -0.058000
C30   C     C_R   0.520286 0.000621 0.053044 -0.057997
C31   C     C_R   0.363354 0.015786 0.456366 -0.070162
C32   C     C_R   0.636645 0.984214 0.543633 -0.070161
C33   C     C_R   0.990238 0.515021 0.515080 -0.048254
C34   C     C_R   0.009760 0.484979 0.484920 -0.048255
C35   C     C_R   0.006703 0.484901 0.015053 -0.050225
C36   C     C_R   0.993319 0.515101 0.984950 -0.050221
C37   C     C_R   0.490275 0.984972 0.984924 -0.048194
C38   C     C_R   0.509717 0.015026 0.015078 -0.048194
C39   C     C_R   0.506692 0.015101 0.484949 -0.050228
C40   C     C_R   0.493307 0.984899 0.515050 -0.050229
C41   C     C_R   0.979738 0.559330 0.507330 -0.034302
C42   C     C_R   0.020260 0.440671 0.492669 -0.034302
C43   C     C_R   0.162627 0.455415 0.016581 -0.036778
C44   C     C_R   0.837397 0.544587 0.983423 -0.036771
C45   C     C_R   0.481548 0.940651 0.992654 -0.034295
C46   C     C_R   0.518446 0.059347 0.007349 -0.034293
C47   C     C_R   0.662631 0.044584 0.483424 -0.036778
C48   C     C_R   0.337368 0.955416 0.516575 -0.036777
C49   C     C_R   0.992035 0.456998 0.560741 -0.131449
C50   C     C_R   0.007964 0.543002 0.439259 -0.131450
C51   C     C_R   0.708880 0.513033 0.041985 -0.139018
C52   C     C_R   0.291138 0.486967 0.958018 -0.139019
C53   C     C_R   0.488578 0.043012 0.939308 -0.131435
C54   C     C_R   0.511414 0.956986 0.060695 -0.131436
C55   C     C_R   0.208840 0.986975 0.458014 -0.139028
C56   C     C_R   0.791159 0.013025 0.541985 -0.139027
C57   C     C_R   0.011522 0.426873 0.531455 0.126304
C58   C     C_R   0.988477 0.573128 0.468544 0.126304
C59   C     C_R   0.692957 0.543055 0.012583 0.136449
C60   C     C_R   0.307061 0.456946 0.987421 0.136450
C61   C     C_R   0.507915 0.073149 0.968589 0.126267
C62   C     C_R   0.492078 0.926849 0.031413 0.126266
C63   C     C_R   0.192917 0.956951 0.487414 0.136452
C64   C     C_R   0.807082 0.043048 0.512585 0.136451
O21   O     O_2   0.956140 0.630123 0.533309 -0.528292
O22   O     O_2   0.043858 0.369877 0.466691 -0.528292
O23   O     O_2   0.307159 0.396116 0.049439 -0.529406
O24   O     O_2   0.692880 0.603891 0.950569 -0.529415
O25   O     O_2   0.459249 0.869846 0.966657 -0.528258
O26   O     O_2   0.540751 0.130153 0.033345 -0.528264
O27   O     O_2   0.807175 0.103884 0.450571 -0.529402
O28   O     O_2   0.192820 0.896116 0.549428 -0.529403
O29   O     O_2   0.952160 0.516338 0.619425 -0.522924
O30   O     O_2   0.047839 0.483663 0.380575 -0.522925
O31   O     O_2   0.741078 0.454565 0.101425 -0.532103
O32   O     O_2   0.258932 0.545432 0.898576 -0.532121
O33   O     O_2   0.449161 0.983641 0.880630 -0.522891
O34   O     O_2   0.550827 0.016358 0.119373 -0.522896
O35   O     O_2   0.241023 0.045451 0.398580 -0.532128
O36   O     O_2   0.758978 0.954548 0.601418 -0.532129
H1    H     H_    0.985483 0.446119 0.590065 0.171597
H2    H     H_    0.014515 0.553881 0.409935 0.171597
H3    H     H_    0.598191 0.512132 0.063918 0.168514
H4    H     H_    0.401824 0.487867 0.936084 0.168513
H5    H     H_    0.480678 0.053894 0.910004 0.171586
H6    H     H_    0.519313 0.946104 0.089999 0.171586
H7    H     H_    0.098144 0.987879 0.436079 0.168512
H8    H     H_    0.901856 0.012121 0.563920 0.168512
C65   C     C_R   0.897738 0.393746 0.367709 -0.088022
C66   C     C_R   0.102261 0.606254 0.632291 -0.088022
C67   C     C_R   0.801579 0.602500 0.868731 -0.080605
C68   C     C_R   0.198392 0.397512 0.131281 -0.080589
C69   C     C_R   0.397840 0.106210 0.132317 -0.088123
C70   C     C_R   0.602177 0.893783 0.867690 -0.088127
C71   C     C_R   0.301582 0.897502 0.631267 -0.080611
C72   C     C_R   0.698413 0.102496 0.368731 -0.080611
H9    H     H_    0.771940 0.413768 0.372137 0.126968
H10   H     H_    0.228059 0.586232 0.627863 0.126968
H11   H     H_    0.690165 0.578793 0.873409 0.154108
H12   H     H_    0.309776 0.421226 0.126611 0.154089
H13   H     H_    0.272161 0.086143 0.127918 0.126798
H14   H     H_    0.727870 0.913845 0.872094 0.126780
H15   H     H_    0.190186 0.921212 0.626590 0.154116
H16   H     H_    0.809806 0.078785 0.373407 0.154112
C73   C     C_R   0.900979 0.364437 0.337325 0.099253
C74   C     C_R   0.099021 0.635563 0.662675 0.099254
C75   C     C_R   0.783794 0.631632 0.838423 0.097924
C76   C     C_R   0.216166 0.368380 0.161590 0.097924
C77   C     C_R   0.401079 0.135525 0.162698 0.099316
C78   C     C_R   0.598939 0.864469 0.837308 0.099325
C79   C     C_R   0.283797 0.868370 0.661575 0.097917
C80   C     C_R   0.716198 0.131629 0.338423 0.097917
C81   C     C_R   0.065898 0.337722 0.332191 -0.067780
C82   C     C_R   0.934102 0.662278 0.667809 -0.067780
C83   C     C_R   0.931413 0.662651 0.832508 -0.068706
C84   C     C_R   0.068587 0.337350 0.167493 -0.068706
C85   C     C_R   0.565883 0.162283 0.167802 -0.067785
C86   C     C_R   0.434118 0.837716 0.832198 -0.067785
C87   C     C_R   0.431398 0.837346 0.667490 -0.068710
C88   C     C_R   0.568601 0.162653 0.332510 -0.068713
C89   C     C_R   0.223587 0.342378 0.357422 -0.243735
C90   C     C_R   0.776413 0.657623 0.642578 -0.243735
C91   C     C_R   0.093172 0.662602 0.857088 -0.246504
C92   C     C_R   0.906871 0.337388 0.142904 -0.246502
C93   C     C_R   0.723446 0.157675 0.142537 -0.243609
C94   C     C_R   0.276540 0.842330 0.857459 -0.243606
C95   C     C_R   0.593133 0.837390 0.642908 -0.246501
C96   C     C_R   0.406868 0.162611 0.357092 -0.246499
H17   H     H_    0.350946 0.322559 0.354428 0.139211
H18   H     H_    0.649054 0.677441 0.645571 0.139211
H19   H     H_    0.207985 0.685727 0.853493 0.141408
H20   H     H_    0.792089 0.314255 0.146490 0.141413
H21   H     H_    0.850725 0.177524 0.145511 0.139193
H22   H     H_    0.149250 0.822485 0.854482 0.139196
H23   H     H_    0.707931 0.814261 0.646502 0.141414
H24   H     H_    0.292074 0.185741 0.353500 0.141414
C97   C     C_R   0.217886 0.371817 0.387381 -0.088158
C98   C     C_R   0.782113 0.628184 0.612619 -0.088157
C99   C     C_R   0.107683 0.633541 0.887160 -0.088386
C100  C     C_R   0.892367 0.366450 0.112832 -0.088367
C101  C     C_R   0.717703 0.128246 0.112569 -0.088257
C102  C     C_R   0.282279 0.871758 0.887428 -0.088267
C103  C     C_R   0.607642 0.866449 0.612835 -0.088376
C104  C     C_R   0.392360 0.133552 0.387165 -0.088373
H25   H     H_    0.340613 0.374483 0.406500 0.134684
H26   H     H_    0.659387 0.625518 0.593499 0.134684
H27   H     H_    0.232262 0.634760 0.905934 0.157349
H28   H     H_    0.767823 0.365224 0.094050 0.157333
H29   H     H_    0.840293 0.125623 0.093414 0.134512
H30   H     H_    0.159674 0.874386 0.906578 0.134499
H31   H     H_    0.732202 0.865225 0.594061 0.157353
H32   H     H_    0.267804 0.134777 0.405941 0.157349
C105  C     C_R   0.054430 0.397496 0.392903 0.342731
C106  C     C_R   0.945569 0.602504 0.607097 0.342731
C107  C     C_R   0.961519 0.603431 0.893391 0.330783
C108  C     C_R   0.038495 0.396571 0.106612 0.330785
C109  C     C_R   0.554377 0.102518 0.107086 0.343109
C110  C     C_R   0.445621 0.897481 0.892916 0.343132
C111  C     C_R   0.461501 0.896565 0.606607 0.330771
C112  C     C_R   0.538497 0.103434 0.393392 0.330776
C113  C     C_3   0.022709 0.380729 0.543226 -0.656733
H33   H     H_    0.162334 0.366764 0.533699 0.234277
H34   H     H_    0.015778 0.376695 0.574705 0.181068
H35   H     H_    0.898589 0.362839 0.531035 0.236607
C114  C     C_3   0.977290 0.619271 0.456774 -0.656734
H36   H     H_    0.837664 0.633236 0.466300 0.234277
H37   H     H_    0.101410 0.637162 0.468964 0.236607
H38   H     H_    0.984221 0.623306 0.425295 0.181068
C115  C     C_3   0.519955 0.572497 0.013833 -0.661903
H39   H     H_    0.433191 0.569234 0.987361 0.232389
H40   H     H_    0.421302 0.565212 0.038026 0.179626
H41   H     H_    0.569095 0.605843 0.017474 0.236190
C116  C     C_3   0.480052 0.427501 0.986168 -0.661906
H42   H     H_    0.566833 0.430765 0.012638 0.232395
H43   H     H_    0.430899 0.394155 0.982531 0.236183
H44   H     H_    0.578693 0.434783 0.961972 0.179627
C117  C     C_3   0.516926 0.119311 0.956844 -0.656968
H45   H     H_    0.656355 0.133518 0.966173 0.234382
H46   H     H_    0.508605 0.123353 0.925384 0.181116
H47   H     H_    0.392667 0.136966 0.969233 0.236576
C118  C     C_3   0.483071 0.880687 0.043159 -0.656965
H48   H     H_    0.343643 0.866480 0.033830 0.234383
H49   H     H_    0.607331 0.863033 0.030769 0.236577
H50   H     H_    0.491393 0.876645 0.074619 0.181116
C119  C     C_3   0.019908 0.927510 0.486159 -0.661919
H51   H     H_    0.933173 0.930765 0.512633 0.232416
H52   H     H_    0.921231 0.934806 0.461973 0.179627
H53   H     H_    0.069032 0.894165 0.482509 0.236172
C120  C     C_3   0.980091 0.072489 0.513840 -0.661918
H54   H     H_    0.066825 0.069235 0.487366 0.232415
H55   H     H_    0.930968 0.105834 0.517491 0.236171
H56   H     H_    0.078771 0.065193 0.538026 0.179627
C121  C     C_3   0.729132 0.363320 0.310706 -0.712774
H57   H     H_    0.778205 0.366988 0.280691 0.205403
H58   H     H_    0.649636 0.332927 0.314111 0.217290
H59   H     H_    0.625103 0.389405 0.316798 0.199183
C122  C     C_3   0.270868 0.636680 0.689294 -0.712776
H60   H     H_    0.350363 0.667073 0.685889 0.217290
H61   H     H_    0.221796 0.633012 0.719308 0.205404
H62   H     H_    0.374897 0.610595 0.683202 0.199183
C123  C     C_3   0.608941 0.627999 0.812753 -0.709247
H63   H     H_    0.513943 0.656151 0.816447 0.217554
H64   H     H_    0.655537 0.625288 0.782501 0.200795
H65   H     H_    0.520600 0.599469 0.819545 0.212382
C124  C     C_3   0.390959 0.372025 0.187274 -0.709262
H66   H     H_    0.344299 0.374725 0.217522 0.200777
H67   H     H_    0.486017 0.343882 0.183583 0.217581
H68   H     H_    0.479252 0.400564 0.180492 0.212377
C125  C     C_3   0.229360 0.136606 0.189346 -0.712821
H69   H     H_    0.278602 0.132964 0.219353 0.205331
H70   H     H_    0.149683 0.166978 0.185944 0.217346
H71   H     H_    0.125445 0.110490 0.183278 0.199255
C126  C     C_3   0.770678 0.863382 0.810666 -0.712823
H72   H     H_    0.850324 0.833007 0.814067 0.217341
H73   H     H_    0.721465 0.867030 0.780657 0.205340
H74   H     H_    0.874613 0.889492 0.816739 0.199250
C127  C     C_3   0.108966 0.872006 0.687245 -0.709255
H75   H     H_    0.013957 0.843855 0.683554 0.217563
H76   H     H_    0.155585 0.874719 0.717497 0.200791
H77   H     H_    0.020631 0.900536 0.680451 0.212389
C128  C     C_3   0.891025 0.127990 0.312751 -0.709244
H78   H     H_    0.844397 0.125279 0.282500 0.200787
H79   H     H_    0.986044 0.156141 0.316443 0.217564
H80   H     H_    0.979353 0.099458 0.319543 0.212386

loop_
_geom_bond_atom_site_label_1
_geom_bond_atom_site_label_2
_ccdc_geom_bond_type
O17   V3    S    
C88   C96   A    
C50   C58   A    
O18   V4    S    
O12   V1    S    
O19   V1    S    
C96   C104  A    
C115  H39   S    
C37   C45   A    
C97   H25   S    
C10   N2    A    
C77   C125  S    
C76   C84   A    
C56   C64   A    
C77   C85   A    
O15   V4    S    
C58   C114  S    
C29   C37   A    
C116  H42   S    
C119  H53   S    
C93   C101  A    
C30   C54   A    
C75   C83   A    
C127  H75   S    
C52   H4    S    
O12   C4    A    
C98   H26   S    
O8    V1    S    
N3    C108  S    
C42   C57   A    
C15   N7    A    
C71   H15   S    
C41   C58   A    
C70   C78   A    
C120  H56   S    
C8    C81   S    
C26   C50   A    
C103  C111  A    
C128  H78   S    
C104  C112  A    
C38   C46   A    
C46   C61   A    
C21   O33   S    
C98   C106  A    
C34   C42   A    
C124  H67   S    
C67   C75   A    
C45   C62   A    
O1    V3    S    
C3    C86   S    
C17   C25   A    
C4    C85   S    
C22   O34   S    
O3    C2    A    
O2    V4    S    
C125  H69   S    
C65   C73   A    
N7    C112  S    
C70   C110  A    
C16   N8    A    
N8    C111  S    
C73   C121  S    
C60   C116  S    
C54   C62   A    
C27   C35   A    
C21   C29   A    
C26   C34   A    
O11   V2    S    
C69   C77   A    
C102  H30   S    
C113  H34   S    
C23   C31   A    
C75   C123  S    
C16   C48   A    
C2    C87   S    
C56   H8    S    
C83   C91   A    
C123  H63   S    
C65   H9    S    
C119  H52   S    
C113  H33   S    
O9    V1    S    
O4    V3    S    
C49   C57   A    
C100  H28   S    
O15   C7    A    
N7    C23   A    
N5    C21   A    
O16   C8    A    
O7    V2    S    
C95   C103  A    
C124  H66   S    
C85   C93   A    
C115  H40   S    
C30   C38   A    
C99   H27   S    
C114  H36   S    
C53   C61   A    
C19   O31   S    
C11   O23   S    
N1    C17   A    
C68   H12   S    
C94   C102  A    
C117  H47   S    
C117  H45   S    
O5    V1    S    
C116  H43   S    
O17   V1    S    
C121  H58   S    
C7    C82   S    
C127  H76   S    
C120  H55   S    
O19   V3    S    
C35   C36   A    
C18   C26   A    
C5    C84   S    
C51   H3    S    
O20   V4    S    
O10   C2    A    
C66   C74   A    
C54   H6    S    
C124  H68   S    
C33   C41   A    
C93   H21   S    
C68   C108  A    
C104  H32   S    
C17   O29   S    
C14   C46   A    
C91   H19   S    
C119  H51   S    
C118  H48   S    
C67   H11   S    
C101  C109  A    
C92   C100  A    
C71   C111  A    
C39   C47   A    
C68   C76   A    
C55   C63   A    
C125  H70   S    
C65   C105  A    
C15   C47   A    
C44   C59   A    
C114  H38   S    
C55   H7    S    
C120  H54   S    
C91   C99   A    
C16   O28   S    
C123  H64   S    
C73   C81   A    
C52   C60   A    
C128  H79   S    
C82   C90   A    
C78   C126  S    
O11   C3    A    
N6    C22   A    
C24   C32   A    
C121  H57   S    
O13   C5    A    
O3    V4    S    
C12   O24   S    
C71   C79   A    
C36   C44   A    
O9    C1    A    
C48   C63   A    
C53   H5    S    
C72   C80   A    
C50   H2    S    
C59   C115  S    
C29   C53   A    
C43   C60   A    
C102  C110  A    
O4    C1    A    
N2    C105  S    
C9    C41   A    
O6    V2    S    
N2    C18   A    
C114  H37   S    
C33   C34   A    
C126  H73   S    
C12   C44   A    
C61   C117  S    
O14   C6    A    
C122  H61   S    
C115  H41   S    
C25   C49   A    
O10   V2    S    
C12   N4    A    
C1    C88   S    
C35   C43   A    
N6    C109  S    
C13   N5    A    
C121  H59   S    
C49   H1    S    
C90   H18   S    
C11   N3    A    
C94   H22   S    
C103  H31   S    
O16   V3    S    
C116  H44   S    
C69   H13   S    
N8    C24   A    
C118  H50   S    
C117  H46   S    
C127  H77   S    
C32   C56   A    
C86   C94   A    
C31   C55   A    
O2    C3    A    
O13   V3    S    
C74   C122  S    
C11   C43   A    
C27   C51   A    
O1    C4    A    
O8    C5    A    
N4    C20   A    
C128  H80   S    
C69   C109  A    
C63   C119  S    
C15   O27   S    
C122  H62   S    
O7    C6    A    
C51   C59   A    
C80   C128  S    
C122  H60   S    
C99   C107  A    
C74   C82   A    
C125  H71   S    
C9    N1    A    
C39   C40   A    
C78   C86   A    
C72   H16   S    
C92   H20   S    
C118  H49   S    
C81   C89   A    
O20   V2    S    
C14   O26   S    
C24   O36   S    
C57   C113  S    
C113  H35   S    
C13   O25   S    
C28   C52   A    
C90   C98   A    
N3    C19   A    
O5    C8    A    
C13   C45   A    
C97   C105  A    
C100  C108  A    
C89   H17   S    
O6    C7    A    
C79   C87   A    
C76   C124  S    
C10   O22   S    
C95   H23   S    
N1    C106  S    
C9    O21   S    
C32   C40   A    
C67   C107  A    
C37   C38   A    
C123  H65   S    
C96   H24   S    
C14   N6    A    
C40   C48   A    
C66   C106  A    
C28   C36   A    
C79   C127  S    
N4    C107  S    
C101  H29   S    
C23   O35   S    
N5    C110  S    
C47   C64   A    
C19   C27   A    
C6    C83   S    
C70   H14   S    
C20   C28   A    
C64   C120  S    
C126  H74   S    
C89   C97   A    
C18   O30   S    
C62   C118  S    
C22   C30   A    
C20   O32   S    
C10   C42   A    
C84   C92   A    
C72   C112  A    
C126  H72   S    
O14   V4    S    
C31   C39   A    
C66   H10   S    
C80   C88   A    
C87   C95   A    
C25   C33   A    
O18   V2    S    
