data_mof_unit_24187.cif
_audit_creation_date              2012-10-26T18:52:47-0400
_audit_creation_method            fapswitch 2.2
_symmetry_space_group_name_H-M    P1
_symmetry_Int_Tables_number       1
_space_group_crystal_system       triclinic
_cell_length_a                    10.796564
_cell_length_b                    14.698544
_cell_length_c                    14.726499
_cell_angle_alpha                 64.721451
_cell_angle_beta                  103.802141
_cell_angle_gamma                 103.226529
_cell_volume                      2030.64854247

loop_
_atom_site_label
_atom_site_type_symbol
_atom_type_description
_atom_site_fract_x
_atom_site_fract_y
_atom_site_fract_z
_atom_type_partial_charge
C1    C     C_R   0.482303 0.119812 0.312124 0.546119
C2    C     C_R   0.536004 0.357490 0.076279 0.029827
C3    C     C_R   0.485004 0.318584 0.999724 0.052802
C4    C     C_R   0.260142 0.998946 0.500893 0.560274
C5    C     C_R   0.578798 0.463624 0.048109 0.032132
C6    C     C_R   0.553277 0.530493 0.944261 0.035277
C7    C     C_R   0.508699 0.488382 0.869960 -0.119246
C8    C     C_R   0.477076 0.384113 0.897518 -0.106707
C9    C     C_R   0.645329 0.505267 0.120024 -0.147357
C10   C     C_R   0.674075 0.609710 0.092689 -0.125052
C11   C     C_R   0.635955 0.676172 0.993381 0.052092
C12   C     C_3   0.875587 0.997159 0.497573 0.006563
C13   C     C_R   0.574173 0.637249 0.918293 0.027107
C14   C     C_R   0.658842 0.781416 0.968286 -0.116317
C15   C     C_R   0.620120 0.848733 0.869383 -0.109121
C16   C     C_R   0.525028 0.879937 0.687885 0.558139
C17   C     C_R   0.531206 0.706396 0.820439 -0.141619
C18   C     C_R   0.718572 0.289162 0.663011 -0.137226
C19   C     C_R   0.688269 0.207955 0.633195 0.019489
C20   C     C_R   0.510541 0.280081 0.514343 0.050344
C21   C     C_R   0.539888 0.368805 0.536253 -0.038669
C22   C     C_R   0.644317 0.369336 0.616170 0.040466
C23   C     C_3   0.953769 0.970464 0.609244 0.153230
C24   C     C_R   0.469710 0.454987 0.484666 0.009906
C25   C     C_R   0.502715 0.536358 0.519800 -0.069059
C26   C     C_R   0.598880 0.527418 0.605650 -0.136824
C27   C     C_R   0.672767 0.448405 0.650317 0.270837
C28   C     C_R   0.739300 0.000359 0.498303 0.587066
C29   C     C_R   0.370023 0.465573 0.398532 0.261085
C30   C     C_R   0.300974 0.547449 0.356473 -0.095224
C31   C     C_R   0.335195 0.628275 0.387599 -0.024217
C32   C     C_R   0.438699 0.624881 0.468325 -0.028714
C33   C     C_R   0.270091 0.714382 0.337124 -0.040509
C34   C     C_3   0.941148 0.106441 0.433586 -0.355724
C35   C     C_R   0.312805 0.797305 0.364410 0.067588
C36   C     C_R   0.475925 0.712423 0.492117 0.022142
C37   C     C_3   0.030681 0.930199 0.442164 0.188248
C38   C     C_3   0.884868 0.924152 0.444541 0.263143
C39   C     C_3   0.096154 0.962255 0.613147 -0.100588
C40   C     C_3   0.086946 0.106067 0.441500 -0.331558
C41   C     C_3   0.121817 0.995304 0.501931 -0.047025
C42   C     C_3   0.085149 0.760606 0.544473 -0.065713
C43   C     C_3   0.871203 0.519370 0.705068 -0.133950
C44   C     C_1   0.813887 0.964382 0.337051 0.182468
C45   C     C_R   0.484208 0.186845 0.204351 0.002749
C46   C     C_3   0.397622 0.433074 0.268183 -0.135144
C47   C     C_1   0.160737 0.720700 0.256773 0.161460
C48   C     C_3   0.786935 0.760199 0.443565 -0.115123
C49   C     C_1   0.140049 0.866653 0.689566 0.210587
C50   C     C_3   0.839726 0.806196 0.699054 -0.050805
C51   C     C_R   0.556168 0.811397 0.794910 0.009328
C52   C     C_R   0.440049 0.214538 0.026194 -0.121461
C53   C     C_R   0.439108 0.149119 0.127860 -0.116663
C54   C     C_R   0.535073 0.289633 0.178355 -0.143799
Cu1   Cu    Cu3+1 0.465900 0.918260 0.475680 0.955814
Cu2   Cu    Cu3+1 0.534100 0.081740 0.524320 0.939703
H1    H     H_    0.930046 0.163300 0.461279 0.146738
H2    H     H_    0.568983 0.315776 0.239169 0.115053
H3    H     H_    0.044331 0.980789 0.362268 0.122532
H4    H     H_    0.499554 0.534110 0.789446 0.100719
H5    H     H_    0.679318 0.458830 0.197914 0.103848
H6    H     H_    0.707398 0.811648 0.025129 0.124559
H7    H     H_    0.555770 0.718483 0.549930 0.126815
H8    H     H_    0.264860 0.864205 0.326034 0.155068
H9    H     H_    0.222933 0.549066 0.294186 0.149372
H10   H     H_    0.799662 0.288608 0.722903 0.151771
H11   H     H_    0.744888 0.146045 0.669631 0.135015
H12   H     H_    0.158088 0.019582 0.641715 0.096372
H13   H     H_    0.426675 0.265395 0.464272 0.207148
H14   H     H_    0.619355 0.580909 0.641174 0.103519
H15   H     H_    0.143571 0.157092 0.479747 0.166331
H16   H     H_    0.112608 0.139316 0.363689 0.141783
H17   H     H_    0.895079 0.134402 0.352487 0.146613
H18   H     H_    0.017093 0.751341 0.593195 0.148190
H19   H     H_    0.185808 0.768532 0.583314 0.170971
H20   H     H_    0.068798 0.688314 0.533683 0.107275
H21   H     H_    0.951532 0.505649 0.770165 0.154394
H22   H     H_    0.846601 0.595673 0.685178 0.109432
H23   H     H_    0.963931 0.042767 0.619734 0.144423
H24   H     H_    0.906640 0.517809 0.640663 0.101028
H25   H     H_    0.504064 0.439976 0.291656 0.111628
H26   H     H_    0.369576 0.507154 0.210308 0.132734
H27   H     H_    0.368036 0.377740 0.231554 0.153371
H28   H     H_    0.851556 0.773193 0.389496 0.170745
H29   H     H_    0.688729 0.772891 0.400577 0.146730
H30   H     H_    0.782574 0.679483 0.497017 0.108807
H31   H     H_    0.906357 0.768369 0.686041 0.144474
H32   H     H_    0.746377 0.807893 0.647755 0.173218
H33   H     H_    0.817907 0.758153 0.776907 0.134668
H34   H     H_    0.441865 0.354941 0.838285 0.118086
H35   H     H_    0.476023 0.680080 0.762780 0.119683
H36   H     H_    0.641528 0.929732 0.851005 0.136670
H37   H     H_    0.724238 0.638575 0.150278 0.123083
H38   H     H_    0.402511 0.184220 0.968009 0.114204
H39   H     H_    0.401465 0.069449 0.146417 0.137338
N1    N     N_R   0.585360 0.204570 0.560800 -0.251011
N2    N     N_R   0.414550 0.795430 0.439160 -0.250631
N3    N     N_1   0.759234 0.995285 0.254541 -0.320316
N4    N     N_1   0.073155 0.725810 0.192540 -0.301195
N5    N     N_1   0.175777 0.792506 0.751199 -0.334588
O1    O     O_R   0.455060 0.022100 0.338110 -0.505930
O2    O     O_3   0.765516 0.442877 0.735085 -0.566790
O3    O     O_3   0.334557 0.396540 0.353280 -0.607913
O4    O     O_3   0.829477 0.822474 0.500230 -0.600785
O5    O     O_3   0.894420 0.903582 0.696126 -0.575746
O6    O     O_R   0.512640 0.160150 0.379180 -0.513714
O7    O     O_R   0.288900 0.930980 0.479450 -0.469164
O8    O     O_R   0.346480 0.069030 0.520520 -0.517745
O9    O     O_R   0.487360 0.839850 0.620820 -0.531330
O10   O     O_R   0.544940 0.977900 0.661890 -0.493097
O11   O     O_R   0.653520 0.930970 0.479480 -0.472427
O12   O     O_R   0.711100 0.069020 0.520550 -0.512368
O13   O     O_3   0.067194 0.840062 0.447591 -0.572229

loop_
_geom_bond_atom_site_label_1
_geom_bond_atom_site_label_2
_ccdc_geom_bond_type
Cu1   Cu2   S    
C40   H15   S    
C53   H39   S    
C39   H12   S    
C17   H35   S    
C16   C51   S    
C17   C51   A    
C33   C47   S    
C16   O10   A    
C7    C8    A    
C39   C41   S    
C28   O12   A    
C43   H22   S    
C38   C44   S    
C4    O8    A    
C12   C23   S    
C26   C27   A    
C29   C30   A    
C12   C28   S    
C9    H5    S    
C32   C36   A    
C30   C31   A    
C11   C14   A    
C14   H6    S    
C37   O13   S    
C4    C41   S    
C48   O4    S    
C47   N4    T    
C29   O3    S    
C18   C19   A    
C24   C29   A    
Cu2   O8    S    
C38   O4    S    
C50   H33   S    
C15   H36   S    
C46   H26   S    
C44   N3    T    
C34   H1    S    
C31   C33   A    
C52   H38   S    
C36   N2    A    
C15   C51   A    
C36   H7    S    
C9    C10   A    
C50   H32   S    
C1    O6    A    
C25   C32   A    
C20   N1    A    
C45   C53   A    
C21   C22   A    
Cu1   O9    S    
C12   C38   S    
Cu2   O10   S    
C16   O9    A    
C28   O11   A    
C4    O7    A    
C42   H18   S    
C24   C25   A    
C3    C8    A    
C2    C54   A    
C10   H37   S    
C25   C26   A    
C48   H28   S    
Cu1   O7    S    
C5    C9    A    
C37   C38   S    
C50   O5    S    
C46   H25   S    
C42   O13   S    
C31   C32   A    
Cu1   N2    S    
C42   H19   S    
C37   H3    S    
C19   H11   S    
Cu2   O6    S    
C35   H8    S    
C50   H31   S    
C40   C41   S    
C39   C49   S    
C45   C54   A    
C22   C27   A    
C26   H14   S    
C48   H30   S    
C20   H13   S    
C2    C5    A    
C43   H21   S    
C12   C34   S    
C1    O1    A    
C7    H4    S    
C52   C53   A    
C54   H2    S    
Cu2   N1    S    
C40   H16   S    
Cu1   O11   S    
C18   C22   A    
C48   H29   S    
C3    C52   A    
C6    C7    A    
C18   H10   S    
C46   O3    S    
Cu1   O1    S    
C27   O2    S    
C42   H20   S    
C13   C17   A    
C2    C3    A    
C43   H24   S    
C43   O2    S    
C6    C13   A    
C11   C13   A    
C1    C45   S    
C5    C6    A    
C23   C39   S    
C33   C35   A    
C37   C41   S    
C30   H9    S    
C10   C11   A    
C34   H17   S    
C46   H27   S    
C8    H34   S    
C20   C21   A    
C21   C24   A    
C14   C15   A    
C34   C40   S    
C23   H23   S    
C35   N2    A    
Cu2   O12   S    
C19   N1    A    
C49   N5    T    
C23   O5    S    
