data_mof_unit_19215.cif
_audit_creation_date              2012-12-10T17:40:56-0500
_audit_creation_method            fapswitch 2.2
_symmetry_space_group_name_H-M    P1
_symmetry_Int_Tables_number       1
_space_group_crystal_system       triclinic
_cell_length_a                    14.437099
_cell_length_b                    15.502663
_cell_length_c                    9.952058
_cell_angle_alpha                 90.770786
_cell_angle_beta                  92.088555
_cell_angle_gamma                 89.59591
_cell_volume                      2225.67564437

loop_
_atom_site_label
_atom_site_type_symbol
_atom_type_description
_atom_site_fract_x
_atom_site_fract_y
_atom_site_fract_z
_atom_type_partial_charge
C1    C     C_R   0.393946 0.870791 0.498383 0.887763
C2    C     C_R   0.392430 0.128946 0.499585 0.892576
C3    C     C_R   0.892046 0.371495 0.498538 0.885061
C4    C     C_R   0.892773 0.628925 0.499387 0.888812
C5    C     C_R   0.313352 0.247343 0.374769 0.090522
C6    C     C_R   0.308033 0.756091 0.375879 0.081762
C7    C     C_R   0.814819 0.748628 0.375872 0.092051
C8    C     C_R   0.805476 0.258058 0.374024 0.083908
C9    C     C_R   0.743636 0.807094 0.381765 -0.200506
C10   C     C_R   0.731254 0.203701 0.381103 -0.247173
C11   C     C_R   0.241902 0.305594 0.379114 -0.198219
C12   C     C_R   0.232047 0.703807 0.384486 -0.251064
C13   C     C_R   0.713262 0.836848 0.506000 -0.163468
C14   C     C_R   0.710000 0.166224 0.502953 -0.136684
C15   C     C_R   0.214061 0.338870 0.502352 -0.164200
C16   C     C_R   0.202422 0.676315 0.509456 -0.137530
C17   C     C_R   0.332377 0.959682 0.126729 0.166329
C18   C     C_R   0.831551 0.462024 0.126252 0.164461
C19   C     C_R   0.265726 0.912876 0.052207 -0.297428
C20   C     C_R   0.765074 0.414786 0.051951 -0.304494
C21   C     C_R   0.266624 0.910891 0.913732 0.049706
C22   C     C_R   0.768026 0.409784 0.913770 0.037813
C23   C     C_R   0.332914 0.961285 0.852338 0.162499
C24   C     C_R   0.833366 0.460701 0.851818 0.164303
C25   C     C_R   0.418342 0.980972 0.923011 0.064995
C26   C     C_R   0.918053 0.482269 0.922888 0.066814
C27   C     C_R   0.418158 0.981054 0.067594 0.046781
C28   C     C_R   0.917718 0.482685 0.067479 0.048118
C29   C     C_R   0.578215 0.014549 0.075864 0.166262
C30   C     C_R   0.078951 0.510890 0.075995 0.166946
C31   C     C_R   0.626727 0.114289 0.502053 0.848607
C32   C     C_R   0.627868 0.886839 0.502251 0.849005
C33   C     C_R   0.123246 0.618686 0.503308 0.846551
C34   C     C_R   0.128235 0.387697 0.501475 0.862524
C35   C     C_R   0.577323 0.015839 0.933276 -0.185110
C36   C     C_R   0.078395 0.511344 0.933165 -0.194563
C37   C     C_R   0.406351 0.258197 0.726746 -0.144022
C38   C     C_R   0.404672 0.748675 0.724291 -0.194464
C39   C     C_R   0.909755 0.756546 0.724370 -0.138309
C40   C     C_R   0.907206 0.244527 0.722270 -0.215048
C41   C     C_R   0.400482 0.313188 0.838352 0.158696
C42   C     C_R   0.386004 0.715300 0.849745 0.171435
C43   C     C_R   0.901049 0.805204 0.841716 0.165254
C44   C     C_R   0.900932 0.192156 0.834863 0.157263
C45   C     C_R   0.825798 0.861126 0.853622 -0.206528
C46   C     C_R   0.834463 0.127705 0.834791 -0.144876
C47   C     C_R   0.332438 0.377489 0.839636 -0.204243
C48   C     C_R   0.300789 0.677238 0.868413 -0.156037
C49   C     C_R   0.762037 0.871178 0.746339 -0.211572
C50   C     C_R   0.773505 0.116799 0.724235 -0.221916
C51   C     C_R   0.271065 0.387133 0.729653 -0.189214
C52   C     C_R   0.236845 0.667872 0.760778 -0.263700
C53   C     C_R   0.770643 0.823979 0.624260 0.114663
C54   C     C_R   0.773550 0.173327 0.614556 0.101102
C55   C     C_R   0.273706 0.330169 0.617741 0.107161
C56   C     C_R   0.257664 0.694254 0.629128 0.102187
C57   C     C_R   0.342646 0.265268 0.615771 0.030371
C58   C     C_R   0.338546 0.742986 0.616185 0.042499
C59   C     C_R   0.843487 0.763275 0.616707 0.032997
C60   C     C_R   0.842674 0.236974 0.611956 0.035215
C61   C     C_R   0.349971 0.214328 0.497156 -0.185287
C62   C     C_R   0.350541 0.786708 0.495276 -0.170204
C63   C     C_R   0.851444 0.714555 0.497032 -0.189340
C64   C     C_R   0.847830 0.287642 0.494953 -0.165165
H1    H     H_    0.640579 0.029062 0.884468 0.121586
H2    H     H_    0.142918 0.518734 0.883816 0.123728
H3    H     H_    0.464995 0.214587 0.725021 0.180484
H4    H     H_    0.471450 0.778280 0.711558 0.159886
H5    H     H_    0.971672 0.717481 0.715684 0.167844
H6    H     H_    0.965868 0.287258 0.720658 0.176368
H7    H     H_    0.818586 0.899541 0.944425 0.129517
H8    H     H_    0.831968 0.083923 0.918483 0.132562
H9    H     H_    0.329505 0.422394 0.923746 0.133584
H10   H     H_    0.283546 0.655153 0.966951 0.125221
H11   H     H_    0.710327 0.919555 0.761223 0.167603
H12   H     H_    0.730817 0.060728 0.722010 0.154920
H13   H     H_    0.226853 0.443271 0.730140 0.169407
H14   H     H_    0.170815 0.644453 0.787636 0.186360
H15   H     H_    0.710811 0.827158 0.287472 0.181530
H16   H     H_    0.689870 0.191627 0.290079 0.171862
H17   H     H_    0.207504 0.323385 0.284774 0.180952
H18   H     H_    0.195260 0.686055 0.291721 0.170384
H19   H     H_    0.204247 0.890896 0.100643 0.158887
H20   H     H_    0.703491 0.392872 0.100171 0.159649
N1    N     N_R   0.498810 1.000000 0.142780 -0.101108
N2    N     N_R   0.998810 0.500000 0.142780 -0.101502
N3    N     N_R   0.498740 0.000000 0.857170 -0.106200
N4    N     N_R   0.998740 0.500000 0.857170 -0.105926
O1    O     O_R   0.408390 0.908380 0.614690 -0.618120
O2    O     O_R   0.408390 0.091620 0.614690 -0.596242
O3    O     O_R   0.908390 0.408380 0.614690 -0.621720
O4    O     O_R   0.908390 0.591620 0.614690 -0.595100
O5    O     O_R   0.408370 0.908380 0.385360 -0.578082
O6    O     O_R   0.408370 0.091620 0.385360 -0.601562
O7    O     O_R   0.908370 0.408380 0.385360 -0.578419
O8    O     O_R   0.908370 0.591620 0.385360 -0.602701
O9    O     O_R   0.591620 0.091610 0.614640 -0.644130
O10   O     O_R   0.591620 0.908390 0.614640 -0.647799
O11   O     O_R   0.091620 0.591610 0.614640 -0.654789
O12   O     O_R   0.091620 0.408390 0.614640 -0.638069
O13   O     O_R   0.591610 0.091610 0.385310 -0.602996
O14   O     O_R   0.591610 0.908390 0.385310 -0.608823
O15   O     O_R   0.091610 0.591610 0.385310 -0.602331
O16   O     O_R   0.091610 0.408390 0.385310 -0.607957
Zn1   Zn    Zn3+2 0.500010 1.000000 0.653130 0.925482
Zn2   Zn    Zn3+2 0.000010 0.500000 0.653130 0.925515
Zn3   Zn    Zn3+2 0.499980 1.000000 0.346870 0.960525
Zn4   Zn    Zn3+2 0.999980 0.500000 0.346870 0.960124
N5    N     N_3   0.350815 0.228301 0.246169 -0.475727
H21   H     H_    0.326541 0.169277 0.209472 0.213917
H22   H     H_    0.423219 0.227582 0.255114 0.202105
N6    N     N_3   0.342111 0.778022 0.246973 -0.423463
H23   H     H_    0.302793 0.748370 0.169369 0.176804
H24   H     H_    0.409072 0.752386 0.241727 0.203008
N7    N     N_3   0.852035 0.730157 0.247014 -0.477117
H25   H     H_    0.827339 0.671350 0.209887 0.212793
H26   H     H_    0.924411 0.728567 0.256416 0.198669
N8    N     N_3   0.837662 0.282802 0.245303 -0.427854
H27   H     H_    0.800039 0.251513 0.167391 0.176900
H28   H     H_    0.905844 0.260325 0.239047 0.199453
N9    N     N_3   0.185907 0.880770 0.838859 -0.463285
H29   H     H_    0.157411 0.829556 0.890348 0.201767
H30   H     H_    0.207482 0.853123 0.748961 0.193014
N10   N     N_3   0.691161 0.373556 0.837009 -0.465179
H31   H     H_    0.658297 0.328049 0.895197 0.198885
H32   H     H_    0.718116 0.337746 0.757635 0.195573
N11   N     N_3   0.298840 0.015315 0.746543 -0.362613
H33   H     H_    0.262688 0.979465 0.672350 0.190399
H34   H     H_    0.252161 0.059739 0.786785 0.168510
N12   N     N_3   0.798517 0.513072 0.744387 -0.359681
H35   H     H_    0.760397 0.476143 0.673555 0.192271
H36   H     H_    0.753151 0.558834 0.784252 0.166976
N13   N     N_3   0.467120 0.305913 0.947447 -0.483788
H37   H     H_    0.431075 0.295356 0.034632 0.194523
H38   H     H_    0.500489 0.365296 0.959569 0.183777
N14   N     N_3   0.451912 0.722792 0.959990 -0.484415
H39   H     H_    0.513387 0.692655 0.931862 0.180696
H40   H     H_    0.465878 0.788299 0.976000 0.187268
N15   N     N_3   0.970786 0.799132 0.946840 -0.489435
H41   H     H_    0.938869 0.778920 0.033134 0.193411
H42   H     H_    0.996728 0.861019 0.966394 0.186290
N16   N     N_3   0.964588 0.201795 0.947491 -0.479817
H43   H     H_    0.031731 0.193571 0.913224 0.184142
H44   H     H_    0.958801 0.265124 0.983952 0.183959
N17   N     N_3   0.663763 0.026169 0.150335 -0.400263
H45   H     H_    0.708476 0.975960 0.123656 0.152310
H46   H     H_    0.693160 0.083712 0.119470 0.151705
N18   N     N_3   0.164746 0.518698 0.151060 -0.398455
H47   H     H_    0.207790 0.467626 0.122613 0.157597
H48   H     H_    0.196043 0.575895 0.122997 0.143380
N19   N     N_3   0.299733 0.002448 0.243710 -0.362616
H49   H     H_    0.263332 0.958497 0.300376 0.190070
H50   H     H_    0.249360 0.047108 0.211541 0.141160
N20   N     N_3   0.799354 0.503973 0.244105 -0.362358
H51   H     H_    0.763302 0.459632 0.300498 0.191073
H52   H     H_    0.748920 0.548882 0.213042 0.140610

loop_
_geom_bond_atom_site_label_1
_geom_bond_atom_site_label_2
_ccdc_geom_bond_type
C58   C62   A    
N11   H34   S    
O13   Zn3   S    
C40   C60   A    
C45   H7    S    
C13   C32   S    
C14   C31   S    
C1    C62   S    
N6    H24   S    
N17   H45   S    
C53   C59   A    
C8    N8    S    
C54   C60   A    
C3    C64   S    
C11   H17   S    
C4    C63   S    
C50   C54   A    
O10   Zn1   S    
C40   H6    S    
C31   O13   A    
C42   N14   S    
C19   C21   A    
N18   H48   S    
C5    C11   A    
C46   H8    S    
N5    H22   S    
C6    C12   A    
C36   H2    S    
C35   H1    S    
N7    H25   S    
C25   N3    A    
C52   H14   S    
C3    O3    A    
C9    H15   S    
C7    N7    S    
C2    O2    A    
C9    C13   A    
N8    H27   S    
C38   C58   A    
C11   C15   A    
C12   C16   A    
C44   C46   A    
N7    H26   S    
C34   O12   A    
N19   H49   S    
C49   H11   S    
C43   N15   S    
O15   Zn4   S    
C26   C28   A    
C30   N2    A    
C15   C34   S    
N20   H52   S    
C18   N20   S    
C2    C61   S    
O9    Zn1   S    
C23   C25   A    
O8    Zn4   S    
C4    O8    A    
C37   C41   A    
O3    Zn2   S    
C17   N19   S    
C35   N3    A    
C16   C56   A    
C19   H19   S    
C41   N13   S    
N6    H23   S    
N17   H46   S    
C27   N1    A    
C13   C53   A    
C56   C58   A    
C21   C23   A    
C41   C47   A    
C30   N18   S    
O6    Zn3   S    
C5    C61   A    
C17   C27   A    
C44   N16   S    
C48   H10   S    
C2    O6    A    
C18   C28   A    
N18   H47   S    
C47   H9    S    
N14   H40   S    
C10   C14   A    
C10   H16   S    
C39   C43   A    
C51   C55   A    
C34   O16   A    
C33   O11   A    
C15   C55   A    
N12   H36   S    
C51   H13   S    
C50   H12   S    
C16   C33   S    
N4    Zn2   S    
C29   N1    A    
N3    Zn1   S    
C45   C49   A    
C39   C59   A    
C39   H5    S    
C12   H18   S    
O14   Zn3   S    
C42   C48   A    
C22   N10   S    
C43   C45   A    
C7    C63   A    
N9    H29   S    
C8    C64   A    
O4    Zn2   S    
C14   C54   A    
C38   H4    S    
C55   C57   A    
C28   N2    A    
N13   H37   S    
C22   C24   A    
C40   C44   A    
N11   H33   S    
C31   O9    A    
O16   Zn4   S    
N16   H44   S    
N10   H32   S    
C7    C9    A    
O11   Zn2   S    
C46   C50   A    
C1    O1    A    
C33   O15   A    
C6    N6    S    
C8    C10   A    
N2    Zn4   S    
C24   C26   A    
O2    Zn1   S    
C20   C22   A    
N14   H39   S    
C47   C51   A    
N15   H41   S    
C57   C61   A    
C32   O14   A    
O12   Zn2   S    
C25   C27   A    
C29   C35   A    
C23   N11   S    
C59   C63   A    
C30   C36   A    
C60   C64   A    
C6    C62   A    
C20   H20   S    
N12   H35   S    
C36   N4    A    
N5    H21   S    
O5    Zn3   S    
C29   N17   S    
N15   H42   S    
C5    N5    S    
C49   C53   A    
C37   H3    S    
C17   C19   A    
C32   O10   A    
C18   C20   A    
N19   H50   S    
C21   N9    S    
N8    H28   S    
N9    H30   S    
O7    Zn4   S    
C38   C42   A    
C26   N4    A    
C24   N12   S    
N20   H51   S    
C48   C52   A    
C1    O5    A    
O1    Zn1   S    
N13   H38   S    
N16   H43   S    
C3    O7    A    
N1    Zn3   S    
C37   C57   A    
C52   C56   A    
N10   H31   S    
C4    O4    A    
