data_mof_unit_16935.cif
_audit_creation_date              2012-10-26T19:14:50-0400
_audit_creation_method            fapswitch 2.2
_symmetry_space_group_name_H-M    P1
_symmetry_Int_Tables_number       1
_space_group_crystal_system       triclinic
_cell_length_a                    19.660121
_cell_length_b                    18.103818
_cell_length_c                    10.62263
_cell_angle_alpha                 89.895044
_cell_angle_beta                  90.018863
_cell_angle_gamma                 89.999829
_cell_volume                      3780.83447069

loop_
_atom_site_label
_atom_site_type_symbol
_atom_type_description
_atom_site_fract_x
_atom_site_fract_y
_atom_site_fract_z
_atom_type_partial_charge
C1    C     C_R   0.367191 0.500000 0.499974 0.533733
C2    C     C_R   0.447933 0.279067 0.556145 0.027451
C3    C     C_R   0.551039 0.721176 0.558557 0.023072
C4    C     C_R   0.551035 0.278822 0.441495 0.023080
C5    C     C_R   0.445416 0.798266 0.446978 -0.164286
C6    C     C_R   0.445419 0.201734 0.552969 -0.164280
C7    C     C_R   0.553214 0.798510 0.555226 -0.166299
C8    C     C_R   0.553211 0.201488 0.444831 -0.166291
C9    C     C_R   0.499329 0.838183 0.500684 0.013931
C10   C     C_R   0.499328 0.161816 0.499319 0.013935
C11   C     C_R   0.495786 0.960785 0.615813 0.007504
C12   C     C_R   0.633106 0.500000 0.500035 0.532237
C13   C     C_R   0.495781 0.039214 0.384188 0.007503
C14   C     C_R   0.502512 0.960682 0.384532 0.007510
C15   C     C_R   0.502516 0.039318 0.615476 0.007508
C16   C     C_R   0.499191 0.078875 0.499655 0.013382
C17   C     C_R   0.499192 0.921124 0.500350 0.013384
C18   C     C_R   0.499968 0.499980 0.258981 0.543659
C19   C     C_R   0.500013 0.500020 0.741018 0.543648
C20   C     C_3   0.443795 0.534939 0.041750 -0.129867
C21   C     C_3   0.555502 0.465122 0.958452 -0.129012
C22   C     C_3   0.499737 0.570182 0.958804 -0.112844
C23   C     C_R   0.965265 0.503258 0.385961 -0.095896
C24   C     C_3   0.499717 0.429817 0.041191 -0.112837
C25   C     C_3   0.443798 0.465072 0.958139 -0.129862
C26   C     C_3   0.555499 0.534866 0.041650 -0.129003
C27   C     C_3   0.499755 0.500256 0.877654 0.048415
C28   C     C_3   0.499728 0.499744 0.122343 0.048420
C29   C     C_R   0.747215 0.435686 0.541397 -0.031847
C30   C     C_R   0.254069 0.560563 0.554973 -0.033219
C31   C     C_R   0.254054 0.439438 0.444954 -0.033210
C32   C     C_R   0.747209 0.564315 0.458760 -0.031854
C33   C     C_R   0.819274 0.436608 0.539079 -0.017474
C34   C     C_R   0.036031 0.494770 0.613914 -0.095884
C35   C     C_R   0.182051 0.559906 0.552552 -0.017698
C36   C     C_R   0.182036 0.440075 0.447421 -0.017699
C37   C     C_R   0.819268 0.563381 0.461082 -0.017473
C38   C     C_R   0.854517 0.499991 0.500075 -0.018577
C39   C     C_R   0.146761 0.499985 0.500001 -0.018668
C40   C     C_R   0.709919 0.500000 0.500065 -0.010479
C41   C     C_R   0.290938 0.500001 0.499965 -0.007412
C42   C     C_3   0.712180 0.365083 0.588628 -0.229221
C43   C     C_3   0.681035 0.375020 0.719889 -0.277938
C44   C     C_3   0.643436 0.305313 0.761883 -0.444495
C45   C     C_R   0.035974 0.505185 0.386146 -0.095879
C46   C     C_3   0.289825 0.626366 0.617783 -0.232649
C47   C     C_3   0.321317 0.605453 0.745194 -0.273676
C48   C     C_3   0.358522 0.671239 0.802941 -0.447475
C49   C     C_3   0.289793 0.373658 0.382085 -0.232663
C50   C     C_3   0.321240 0.394615 0.254694 -0.273698
C51   C     C_3   0.358438 0.328854 0.196894 -0.447480
C52   C     C_3   0.712168 0.634927 0.411546 -0.229215
C53   C     C_3   0.680999 0.625010 0.280262 -0.277935
C54   C     C_3   0.643399 0.694724 0.238264 -0.444498
C55   C     C_R   0.859197 0.370022 0.574399 0.034905
C56   C     C_R   0.965322 0.496700 0.614135 -0.095882
C57   C     C_R   0.872005 0.353682 0.701486 -0.103276
C58   C     C_R   0.908131 0.289945 0.734048 -0.117986
C59   C     C_R   0.930909 0.241917 0.640186 -0.109501
C60   C     C_R   0.917813 0.257715 0.513602 -0.109212
C61   C     C_R   0.882525 0.321869 0.480523 -0.089011
C62   C     C_R   0.142346 0.623245 0.602329 0.035113
C63   C     C_R   0.129831 0.629632 0.731990 -0.103580
C64   C     C_R   0.093940 0.690399 0.778447 -0.118070
C65   C     C_R   0.071118 0.745356 0.696034 -0.109575
C66   C     C_R   0.083940 0.739473 0.566994 -0.109214
C67   C     C_R   0.071637 0.499978 0.500021 0.045007
C68   C     C_R   0.118985 0.678329 0.519937 -0.088513
C69   C     C_R   0.142317 0.376727 0.397670 0.035098
C70   C     C_R   0.129737 0.370334 0.268016 -0.103600
C71   C     C_R   0.093820 0.309566 0.221586 -0.118073
C72   C     C_R   0.071035 0.254616 0.304019 -0.109576
C73   C     C_R   0.083921 0.260506 0.433052 -0.109219
C74   C     C_R   0.118994 0.321649 0.480081 -0.088503
C75   C     C_R   0.859186 0.629964 0.425771 0.034920
C76   C     C_R   0.871951 0.646307 0.298686 -0.103255
C77   C     C_R   0.908062 0.710048 0.266130 -0.117982
C78   C     C_R   0.929662 0.499982 0.500057 0.045136
C79   C     C_R   0.930864 0.758077 0.359997 -0.109503
C80   C     C_R   0.917811 0.742277 0.486579 -0.109211
C81   C     C_R   0.882540 0.678117 0.519651 -0.089018
C82   C     C_3   0.480687 0.920270 0.739355 -0.253256
C83   C     C_3   0.405310 0.927792 0.774520 -0.295944
C84   C     C_3   0.391067 0.894311 0.903839 -0.466342
C85   C     C_3   0.480676 0.079728 0.260630 -0.253258
C86   C     C_3   0.405298 0.072204 0.225384 -0.295942
C87   C     C_3   0.391046 0.105698 0.096060 -0.466334
C88   C     C_3   0.517531 0.920067 0.261304 -0.253048
C89   C     C_R   0.447929 0.720933 0.443804 0.027447
C90   C     C_3   0.592875 0.927602 0.225850 -0.296304
C91   C     C_3   0.606792 0.895185 0.095837 -0.467300
C92   C     C_3   0.517537 0.079933 0.738722 -0.253049
C93   C     C_3   0.592882 0.072402 0.774257 -0.296303
C94   C     C_3   0.606805 0.104831 0.904277 -0.467296
Cu1   Cu    Cu3+1 0.500000 0.573360 0.500000 0.896168
Cu2   Cu    Cu3+1 0.500000 0.426640 0.500000 0.896177
H1    H     H_    0.398070 0.436771 0.920343 0.094414
H2    H     H_    0.938322 0.494950 0.702898 0.096137
H3    H     H_    0.407866 0.690815 0.396826 0.114746
H4    H     H_    0.407873 0.309185 0.603084 0.114752
H5    H     H_    0.590189 0.691263 0.608416 0.112333
H6    H     H_    0.590181 0.308734 0.391672 0.112334
H7    H     H_    0.402884 0.826925 0.404280 0.086653
H8    H     H_    0.402889 0.173077 0.595624 0.086652
H9    H     H_    0.595305 0.827346 0.598888 0.087318
H10   H     H_    0.595298 0.172652 0.401213 0.087316
H11   H     H_    0.599670 0.294285 0.698691 0.183621
H12   H     H_    0.602045 0.562764 0.075507 0.095471
H13   H     H_    0.678210 0.256950 0.760962 0.142118
H14   H     H_    0.623934 0.312463 0.859097 0.127586
H15   H     H_    0.722184 0.387069 0.788592 0.139717
H16   H     H_    0.645207 0.422224 0.720816 0.182982
H17   H     H_    0.675401 0.344519 0.519043 0.156996
H18   H     H_    0.747037 0.317259 0.594863 0.140123
H19   H     H_    0.402817 0.686918 0.743703 0.177119
H20   H     H_    0.323772 0.719349 0.811630 0.140887
H21   H     H_    0.376860 0.656500 0.898408 0.130857
H22   H     H_    0.280324 0.587566 0.810492 0.141089
H23   H     H_    0.398063 0.563249 0.079455 0.094420
H24   H     H_    0.357539 0.558895 0.735266 0.181530
H25   H     H_    0.326837 0.652546 0.553741 0.161833
H26   H     H_    0.255036 0.673227 0.635504 0.140706
H27   H     H_    0.376753 0.343631 0.101450 0.130873
H28   H     H_    0.402749 0.313160 0.256134 0.177113
H29   H     H_    0.323692 0.280743 0.188142 0.140877
H30   H     H_    0.280222 0.412514 0.189408 0.141086
H31   H     H_    0.357458 0.441177 0.264666 0.181497
H32   H     H_    0.326831 0.347463 0.446102 0.161846
H33   H     H_    0.255002 0.326800 0.364315 0.140712
H34   H     H_    0.602050 0.437219 0.924664 0.095482
H35   H     H_    0.599649 0.705756 0.301439 0.183617
H36   H     H_    0.678178 0.743082 0.239205 0.142125
H37   H     H_    0.623872 0.687579 0.141041 0.127594
H38   H     H_    0.722135 0.612964 0.211580 0.139716
H39   H     H_    0.645168 0.577811 0.279304 0.182999
H40   H     H_    0.675402 0.655481 0.481120 0.156987
H41   H     H_    0.747025 0.682751 0.405356 0.140125
H42   H     H_    0.854004 0.390254 0.774820 0.089646
H43   H     H_    0.918141 0.277571 0.832032 0.095541
H44   H     H_    0.958550 0.192373 0.665522 0.092091
H45   H     H_    0.500463 0.627772 0.922777 0.110382
H46   H     H_    0.934949 0.220189 0.441074 0.096990
H47   H     H_    0.872645 0.333663 0.382208 0.098571
H48   H     H_    0.147897 0.587653 0.796593 0.089177
H49   H     H_    0.084156 0.695105 0.878366 0.095788
H50   H     H_    0.043661 0.792591 0.732164 0.092051
H51   H     H_    0.066778 0.782354 0.503407 0.096790
H52   H     H_    0.128655 0.674234 0.419821 0.098522
H53   H     H_    0.147771 0.412310 0.203398 0.089192
H54   H     H_    0.083987 0.304856 0.121672 0.095790
H55   H     H_    0.043557 0.207382 0.267910 0.092053
H56   H     H_    0.500421 0.372227 0.077220 0.110381
H57   H     H_    0.066785 0.217631 0.496655 0.096786
H58   H     H_    0.128712 0.325750 0.580192 0.098523
H59   H     H_    0.853929 0.609735 0.225347 0.089633
H60   H     H_    0.918038 0.722425 0.168148 0.095541
H61   H     H_    0.958492 0.807625 0.334666 0.092085
H62   H     H_    0.934965 0.779804 0.559110 0.096988
H63   H     H_    0.872691 0.666322 0.617964 0.098565
H64   H     H_    0.405042 0.834852 0.905103 0.148423
H65   H     H_    0.420572 0.923884 0.977329 0.144397
H66   H     H_    0.336078 0.899481 0.925891 0.138124
H67   H     H_    0.938220 0.505011 0.297212 0.096126
H68   H     H_    0.389746 0.986766 0.775484 0.154263
H69   H     H_    0.373824 0.898787 0.703034 0.162529
H70   H     H_    0.492161 0.860654 0.735257 0.148140
H71   H     H_    0.513588 0.940608 0.816500 0.131960
H72   H     H_    0.405008 0.165161 0.094835 0.148421
H73   H     H_    0.420555 0.076141 0.022592 0.144396
H74   H     H_    0.336057 0.100519 0.073943 0.138122
H75   H     H_    0.389738 0.013229 0.224385 0.154258
H76   H     H_    0.373813 0.101199 0.296845 0.162533
H77   H     H_    0.492147 0.139345 0.264740 0.148146
H78   H     H_    0.063070 0.489903 0.702340 0.096103
H79   H     H_    0.513574 0.059391 0.183519 0.131959
H80   H     H_    0.592194 0.835935 0.093249 0.149449
H81   H     H_    0.577582 0.925795 0.023006 0.144211
H82   H     H_    0.661831 0.899910 0.073888 0.138177
H83   H     H_    0.608634 0.986523 0.225851 0.154870
H84   H     H_    0.624373 0.897874 0.296640 0.161724
H85   H     H_    0.506081 0.860443 0.265911 0.148422
H86   H     H_    0.484549 0.940331 0.184099 0.132054
H87   H     H_    0.592210 0.164083 0.906830 0.149451
H88   H     H_    0.577596 0.074230 0.977084 0.144210
H89   H     H_    0.062968 0.510052 0.297706 0.096111
H90   H     H_    0.661844 0.100105 0.926288 0.138176
H91   H     H_    0.608643 0.013481 0.774288 0.154866
H92   H     H_    0.624376 0.102125 0.703493 0.161728
H93   H     H_    0.506083 0.139556 0.734103 0.148423
H94   H     H_    0.484559 0.059667 0.815891 0.132054
N1    N     N_R   0.500000 0.683620 0.500000 -0.220406
N2    N     N_R   0.500000 0.316380 0.500000 -0.220406
O1    O     O_R   0.400190 0.561980 0.499980 -0.513716
O2    O     O_R   0.599810 0.438020 0.500020 -0.510981
O3    O     O_R   0.599810 0.561980 0.500020 -0.510983
O4    O     O_R   0.400190 0.438020 0.499980 -0.513713
O5    O     O_R   0.499980 0.561940 0.316860 -0.502124
O6    O     O_R   0.500020 0.438060 0.683140 -0.502122
O7    O     O_R   0.500020 0.561940 0.683140 -0.507125
O8    O     O_R   0.499980 0.438060 0.316860 -0.507111

loop_
_geom_bond_atom_site_label_1
_geom_bond_atom_site_label_2
_ccdc_geom_bond_type
C58   H43   S    
C33   C55   S    
C66   C68   A    
C83   H68   S    
C5    H7    S    
C34   C56   A    
C93   C94   S    
C23   C45   A    
C80   C81   A    
C29   C42   S    
C51   H27   S    
C73   C74   A    
C4    N2    A    
C1    O1    A    
Cu1   Cu2   S    
C53   H39   S    
C56   H2    S    
C21   C26   S    
C84   H64   S    
C53   C54   S    
C92   H93   S    
Cu2   O6    S    
C54   H35   S    
C83   H69   S    
C62   C63   A    
C43   H15   S    
C30   C35   A    
C89   H3    S    
C83   C84   S    
C81   H63   S    
C91   H80   S    
C2    N2    A    
C3    C7    A    
C77   H60   S    
C64   H49   S    
C71   H54   S    
C20   C25   S    
C15   C16   A    
C87   H73   S    
C91   H82   S    
C29   C33   A    
C56   C78   A    
C74   H58   S    
Cu2   O8    S    
C32   C52   S    
C24   H56   S    
C60   H46   S    
C15   C92   S    
C90   H83   S    
C11   C15   A    
C42   H18   S    
C47   H22   S    
C47   C48   S    
C4    H6    S    
C45   C67   A    
C85   H77   S    
C63   H48   S    
C7    H9    S    
C46   H25   S    
C70   C71   A    
C50   H30   S    
C6    H8    S    
C19   C27   S    
C42   C43   S    
C68   H52   S    
C4    C8    A    
C48   H20   S    
C44   H13   S    
C3    H5    S    
Cu2   O2    S    
C21   C27   S    
C2    H4    S    
C59   C60   A    
Cu1   O1    S    
C13   C14   A    
C51   H28   S    
C14   C17   A    
C2    C6    A    
C70   H53   S    
C94   H88   S    
C31   C49   S    
C26   C28   S    
C92   H94   S    
C52   H41   S    
C23   H67   S    
C82   H71   S    
C77   C79   A    
C11   C82   S    
C90   H84   S    
C86   H75   S    
C51   H29   S    
C94   H90   S    
C1    O4    A    
C18   C28   S    
C24   C25   S    
C26   H12   S    
C86   C87   S    
C75   C81   A    
C20   C28   S    
C58   C59   A    
C85   C86   S    
C54   H37   S    
C49   H33   S    
C82   C83   S    
C63   C64   A    
C60   C61   A    
C12   C40   S    
C35   C39   A    
C75   C76   A    
C5    C9    A    
C37   C38   A    
C34   H78   S    
C3    N1    A    
C42   H17   S    
C80   H62   S    
C87   H72   S    
Cu1   O5    S    
C72   H55   S    
C18   O5    A    
C50   C51   S    
C89   N1    A    
C69   C74   A    
C30   C41   A    
C32   C37   A    
C76   C77   A    
C91   H81   S    
C66   H51   S    
C48   H19   S    
C93   H91   S    
C9    C17   S    
C47   H24   S    
C88   C90   S    
C65   C66   A    
C22   C27   S    
C55   C57   A    
C43   C44   S    
C18   O8    A    
C52   H40   S    
C12   O3    A    
C86   H76   S    
C21   C24   S    
C8    C10   A    
C43   H16   S    
C90   C91   S    
C84   H66   S    
C52   C53   S    
C73   H57   S    
C82   H70   S    
C44   H11   S    
C25   H1    S    
C7    C9    A    
C49   H32   S    
C46   C47   S    
C11   C17   A    
C19   O6    A    
Cu1   O3    S    
C31   C41   A    
C39   C67   S    
C30   C46   S    
C36   C39   A    
C53   H38   S    
C24   C28   S    
C20   C22   S    
C72   C73   A    
C8    H10   S    
C34   C67   A    
C79   H61   S    
C1    C41   S    
C88   H86   S    
C48   H21   S    
Cu1   N1    S    
C25   C27   S    
C38   C78   S    
C76   H59   S    
C19   O7    A    
C33   C38   A    
C62   C68   A    
C54   H36   S    
C64   C65   A    
Cu2   N2    S    
C61   H47   S    
C36   C69   S    
C65   H50   S    
C14   C88   S    
C71   C72   A    
C10   C16   S    
C87   H74   S    
C45   H89   S    
C88   H85   S    
C59   H44   S    
C55   C61   A    
C22   H45   S    
C92   C93   S    
C85   H79   S    
C57   H42   S    
C35   C62   S    
C32   C40   A    
C23   C78   A    
C37   C75   S    
C69   C70   A    
C21   H34   S    
C6    C10   A    
C22   C26   S    
C79   C80   A    
C93   H92   S    
Cu2   O4    S    
Cu1   O7    S    
C49   C50   S    
C94   H87   S    
C13   C16   A    
C13   C85   S    
C31   C36   A    
C46   H26   S    
C50   H31   S    
C29   C40   A    
C57   C58   A    
C20   H23   S    
C5    C89   A    
C84   H65   S    
C12   O2    A    
C44   H14   S    
