data_mof_unit_43806.cif
_audit_creation_date              2012-12-11T14:21:17-0500
_audit_creation_method            fapswitch 2.2
_symmetry_space_group_name_H-M    P1
_symmetry_Int_Tables_number       1
_space_group_crystal_system       triclinic
_cell_length_a                    11.538638
_cell_length_b                    11.630728
_cell_length_c                    19.404
_cell_angle_alpha                 90.507737
_cell_angle_beta                  89.264292
_cell_angle_gamma                 59.446216
_cell_volume                      2241.95832373

loop_
_atom_site_label
_atom_site_type_symbol
_atom_type_description
_atom_site_fract_x
_atom_site_fract_y
_atom_site_fract_z
_atom_type_partial_charge
C1    C     C_R   0.640569 0.118182 0.598869 0.560301
C2    C     C_1   0.652095 0.151320 0.668310 0.003401
C3    C     C_R   0.694774 0.578280 0.209632 -0.004483
C4    C     C_R   0.612760 0.745327 0.598247 0.549474
C5    C     C_R   0.580026 0.600298 0.250035 -0.003753
C6    C     C_R   0.595396 0.584859 0.321738 0.084597
C7    C     C_R   0.798522 0.592518 0.315379 -0.167543
C8    C     C_R   0.808974 0.559311 0.244991 -0.155125
C9    C     C_R   0.448815 0.645660 0.225115 -0.110523
C10   C     C_R   0.347664 0.653948 0.268947 -0.169204
C11   C     C_R   0.377805 0.605299 0.335589 -0.113519
C12   C     C_1   0.641307 0.702893 0.667557 0.007028
C13   C     C_R   0.504251 0.564795 0.361552 0.131704
C14   C     C_R   0.682446 0.620733 0.352290 0.025775
C15   C     C_R   0.163723 0.182234 0.187729 0.031415
C16   C     C_R   0.239448 0.146265 0.597598 0.546811
C17   C     C_R   0.196505 0.266692 0.223342 -0.020029
C18   C     C_R   0.177165 0.278817 0.294962 0.024244
C19   C     C_R   0.180783 0.067975 0.295038 -0.148132
C20   C     C_R   0.162010 0.077241 0.223474 0.223668
C21   C     C_R   0.233679 0.349615 0.188878 -0.081537
C22   C     C_R   0.222175 0.460737 0.222350 -0.126894
C23   C     C_1   0.128881 0.197565 0.859729 0.007111
C24   C     C_R   0.176166 0.488260 0.290532 -0.152180
C25   C     C_R   0.152987 0.399064 0.326643 -0.082330
C26   C     C_R   0.185803 0.169426 0.331781 -0.034393
C27   C     C_R   0.647660 0.173686 0.183206 -0.008286
C28   C     C_R   0.620960 0.080378 0.393923 0.555385
C29   C     C_R   0.707035 0.038760 0.201064 0.039230
C30   C     C_R   0.713959 0.005430 0.271417 0.021141
C31   C     C_R   0.552055 0.239687 0.297568 -0.129315
C32   C     C_R   0.564009 0.273020 0.230540 -0.154174
C33   C     C_R   0.769533 0.936469 0.150260 -0.069380
C34   C     C_1   0.170096 0.171024 0.727546 -0.031872
C35   C     C_R   0.860729 0.807246 0.168963 -0.095346
C36   C     C_R   0.883806 0.778220 0.238104 -0.139766
C37   C     C_R   0.805725 0.872245 0.288966 -0.110683
C38   C     C_R   0.632722 0.107685 0.320554 -0.000779
C39   C     C_R   0.083253 0.230338 0.929142 0.541591
C40   C     C_R   0.625343 0.723816 0.408331 0.559838
C41   C     C_R   0.683674 0.605119 0.929839 0.556868
C42   C     C_R   0.707988 0.206158 0.930512 0.538644
C43   C     C_R   0.088941 0.231761 0.123224 0.547076
C44   C     C_R   0.706831 0.552766 0.134031 0.564834
C45   C     C_1   0.151174 0.181567 0.799010 -0.031699
C46   C     C_R   0.702344 0.208843 0.123948 0.528027
C47   C     C_R   0.242130 0.142396 0.401521 0.538949
C48   C     C_1   0.670929 0.647105 0.860410 0.003053
C49   C     C_1   0.655134 0.682986 0.728188 -0.031398
C50   C     C_1   0.664082 0.666819 0.799701 -0.031995
C51   C     C_1   0.192839 0.162484 0.666867 0.006515
C52   C     C_1   0.678534 0.190241 0.861216 0.005427
C53   C     C_1   0.657616 0.168371 0.728991 -0.031747
C54   C     C_1   0.665205 0.180682 0.800573 -0.030804
Cr1   Cr    Cr6+3 0.404720 0.198220 0.499960 1.011555
Cr2   Cr    Cr6+3 0.698290 0.897110 0.500380 1.012762
Cr3   Cr    Cr6+3 0.396970 0.904720 0.499610 1.022034
Cr4   Cr    Cr6+3 0.926180 0.151990 0.028120 1.062326
Cr5   Cr    Cr6+3 0.921330 0.451820 0.027470 1.009698
Cr6   Cr    Cr6+3 0.626260 0.446870 0.028710 1.017095
H1    H     H_    0.876337 0.602682 0.340021 0.110546
H2    H     H_    0.823196 0.837936 0.341024 0.156983
H3    H     H_    0.417061 0.685890 0.174632 0.181296
H4    H     H_    0.902038 0.529518 0.217089 0.152641
H5    H     H_    0.246080 0.696645 0.250813 0.105972
H6    H     H_    0.301966 0.606196 0.369099 0.100966
H7    H     H_    0.190649 0.982205 0.321876 0.130592
H8    H     H_    0.265290 0.332256 0.135126 0.131992
H9    H     H_    0.461487 0.580616 0.464145 0.244061
H10   H     H_    0.535817 0.424386 0.431104 0.233923
H11   H     H_    0.133402 0.926145 0.221274 0.313579
H12   H     H_    0.241160 0.528724 0.193642 0.111569
H13   H     H_    0.152413 0.581416 0.314909 0.093676
H14   H     H_    0.112376 0.427117 0.378635 0.134204
H15   H     H_    0.485088 0.319997 0.332412 0.153049
H16   H     H_    0.753532 0.957715 0.095840 0.124119
H17   H     H_    0.514013 0.377090 0.216864 0.146868
H18   H     H_    0.915875 0.730456 0.129999 0.128873
H19   H     H_    0.958665 0.680189 0.252244 0.113816
N1    N     N_3   0.537107 0.513517 0.429977 -0.617683
O1    O     O_R   0.267740 0.231960 0.575440 -0.506845
O2    O     O_R   0.596130 0.579390 0.952730 -0.498449
O3    O     O_R   0.639060 0.321160 0.958670 -0.496423
O4    O     O_R   0.527280 0.186640 0.570530 -0.489390
O5    O     O_R   0.821240 0.124200 0.104370 -0.492974
O6    O     O_R   0.036890 0.167040 0.097840 -0.427828
O7    O     O_R   0.056180 0.349610 0.102880 -0.552222
O8    O     O_R   0.797660 0.564870 0.097950 -0.501595
O9    O     O_R   0.595880 0.584250 0.104270 -0.527721
O10   O     O_R   0.638830 0.325670 0.099150 -0.523872
O11   O     O_3   0.824590 0.350230 0.028100 -0.274946
O12   O     O_R   0.685970 0.784660 0.430010 -0.534638
O13   O     O_R   0.728090 0.003450 0.576380 -0.499569
O14   O     O_R   0.682970 0.789190 0.570490 -0.496659
O15   O     O_R   0.499290 0.771880 0.575530 -0.508293
O16   O     O_R   0.285330 0.030870 0.569730 -0.491672
O17   O     O_R   0.270980 0.227080 0.423890 -0.530852
O18   O     O_R   0.530280 0.182120 0.430050 -0.509611
O19   O     O_R   0.731330 0.998570 0.424830 -0.522572
O20   O     O_3   0.142453 0.985234 0.187901 -0.674646
O21   O     O_R   0.502530 0.767000 0.423990 -0.499126
O22   O     O_R   0.288330 0.026350 0.429250 -0.496136
O23   O     O_3   0.499990 0.000020 0.499980 -0.265090
O24   O     O_R   0.821500 0.119340 0.952830 -0.511095
O25   O     O_R   0.037130 0.162530 0.957360 -0.492572
O26   O     O_R   0.056440 0.344740 0.951340 -0.507941
O27   O     O_R   0.797900 0.560360 0.957470 -0.488989

loop_
_geom_bond_atom_site_label_1
_geom_bond_atom_site_label_2
_ccdc_geom_bond_type
C39   O26   A    
C23   C45   T    
C29   C33   A    
C27   C29   A    
C19   C20   A    
C18   C26   A    
C16   C51   S    
C12   C49   T    
C7    C8    A    
C53   C54   S    
C1    O4    A    
Cr2   O14   S    
Cr3   O22   S    
C34   C51   T    
C36   C37   A    
C25   H14   S    
C5    C6    A    
Cr6   O3    S    
C24   H13   S    
Cr6   O11   S    
Cr1   O23   S    
C30   C38   A    
C15   C17   A    
C1    C2    S    
C19   C26   A    
Cr5   O8    S    
C7    H1    S    
C32   H17   S    
Cr6   O2    S    
C7    C14   A    
C35   C36   A    
Cr3   O16   S    
C19   H7    S    
Cr1   O1    S    
C9    C10   A    
C11   H6    S    
C46   O5    A    
C48   C50   T    
C40   O21   A    
C13   N1    S    
C47   O22   A    
C21   C22   A    
C15   C20   A    
C18   C25   A    
Cr4   O6    S    
C22   H12   S    
C52   C54   T    
C37   H2    S    
Cr2   O13   S    
Cr3   O23   S    
C3    C44   S    
C16   O16   A    
Cr5   O26   S    
H10   N1    S    
C24   C25   A    
C3    C8    A    
Cr6   O9    S    
C2    C53   T    
Cr5   O27   S    
C30   C37   A    
C5    C9    A    
C29   C30   A    
C6    C14   A    
C4    O15   A    
C33   H16   S    
C31   H15   S    
C31   C32   A    
C20   O20   S    
C28   C38   S    
Cr1   O17   S    
C17   C18   A    
C34   C45   S    
Cr5   O11   S    
C40   O12   A    
C26   C47   S    
C8    H4    S    
C4    O14   A    
C28   O19   A    
C21   H8    S    
C22   C24   A    
C4    C12   S    
Cr4   O5    S    
C27   C46   S    
Cr4   O11   S    
C10   H5    S    
C28   O18   A    
C39   O25   A    
C41   O27   A    
C27   C32   A    
C9    H3    S    
C43   O6    A    
C42   O3    A    
Cr2   O23   S    
C3    C5    A    
C36   H19   S    
C42   O24   A    
C46   O10   A    
Cr6   O10   S    
Cr3   O21   S    
H11   O20   S    
C35   H18   S    
C47   O17   A    
C31   C38   A    
Cr4   O25   S    
C43   O7    A    
C15   C43   S    
C6    C13   A    
C11   C13   A    
C23   C39   S    
C41   O2    A    
Cr1   O18   S    
C16   O1    A    
C33   C35   A    
C41   C48   S    
Cr5   O7    S    
C10   C11   A    
C14   C40   S    
Cr2   O12   S    
Cr4   O24   S    
C1    O13   A    
C49   C50   S    
Cr3   O15   S    
H9    N1    S    
Cr2   O19   S    
Cr1   O4    S    
C44   O8    A    
C44   O9    A    
C42   C52   S    
C17   C21   A    
