data_mof_unit_52567.cif
_audit_creation_date              2012-12-10T18:58:10-0500
_audit_creation_method            fapswitch 2.2
_symmetry_space_group_name_H-M    P1
_symmetry_Int_Tables_number       1
_space_group_crystal_system       triclinic
_cell_length_a                    11.045677
_cell_length_b                    10.860267
_cell_length_c                    9.560012
_cell_angle_alpha                 90.862914
_cell_angle_beta                  102.519912
_cell_angle_gamma                 90.445937
_cell_volume                      1119.34053197

loop_
_atom_site_label
_atom_site_type_symbol
_atom_type_description
_atom_site_fract_x
_atom_site_fract_y
_atom_site_fract_z
_atom_type_partial_charge
C1    C     C_R   0.496747 0.262649 0.498281 0.821351
C2    C     C_R   0.485942 0.129866 0.495165 -0.089631
C3    C     C_R   0.459664 0.062123 0.365642 -0.196121
C4    C     C_R   0.461960 0.933424 0.367565 -0.180068
C5    C     C_R   0.491732 0.871351 0.498947 -0.079409
C6    C     C_R   0.505350 0.940508 0.626100 -0.037514
C7    C     C_3   0.602290 0.942396 0.763874 -0.260247
C8    C     C_3   0.594740 0.082965 0.760973 0.256259
C9    C     C_R   0.605029 0.530207 0.100701 0.185156
C10   C     C_R   0.399986 0.458731 0.048502 -0.076540
C11   C     C_R   0.399765 0.459243 0.899888 -0.075917
C12   C     C_R   0.262823 0.498416 0.441992 0.854683
C13   C     C_R   0.606209 0.526613 0.953427 0.180875
C14   C     C_3   0.679789 0.642917 0.965356 0.219703
C15   C     C_3   0.672350 0.651170 0.122155 0.200499
C16   C     C_R   0.499905 0.737828 0.500651 0.776844
C17   C     C_R   0.737106 0.498409 0.558093 0.855445
C18   C     C_2   0.127875 0.492032 0.409712 -0.316712
C19   C     C_2   0.067499 0.488682 0.516535 -0.148577
C20   C     C_2   0.872027 0.496473 0.591205 -0.349030
C21   C     C_2   0.933002 0.481243 0.486097 -0.122106
C22   C     C_R   0.500190 0.067106 0.623443 -0.012721
Cu1   Cu    Cu3+1 0.499990 0.499980 0.640670 0.967883
Cu2   Cu    Cu3+1 0.500010 0.500020 0.359330 0.955071
H1    H     H_    0.883538 0.465322 0.375990 0.226922
H2    H     H_    0.318323 0.426507 0.082543 0.154837
H3    H     H_    0.317836 0.427544 0.823968 0.145856
H4    H     H_    0.630147 0.716374 0.898359 0.050676
H5    H     H_    0.614548 0.728969 0.146932 0.046718
H6    H     H_    0.117284 0.493536 0.627917 0.176620
H7    H     H_    0.921897 0.509591 0.701723 0.172527
H8    H     H_    0.077676 0.488841 0.298482 0.183922
H9    H     H_    0.442048 0.108063 0.263555 0.163232
H10   H     H_    0.444772 0.883164 0.266351 0.160332
H11   H     H_    0.565993 0.904768 0.854170 0.120639
H12   H     H_    0.554778 0.123223 0.848366 0.132817
N1    N     N_R   0.500780 0.500930 0.148120 -0.217093
N2    N     N_R   0.500790 0.500890 0.852210 -0.217849
O1    O     O_R   0.500000 0.319640 0.618810 -0.555354
O2    O     O_R   0.500010 0.319680 0.381230 -0.586388
O3    O     O_R   0.320680 0.500000 0.575130 -0.589827
O4    O     O_R   0.320690 0.500040 0.337550 -0.583749
O5    O     O_R   0.499990 0.680320 0.618770 -0.591479
O6    O     O_R   0.500000 0.680360 0.381190 -0.592834
O7    O     O_R   0.679310 0.499960 0.662450 -0.565496
O8    O     O_R   0.679320 0.500000 0.424870 -0.572774
O9    O     O_3   0.704302 0.144791 0.746786 -0.663640
H13   H     H_    0.725469 0.118935 0.654962 0.326063
O10   O     O_3   0.800716 0.621075 0.947601 -0.627591
H14   H     H_    0.804225 0.650222 0.850863 0.332051
O11   O     O_3   0.788805 0.642595 0.215369 -0.654676
H15   H     H_    0.782674 0.687686 0.304548 0.325416
C23   C     C_2   0.726020 0.891246 0.750729 0.431616
H16   H     H_    0.737129 0.844458 0.653285 0.029722
O12   O     O_2   0.815405 0.902482 0.850758 -0.490393

loop_
_geom_bond_atom_site_label_1
_geom_bond_atom_site_label_2
_ccdc_geom_bond_type
C2    C22   A    
C11   N2    A    
C8    C22   S    
Cu1   Cu2   S    
C14   H4    S    
C6    C7    S    
Cu1   O7    S    
C15   O11   S    
Cu1   N2    S    
Cu2   O4    S    
C16   O6    A    
O9    H13   S    
Cu1   O3    S    
C11   H3    S    
Cu2   O8    S    
C10   H2    S    
C9    N1    A    
C2    C3    A    
C9    C15   S    
C8    O9    S    
C7    C8    S    
C13   C14   S    
C20   C21   D    
C16   O5    A    
C13   N2    A    
C12   O3    A    
C10   N1    A    
Cu1   O1    S    
C19   C21   S    
C17   O7    A    
C15   H5    S    
C23   O12   D    
C5    C6    A    
Cu2   O6    S    
C9    C13   A    
C4    H10   S    
C14   O10   S    
C18   H8    S    
C10   C11   A    
C3    H9    S    
C12   O4    A    
C3    C4    A    
C6    C22   A    
C17   C20   S    
Cu1   O5    S    
C17   O8    A    
Cu2   N1    S    
C1    C2    S    
C8    H12   S    
C12   C18   S    
O10   H14   S    
C1    O1    A    
C14   C15   S    
C18   C19   D    
C5    C16   S    
C21   H1    S    
C7    C23   S    
C1    O2    A    
Cu2   O2    S    
C23   H16   S    
C19   H6    S    
C7    H11   S    
O11   H15   S    
C4    C5    A    
C20   H7    S    
