data_mof_unit_16649.cif
_audit_creation_date              2012-10-26T19:52:48-0400
_audit_creation_method            fapswitch 2.2
_symmetry_space_group_name_H-M    P1
_symmetry_Int_Tables_number       1
_space_group_crystal_system       triclinic
_cell_length_a                    15.027348
_cell_length_b                    10.832095
_cell_length_c                    9.574045
_cell_angle_alpha                 90.642727
_cell_angle_beta                  90.18117
_cell_angle_gamma                 90.848664
_cell_volume                      1558.16302346

loop_
_atom_site_label
_atom_site_type_symbol
_atom_type_description
_atom_site_fract_x
_atom_site_fract_y
_atom_site_fract_z
_atom_type_partial_charge
C1    C     C_R   0.496495 0.262348 0.498895 0.565678
C2    C     C_R   0.184734 0.392343 0.437853 0.271852
C3    C     C_R   0.232749 0.492125 0.499977 0.013530
C4    C     C_R   0.329131 0.497448 0.499831 0.506944
C5    C     C_R   0.188632 0.589804 0.563913 -0.096340
C6    C     C_R   0.492560 0.065794 0.622154 -0.004855
C7    C     C_R   0.483900 0.129083 0.497407 -0.038801
C8    C     C_R   0.454349 0.061800 0.377497 0.269953
C9    C     C_R   0.446548 0.932539 0.382224 0.289733
C10   C     C_R   0.477601 0.869690 0.502238 -0.022262
C11   C     C_R   0.491202 0.939155 0.624409 -0.108540
C12   C     C_R   0.909018 0.600383 0.562314 0.014429
C13   C     C_3   0.559509 0.935909 0.738283 0.332468
C14   C     C_3   0.560706 0.075963 0.735340 0.788719
C15   C     C_R   0.575520 0.528942 0.074219 0.112037
C16   C     C_R   0.494162 0.737328 0.500613 0.558690
C17   C     C_R   0.430085 0.452267 0.073196 0.519649
C18   C     C_R   0.429936 0.452624 0.924936 0.538952
C19   C     C_R   0.576242 0.526477 0.927232 0.091089
C20   C     C_3   0.634067 0.639110 0.919643 0.144736
C21   C     C_3   0.630463 0.645213 0.079201 0.602128
C22   C     C_R   0.670890 0.500711 0.499943 0.541868
C23   C     C_R   0.948785 0.293959 0.386913 0.264364
C24   C     C_R   0.815629 0.605600 0.556103 0.294784
C25   C     C_R   0.767393 0.504131 0.499289 0.023127
C26   C     C_R   0.810818 0.403164 0.441319 -0.094202
C27   C     C_R   0.903638 0.396708 0.444313 0.026421
C28   C     C_R   0.953021 0.496817 0.503801 -0.079486
C29   C     C_R   0.041354 0.295848 0.381518 0.028494
C30   C     C_R   0.091206 0.394155 0.439677 0.040146
C31   C     C_R   0.046756 0.494390 0.502974 -0.062209
C32   C     C_R   0.096074 0.592684 0.564703 -0.035650
C33   C     C_R   0.052277 0.692864 0.625483 0.425944
C34   C     C_R   0.959864 0.697400 0.623711 0.485870
Cu1   Cu    Cu3+1 0.500000 0.499980 0.640670 1.129002
Cu2   Cu    Cu3+1 0.500000 0.500020 0.359330 1.122535
F1    F     F_    0.638953 0.886696 0.693302 -0.574450
F2    F     F_    0.527945 0.129874 0.856055 -0.577900
F3    F     F_    0.640691 0.127502 0.691594 -0.529496
F4    F     F_    0.359437 0.401427 0.139829 -0.525058
F5    F     F_    0.359097 0.402065 0.856535 -0.534939
F6    F     F_    0.711919 0.629242 0.144106 -0.527816
F7    F     F_    0.099089 0.787776 0.685705 -0.550289
F8    F     F_    0.920944 0.797096 0.683703 -0.476627
H1    H     H_    0.533275 0.897346 0.837193 0.109602
H2    H     H_    0.853287 0.172358 0.393384 0.358319
H3    H     H_    0.289959 0.291263 0.403378 0.367734
H4    H     H_    0.488206 0.150557 0.215403 0.367813
H5    H     H_    0.602386 0.715365 0.863359 0.133778
H6    H     H_    0.770537 0.330583 0.393364 0.152022
H7    H     H_    0.074090 0.217316 0.334419 0.226695
H8    H     H_    0.227225 0.665008 0.610828 0.186298
H9    H     H_    0.712582 0.713766 0.563603 0.370396
H10   H     H_    0.378623 0.797832 0.299330 0.331314
H11   H     H_    0.754537 0.687346 0.877526 0.411322
H12   H     H_    0.527473 0.754336 0.082739 0.296212
N1    N     N_R   0.500570 0.500930 0.147930 -0.316142
N2    N     N_R   0.500570 0.500890 0.852020 -0.312016
O1    O     O_R   0.500000 0.319640 0.618810 -0.424106
O2    O     O_3   0.411592 0.871880 0.266661 -0.602961
O3    O     O_3   0.718790 0.609804 0.870011 -0.586362
O4    O     O_3   0.585516 0.748669 0.132001 -0.598843
O5    O     O_3   0.905581 0.190269 0.334037 -0.620554
O6    O     O_3   0.226193 0.291506 0.377711 -0.621567
O7    O     O_3   0.431550 0.119537 0.255696 -0.550467
O8    O     O_R   0.500010 0.319680 0.381230 -0.492013
O9    O     O_R   0.370250 0.499950 0.618800 -0.451298
O10   O     O_R   0.370260 0.499990 0.381220 -0.455682
O11   O     O_R   0.499990 0.680320 0.618770 -0.524136
O12   O     O_R   0.500000 0.680360 0.381190 -0.466083
O13   O     O_R   0.629740 0.500010 0.618780 -0.454639
O14   O     O_R   0.629750 0.500050 0.381200 -0.462580
O15   O     O_3   0.773945 0.711885 0.600942 -0.536279

loop_
_geom_bond_atom_site_label_1
_geom_bond_atom_site_label_2
_ccdc_geom_bond_type
C19   C20   S    
C7    C8    A    
H10   O2    S    
C15   C19   A    
C26   C27   A    
C29   C30   A    
C12   C28   A    
Cu1   N2    S    
C23   C29   A    
C26   H6    S    
C30   C31   A    
Cu2   O8    S    
C24   O15   S    
C14   F2    S    
Cu1   O1    S    
C20   O3    S    
C14   F3    S    
C18   N2    A    
Cu1   Cu2   S    
Cu2   O12   S    
C8    C9    A    
C22   C25   S    
C5    H8    S    
C23   C27   A    
H4    O7    S    
C9    C10   A    
C13   F1    S    
C5    C32   A    
C23   O5    S    
Cu1   O13   S    
C8    O7    S    
C13   C14   S    
C15   N1    A    
C22   O14   A    
C2    O6    S    
C33   C34   A    
C19   N2    A    
C33   F7    S    
C16   O12   A    
C24   C25   A    
Cu2   N1    S    
C18   F5    S    
H3    O6    S    
C4    O10   A    
C25   C26   A    
C17   F4    S    
C1    O8    A    
C20   H5    S    
C6    C14   S    
C31   C32   A    
Cu1   O9    S    
C17   C18   A    
C34   F8    S    
C21   O4    S    
H12   O4    S    
C12   C34   A    
C3    C4    S    
C22   O13   A    
C6    C11   A    
C29   H7    S    
C1    C7    S    
C28   C31   A    
H9    O15   S    
C16   O11   A    
C3    C5    A    
C4    O9    A    
Cu2   O10   S    
C6    C7    A    
C12   C24   A    
H2    O5    S    
C2    C30   A    
C9    O2    S    
C32   C33   A    
C1    O1    A    
C2    C3    A    
C10   C16   S    
C13   H1    S    
C11   C13   S    
H11   O3    S    
C10   C11   A    
C21   F6    S    
C15   C21   S    
C20   C21   S    
Cu1   O11   S    
C27   C28   A    
Cu2   O14   S    
C17   N1    A    
