data_mof_unit_5904.cif
_audit_creation_date              2013-03-05T16:04:07-0500
_audit_creation_method            fapswitch 2.2
_symmetry_space_group_name_H-M    P1
_symmetry_Int_Tables_number       1
_space_group_crystal_system       triclinic
_cell_length_a                    10.898693
_cell_length_b                    9.608969
_cell_length_c                    10.812371
_cell_angle_alpha                 90.561093
_cell_angle_beta                  91.254257
_cell_angle_gamma                 91.151277
_cell_volume                      1131.76861271

loop_
_atom_site_label
_atom_site_type_symbol
_atom_site_description
_atom_site_fract_x
_atom_site_fract_y
_atom_site_fract_z
_atom_type_partial_charge
O1    O     O_R   0.319640 0.618740 0.499990 -0.604436
O2    O     O_R   0.680360 0.618740 0.500010 -0.605837
O3    O     O_R   0.319620 0.381170 0.499990 -0.584545
O4    O     O_R   0.680380 0.381170 0.500010 -0.583544
C1    C     C_R   0.262978 0.499239 0.506804 0.810838
C2    C     C_R   0.738117 0.501962 0.500030 0.824978
O5    O     O_R   0.500000 0.618810 0.319650 -0.581531
O6    O     O_R   0.500000 0.618810 0.680350 -0.593146
O7    O     O_R   0.499970 0.381240 0.319640 -0.564379
O8    O     O_R   0.500030 0.381240 0.680360 -0.576443
C3    C     C_R   0.487699 0.499051 0.262561 0.856248
C4    C     C_R   0.507931 0.500839 0.738112 0.835904
Cu1   Cu    Cu3+1 0.500000 0.640660 0.500000 0.979241
Cu2   Cu    Cu3+1 0.500000 0.359340 0.500000 1.021060
H1    H     H_    0.485592 0.275832 0.109741 0.262174
H2    H     H_    0.502519 0.278424 0.884247 0.248485
C5    C     C_R   0.399779 0.740027 0.101262 -0.156715
C6    C     C_R   0.574027 0.751668 0.912272 -0.179638
C7    C     C_R   0.434049 0.868495 0.048721 0.321408
C8    C     C_R   0.540615 0.873749 0.976259 0.309954
C9    C     C_R   0.514883 0.625535 0.944284 0.000900
C10   C     C_R   0.461245 0.620854 0.060569 0.008637
C11   C     C_R   0.471378 0.496985 0.127481 -0.073262
C12   C     C_R   0.514579 0.501254 0.873865 -0.071768
C13   C     C_R   0.486698 0.373035 0.062272 -0.072108
C14   C     C_R   0.500371 0.374883 0.935063 -0.084063
C15   C     C_R   0.061472 0.381166 0.481597 -0.110323
C16   C     C_R   0.934667 0.383720 0.477508 -0.144729
H3    H     H_    0.106253 0.286255 0.454602 0.170473
H4    H     H_    0.884676 0.289282 0.450441 0.171466
C17   C     C_R   0.873180 0.506974 0.503320 -0.119493
C18   C     C_R   0.129674 0.499975 0.517601 -0.119316
C19   C     C_R   0.941766 0.629523 0.537872 0.009704
C20   C     C_R   0.069772 0.622512 0.554364 -0.057786
C21   C     C_R   0.404018 0.071443 0.449288 0.084655
C22   C     C_R   0.594371 0.076809 0.553686 0.039036
H5    H     H_    0.326266 0.124199 0.409216 0.154633
H6    H     H_    0.670314 0.133613 0.597724 0.157039
C23   C     C_R   0.404017 0.923457 0.449612 0.034820
C24   C     C_R   0.593858 0.928952 0.553759 -0.031054
H7    H     H_    0.325703 0.866762 0.411545 0.132156
H8    H     H_    0.668004 0.876440 0.598176 0.129104
N1    N     N_R   0.500000 0.852070 0.500000 -0.189314
N2    N     N_R   0.500000 0.147940 0.500000 -0.186134
C25   C     C_2   0.290865 0.727336 0.181685 0.503842
H9    H     H_    0.251357 0.818941 0.222280 0.113851
O9    O     O_2   0.240917 0.614720 0.199923 -0.550468
C26   C     C_2   0.684350 0.752713 0.833994 0.547011
H10   H     H_    0.719487 0.850199 0.798864 0.139709
O10   O     O_2   0.740407 0.646582 0.812965 -0.533349
S1    S     S_3+6 0.330385 0.007898 0.045856 -0.011074
O11   O     O_2   0.340386 0.087739 0.165746 -0.351380
O12   O     O_2   0.357816 0.101698 0.939690 -0.289403
O13   O     O_3   0.185725 0.945783 0.026258 -0.528797
H11   H     H_    0.133321 0.028535 0.032168 0.387643
S2    S     S_3+6 0.651635 0.008806 0.002227 -0.004423
O14   O     O_2   0.656034 0.101522 0.891427 -0.337573
O15   O     O_2   0.622669 0.091020 0.116124 -0.286211
O16   O     O_3   0.790645 0.938903 0.024429 -0.521245
H12   H     H_    0.848948 0.019369 0.028559 0.386944
C27   C     C_2   0.883147 0.766137 0.552222 0.453336
H13   H     H_    0.830937 0.808669 0.475381 0.073011
O17   O     O_2   0.895309 0.833291 0.648269 -0.519013
C28   C     C_2   0.140935 0.740935 0.613075 0.507465
H14   H     H_    0.206771 0.720621 0.687217 0.078528
O18   O     O_2   0.131536 0.859623 0.575150 -0.531756

loop_
_geom_bond_atom_site_label_1
_geom_bond_atom_site_label_2
_geom_bond_distance
_ccdc_geom_bond_type
C25   H9    1.081109 S    
C21   C23   1.422032 A    
O7    Cu2   1.963482 S    
C17   C19   1.424356 A    
O6    Cu1   1.963325 S    
C6    C26   1.485397 S    
S2    O15   1.499438 D    
C15   H3    1.083532 S    
C6    C9    1.410978 A    
C4    C12   1.467979 S    
Cu2   N2    2.031336 S    
C24   H8    1.068833 S    
C5    C10   1.409799 A    
S2    O16   1.682928 S    
O6    C4    1.303060 A    
C8    S2    1.772555 S    
S1    O13   1.682835 S    
C28   H14   1.085863 S    
C1    C18   1.460220 S    
C26   O10   1.221288 D    
C19   C20   1.405614 A    
C13   C14   1.386963 A    
O3    C1    1.304667 A    
O16   H12   0.990917 S    
C23   H7    1.075281 S    
Cu1   Cu2   2.703195 S    
O5    C3    1.303644 A    
C21   N2    1.367965 A    
O7    C3    1.302478 A    
C12   C14   1.396062 A    
O13   H11   0.990665 S    
O2    C2    1.297596 A    
O3    Cu2   1.981250 S    
O8    C4    1.302946 A    
O1    C1    1.296335 A    
C22   H6    1.081300 S    
C26   H10   1.080428 S    
C5    C7    1.410885 A    
C5    C25   1.490463 S    
C20   C28   1.492715 S    
C2    C17   1.471478 S    
C6    C8    1.414085 A    
C11   C13   1.392928 A    
O4    Cu2   1.972867 S    
C27   H13   1.084622 S    
C22   N2    1.368157 A    
O4    C2    1.309122 A    
O1    Cu1   1.972726 S    
C16   C17   1.401155 A    
C9    C12   1.409891 A    
S1    O11   1.500613 D    
C7    S1    1.769695 S    
Cu1   N1    2.031432 S    
S2    O14   1.500979 D    
H1    C13   1.070124 S    
C19   C27   1.479696 S    
O8    Cu2   1.959382 S    
C25   O9    1.221235 D    
C3    C11   1.467357 S    
C15   C16   1.382461 A    
C27   O17   1.220585 D    
O2    Cu1   1.981142 S    
C10   C11   1.403914 A    
C22   C24   1.420656 A    
C23   N1    1.368528 A    
O5    Cu1   1.959237 S    
C21   H5    1.080870 S    
C15   C18   1.397103 A    
C9    C10   1.398866 A    
C24   N1    1.365725 A    
C7    C8    1.415480 A    
C28   O18   1.221198 D    
C16   H4    1.083475 S    
S1    O12   1.497959 D    
H2    C14   1.073771 S    
C18   C20   1.415526 A    
