data_mof_unit_5800.cif
_audit_creation_date              2013-03-05T16:06:49-0500
_audit_creation_method            fapswitch 2.2
_symmetry_space_group_name_H-M    P1
_symmetry_Int_Tables_number       1
_space_group_crystal_system       triclinic
_cell_length_a                    25.969294
_cell_length_b                    26.027536
_cell_length_c                    22.079835
_cell_angle_alpha                 89.968779
_cell_angle_beta                  54.570093
_cell_angle_gamma                 90.138767
_cell_volume                      12160.4884404

loop_
_atom_site_label
_atom_site_type_symbol
_atom_site_description
_atom_site_fract_x
_atom_site_fract_y
_atom_site_fract_z
_atom_type_partial_charge
Zn1   Zn    Zn3+2 0.675530 0.706240 0.561430 1.096302
Zn2   Zn    Zn3+2 0.675530 0.293760 0.561430 1.097397
Zn3   Zn    Zn3+2 0.175530 0.206240 0.561430 1.096280
Zn4   Zn    Zn3+2 0.175530 0.793760 0.561430 1.097341
Zn5   Zn    Zn3+2 0.824490 0.706250 0.438570 1.010323
Zn6   Zn    Zn3+2 0.824490 0.293750 0.438570 1.018350
Zn7   Zn    Zn3+2 0.324490 0.206250 0.438570 1.010279
Zn8   Zn    Zn3+2 0.324490 0.793750 0.438570 1.018304
Zn9   Zn    Zn3+2 0.763090 0.793770 0.561410 1.083696
Zn10  Zn    Zn3+2 0.763090 0.206230 0.561410 1.069384
Zn11  Zn    Zn3+2 0.263090 0.293770 0.561410 1.083698
Zn12  Zn    Zn3+2 0.263090 0.706230 0.561410 1.069446
Zn13  Zn    Zn3+2 0.736940 0.793790 0.438590 1.015102
Zn14  Zn    Zn3+2 0.736940 0.206210 0.438590 1.047051
Zn15  Zn    Zn3+2 0.236940 0.293790 0.438590 1.015148
Zn16  Zn    Zn3+2 0.236940 0.706210 0.438590 1.047066
O1    O     O_3   0.750010 0.750010 0.500000 -0.536120
O2    O     O_3   0.750010 0.249990 0.500000 -0.534857
O3    O     O_3   0.250010 0.250010 0.500000 -0.536118
O4    O     O_3   0.250010 0.749990 0.500000 -0.534852
O5    O     O_R   0.801340 0.780670 0.336040 -0.639127
O6    O     O_R   0.801340 0.219330 0.336040 -0.640314
O7    O     O_R   0.301340 0.280670 0.336040 -0.639110
O8    O     O_R   0.301340 0.719330 0.336040 -0.640319
O9    O     O_R   0.637410 0.719360 0.663970 -0.622592
O10   O     O_R   0.637410 0.280640 0.663970 -0.632467
O11   O     O_R   0.137410 0.219360 0.663970 -0.622619
O12   O     O_R   0.137410 0.780640 0.663970 -0.632534
O13   O     O_R   0.802130 0.633170 0.457010 -0.626581
O14   O     O_R   0.802130 0.366830 0.457010 -0.611412
O15   O     O_R   0.302130 0.133170 0.457010 -0.626597
O16   O     O_R   0.302130 0.866830 0.457010 -0.611424
O17   O     O_R   0.759170 0.866860 0.542980 -0.603536
O18   O     O_R   0.759170 0.133140 0.542980 -0.606605
O19   O     O_R   0.259170 0.366860 0.542980 -0.603539
O20   O     O_R   0.259170 0.633140 0.542980 -0.606564
O21   O     O_R   0.888360 0.719380 0.456990 -0.634384
O22   O     O_R   0.888360 0.280620 0.456990 -0.635937
O23   O     O_R   0.388360 0.219380 0.456990 -0.634431
O24   O     O_R   0.388360 0.780620 0.456990 -0.635946
O25   O     O_R   0.654640 0.780660 0.457030 -0.618745
O26   O     O_R   0.654640 0.219340 0.457030 -0.619639
O27   O     O_R   0.154640 0.280660 0.457030 -0.618731
O28   O     O_R   0.154640 0.719340 0.457030 -0.619670
O29   O     O_R   0.845390 0.780640 0.542970 -0.588952
O30   O     O_R   0.845390 0.219360 0.542970 -0.616000
O31   O     O_R   0.345390 0.280640 0.542970 -0.588937
O32   O     O_R   0.345390 0.719360 0.542970 -0.616038
O33   O     O_R   0.611660 0.719380 0.543010 -0.599921
O34   O     O_R   0.611660 0.280620 0.543010 -0.613568
O35   O     O_R   0.111660 0.219380 0.543010 -0.599938
O36   O     O_R   0.111660 0.780620 0.543010 -0.613565
O37   O     O_R   0.697880 0.633160 0.542990 -0.550591
O38   O     O_R   0.697880 0.366840 0.542990 -0.559567
O39   O     O_R   0.197880 0.133160 0.542990 -0.550590
O40   O     O_R   0.197880 0.866840 0.542990 -0.559530
O41   O     O_R   0.740870 0.866870 0.457020 -0.618902
O42   O     O_R   0.740870 0.133130 0.457020 -0.590205
O43   O     O_R   0.240870 0.366870 0.457020 -0.618908
O44   O     O_R   0.240870 0.633130 0.457020 -0.590222
O45   O     O_R   0.862620 0.719400 0.336030 -0.637125
O46   O     O_R   0.862620 0.280600 0.336030 -0.645316
O47   O     O_R   0.362620 0.219400 0.336030 -0.637120
O48   O     O_R   0.362620 0.780600 0.336030 -0.645320
O49   O     O_R   0.698690 0.780630 0.663960 -0.582320
O50   O     O_R   0.698690 0.219370 0.663960 -0.603629
O51   O     O_R   0.198690 0.280630 0.663960 -0.582304
O52   O     O_R   0.198690 0.719370 0.663960 -0.603546
C1    C     C_R   0.848928 0.750114 0.301549 0.795499
C2    C     C_R   0.849082 0.249868 0.301482 0.814688
C3    C     C_R   0.348930 0.250116 0.301549 0.795528
C4    C     C_R   0.349082 0.749868 0.301483 0.814708
C5    C     C_R   0.650645 0.750365 0.698745 0.805481
C6    C     C_R   0.650939 0.250084 0.698711 0.812239
C7    C     C_R   0.150646 0.250364 0.698745 0.805432
C8    C     C_R   0.150939 0.750080 0.698711 0.812108
C9    C     C_R   0.749669 0.608822 0.501133 0.982194
C10   C     C_R   0.750298 0.391119 0.502931 1.022199
C11   C     C_R   0.249668 0.108822 0.501131 0.982256
C12   C     C_R   0.250296 0.891119 0.502924 1.022323
C13   C     C_R   0.750910 0.891232 0.499550 0.812487
C14   C     C_R   0.749663 0.108641 0.500681 0.855731
C15   C     C_R   0.250914 0.391232 0.499547 0.812532
C16   C     C_R   0.249669 0.608641 0.500676 0.855707
C17   C     C_R   0.890564 0.749848 0.501289 0.784457
C18   C     C_R   0.890780 0.250125 0.501082 0.809915
C19   C     C_R   0.390566 0.249850 0.501286 0.784415
C20   C     C_R   0.390776 0.750130 0.501090 0.809832
C21   C     C_R   0.608866 0.750427 0.499784 0.778854
C22   C     C_R   0.608357 0.249411 0.500717 0.885817
C23   C     C_R   0.108868 0.250426 0.499780 0.778909
C24   C     C_R   0.108359 0.749414 0.500713 0.885956
C25   C     C_3   0.548593 0.800495 0.457576 0.100674
C26   C     C_3   0.540853 0.194792 0.475269 0.088491
C27   C     C_3   0.048580 0.300507 0.457604 0.100651
C28   C     C_3   0.040832 0.694782 0.475316 0.088460
H1    H     H_    0.584329 0.791962 0.397440 0.123719
H2    H     H_    0.577929 0.192941 0.414198 0.120089
H3    H     H_    0.084322 0.292000 0.397462 0.123852
H4    H     H_    0.077906 0.692902 0.414246 0.120149
C29   C     C_3   0.484579 0.801329 0.467563 -0.467211
C30   C     C_3   0.476297 0.194182 0.486350 -0.483822
C31   C     C_3   0.984568 0.301334 0.467586 -0.467222
C32   C     C_3   0.976275 0.694175 0.486400 -0.483798
H5    H     H_    0.455136 0.835108 0.497752 0.248994
H6    H     H_    0.444660 0.165225 0.528386 0.221381
H7    H     H_    0.955113 0.335104 0.497785 0.248955
H8    H     H_    0.944629 0.665236 0.528463 0.221355
H9    H     H_    0.495417 0.805571 0.411011 0.202975
H10   H     H_    0.484677 0.180708 0.433481 0.226727
H11   H     H_    0.995410 0.305590 0.411035 0.203020
H12   H     H_    0.984646 0.680676 0.433546 0.226798
H13   H     H_    0.592235 0.709150 0.400385 0.093245
H14   H     H_    0.595768 0.276310 0.390937 0.079976
H15   H     H_    0.092264 0.209190 0.400329 0.093193
H16   H     H_    0.095784 0.776260 0.390901 0.079972
H17   H     H_    0.509107 0.713701 0.396803 0.130131
H18   H     H_    0.509927 0.273388 0.391200 0.145287
H19   H     H_    0.009131 0.213734 0.396755 0.130180
H20   H     H_    0.009939 0.773334 0.391171 0.145317
C33   C     C_3   0.549711 0.705260 0.459016 0.084755
C34   C     C_3   0.555052 0.288492 0.447310 0.078186
C35   C     C_3   0.049743 0.205273 0.458958 0.084790
C36   C     C_3   0.055075 0.788468 0.447263 0.078193
C37   C     C_3   0.489017 0.752535 0.586619 -0.219705
C38   C     C_3   0.487834 0.259042 0.586238 -0.254134
C39   C     C_3   0.989024 0.252491 0.586604 -0.219738
C40   C     C_3   0.987845 0.759088 0.586220 -0.254119
C41   C     C_3   0.549875 0.753476 0.502817 -0.166262
C42   C     C_3   0.548751 0.247633 0.504396 -0.117331
C43   C     C_3   0.049882 0.253471 0.502805 -0.166294
C44   C     C_3   0.048755 0.747637 0.504390 -0.117376
H21   H     H_    0.494451 0.716146 0.608126 0.240720
H22   H     H_    0.496451 0.297399 0.600065 0.228586
H23   H     H_    0.994482 0.216097 0.608079 0.240770
H24   H     H_    0.996483 0.797452 0.600003 0.228613
C45   C     C_3   0.446556 0.750654 0.504947 -0.034249
C46   C     C_3   0.445044 0.248658 0.507298 -0.050850
C47   C     C_3   0.946565 0.250643 0.504932 -0.034242
C48   C     C_3   0.945046 0.748660 0.507295 -0.050870
C49   C     C_3   0.492049 0.706509 0.455465 -0.445110
C50   C     C_3   0.495507 0.286447 0.447060 -0.428210
C51   C     C_3   0.992078 0.206520 0.455409 -0.445222
C52   C     C_3   0.995527 0.786421 0.447017 -0.428233
C53   C     C_3   0.426291 0.746200 0.589178 0.234138
C54   C     C_3   0.425364 0.265482 0.588273 0.199307
C55   C     C_3   0.926306 0.246144 0.589156 0.234201
C56   C     C_3   0.925378 0.765527 0.588250 0.199304
H25   H     H_    0.469278 0.668361 0.467294 0.247996
H26   H     H_    0.475174 0.325268 0.453664 0.240171
H27   H     H_    0.969325 0.168366 0.467209 0.247955
H28   H     H_    0.975213 0.825244 0.453581 0.240141
C57   C     C_3   0.466705 0.733358 0.954878 -0.350724
C58   C     C_3   0.460919 0.255802 0.954391 -0.367345
C59   C     C_3   0.966722 0.233333 0.954876 -0.350745
C60   C     C_3   0.960998 0.755956 0.954383 -0.366999
C61   C     C_3   0.522161 0.814846 0.958552 0.458524
C62   C     C_3   0.535533 0.191927 0.957214 0.464249
C63   C     C_3   0.022156 0.314839 0.958547 0.458511
C64   C     C_3   0.035339 0.691768 0.957213 0.464534
C65   C     C_3   0.466682 0.811372 0.045513 -0.341167
C66   C     C_3   0.481233 0.191552 0.044859 -0.359275
C67   C     C_3   0.966676 0.311364 0.045508 -0.341168
C68   C     C_3   0.981064 0.691476 0.044880 -0.359296
H29   H     H_    0.444410 0.765941 0.948268 0.168109
H30   H     H_    0.449588 0.218414 0.942140 0.143349
H31   H     H_    0.944419 0.265907 0.948260 0.168118
H32   H     H_    0.949514 0.718629 0.942161 0.143190
H33   H     H_    0.423285 0.818603 0.048703 0.128291
H34   H     H_    0.440315 0.173400 0.050859 0.169622
H35   H     H_    0.923278 0.318582 0.048696 0.128294
H36   H     H_    0.940073 0.673441 0.050918 0.169477
C69   C     C_1   0.386593 0.750831 0.222647 -0.128861
C70   C     C_1   0.386203 0.249229 0.222740 -0.135799
C71   C     C_1   0.886596 0.250830 0.222647 -0.128845
C72   C     C_1   0.886196 0.749218 0.222741 -0.135683
C73   C     C_3   0.533907 0.757038 0.926725 -0.100945
C74   C     C_3   0.532271 0.247667 0.926866 -0.113151
C75   C     C_3   0.033917 0.257029 0.926724 -0.100928
C76   C     C_3   0.032317 0.747585 0.926865 -0.113203
C77   C     C_3   0.425105 0.720700 0.042011 0.238316
C78   C     C_3   0.415872 0.266140 0.042957 0.244361
C79   C     C_3   0.925127 0.220678 0.042010 0.238302
C80   C     C_3   0.915980 0.766308 0.042931 0.244448
C81   C     C_3   0.456521 0.753788 0.074657 0.026870
C82   C     C_3   0.455424 0.247440 0.074713 0.019271
C83   C     C_3   0.956530 0.253783 0.074656 0.026864
C84   C     C_3   0.955440 0.747410 0.074713 0.019363
C85   C     C_3   0.522807 0.731842 0.045248 -0.399389
C86   C     C_3   0.513795 0.282659 0.045708 -0.438780
C87   C     C_3   0.022823 0.231853 0.045249 -0.399355
C88   C     C_3   0.013919 0.782474 0.045737 -0.438688
C89   C     C_3   0.562026 0.723444 0.960803 0.113177
C90   C     C_3   0.546655 0.292957 0.962708 0.151290
C91   C     C_3   0.062042 0.223446 0.960806 0.113136
C92   C     C_3   0.046921 0.792723 0.962699 0.150529
C93   C     C_1   0.417682 0.751933 0.156144 -0.002288
C94   C     C_1   0.416929 0.248481 0.156273 0.015411
C95   C     C_1   0.917689 0.251931 0.156143 -0.002270
C96   C     C_1   0.916926 0.748460 0.156274 0.015341
C97   C     C_1   0.576302 0.755270 0.844672 0.144195
C98   C     C_1   0.575938 0.249448 0.844880 0.097190
C99   C     C_1   0.076312 0.255263 0.844671 0.144161
C100  C     C_1   0.075971 0.749394 0.844879 0.097136
C101  C     C_1   0.610196 0.752718 0.777955 -0.022633
C102  C     C_1   0.610913 0.249853 0.778070 -0.075705
C103  C     C_1   0.110202 0.252713 0.777954 -0.022653
C104  C     C_1   0.110924 0.749830 0.778069 -0.075911
H37   H     H_    0.556491 0.682400 0.953448 0.133396
H38   H     H_    0.523117 0.328132 0.961809 0.165329
H39   H     H_    0.056508 0.182400 0.953459 0.133426
H40   H     H_    0.023624 0.828017 0.961673 0.165293
H41   H     H_    0.520950 0.695802 0.073194 0.222477
H42   H     H_    0.502135 0.319627 0.075931 0.227729
H43   H     H_    0.020977 0.195818 0.073200 0.222497
H44   H     H_    0.002370 0.819461 0.075889 0.227674
H45   H     H_    0.548605 0.757906 0.058137 0.221035
H46   H     H_    0.546293 0.264641 0.055805 0.198877
H47   H     H_    0.048616 0.257928 0.058132 0.221044
H48   H     H_    0.046274 0.764370 0.055994 0.198737
C105  C     C_3   0.799596 0.969546 0.417271 -0.231810
C106  C     C_3   0.794492 0.029904 0.416995 -0.227240
C107  C     C_3   0.299562 0.469546 0.417255 -0.231811
C108  C     C_3   0.294460 0.529905 0.416983 -0.227214
H49   H     H_    0.781489 0.955846 0.385557 0.214702
H50   H     H_    0.765992 0.037511 0.395380 0.235642
H51   H     H_    0.281416 0.455848 0.385582 0.214716
H52   H     H_    0.265932 0.537514 0.395406 0.235647
C109  C     C_3   0.684450 0.969353 0.533793 0.026440
C110  C     C_3   0.683099 0.028617 0.541552 0.028810
C111  C     C_3   0.184447 0.469355 0.533838 0.026410
C112  C     C_3   0.183105 0.528619 0.541594 0.028801
C113  C     C_3   0.776194 0.969596 0.546675 0.023960
C114  C     C_3   0.781547 0.029323 0.541220 0.016292
C115  C     C_3   0.276252 0.469596 0.546614 0.023935
C116  C     C_3   0.281609 0.529322 0.541151 0.016229
C117  C     C_3   0.752808 0.948615 0.499096 -0.184628
C118  C     C_3   0.752329 0.051081 0.499887 -0.191227
C119  C     C_3   0.252814 0.448616 0.499089 -0.184626
C120  C     C_3   0.252340 0.551082 0.499876 -0.191230
H53   H     H_    0.824611 0.954495 0.520860 0.144613
H54   H     H_    0.832447 0.038161 0.505039 0.105882
H55   H     H_    0.324675 0.454492 0.520758 0.144541
H56   H     H_    0.332509 0.538154 0.504927 0.105871
H57   H     H_    0.653657 0.953298 0.590784 0.142734
H58   H     H_    0.659263 0.036023 0.601445 0.182288
H59   H     H_    0.153678 0.453300 0.590832 0.142842
H60   H     H_    0.159303 0.536026 0.601480 0.182335
C121  C     C_3   0.789655 0.528837 0.425720 -0.487629
C122  C     C_3   0.797840 0.470814 0.427397 -0.446304
C123  C     C_3   0.289697 0.028838 0.425710 -0.487574
C124  C     C_3   0.297876 0.970813 0.427395 -0.446399
H61   H     H_    0.836594 0.547820 0.391083 0.246346
H62   H     H_    0.847048 0.462506 0.406763 0.276447
H63   H     H_    0.336637 0.047820 0.391109 0.246402
H64   H     H_    0.347073 0.962504 0.406809 0.276474
H65   H     H_    0.770057 0.535508 0.393494 0.246204
H66   H     H_    0.795198 0.452624 0.383982 0.230227
H67   H     H_    0.270133 0.035510 0.393446 0.246209
H68   H     H_    0.295268 0.952624 0.383954 0.230243
C125  C     C_3   0.777469 0.532357 0.550011 0.332266
C126  C     C_3   0.771372 0.469547 0.558581 0.295082
C127  C     C_3   0.277411 0.032353 0.550057 0.332314
C128  C     C_3   0.271308 0.969544 0.558624 0.295289
C129  C     C_3   0.676259 0.530586 0.543372 0.269031
C130  C     C_3   0.678590 0.469174 0.532113 0.294567
C131  C     C_3   0.176266 0.030586 0.543291 0.269050
C132  C     C_3   0.178608 0.969173 0.532021 0.294683
C133  C     C_3   0.747357 0.551083 0.506772 -0.273597
C134  C     C_3   0.748648 0.448944 0.507581 -0.267091
C135  C     C_3   0.247353 0.051082 0.506761 -0.273662
C136  C     C_3   0.248643 0.948943 0.507568 -0.267142
N1    N     N_R   0.399721 0.694227 0.622558 0.227278
O53   O     O_R   0.383855 0.683615 0.688929 -0.390303
O54   O     O_R   0.389388 0.658537 0.589646 -0.294588
N2    N     N_R   0.405409 0.320721 0.601279 0.204094
O55   O     O_R   0.345848 0.333278 0.644328 -0.275663
O56   O     O_R   0.446151 0.358190 0.572689 -0.316347
N3    N     N_R   0.899776 0.194150 0.622473 0.227279
O57   O     O_R   0.883962 0.183490 0.688811 -0.390296
O58   O     O_R   0.889421 0.158490 0.589545 -0.294812
N4    N     N_R   0.905450 0.820772 0.601199 0.204074
O59   O     O_R   0.845896 0.833349 0.644238 -0.275698
O60   O     O_R   0.946210 0.858228 0.572569 -0.316400
N5    N     N_R   0.555866 0.654718 0.483679 0.252448
O61   O     O_R   0.594335 0.621942 0.432866 -0.302616
O62   O     O_R   0.513339 0.637380 0.549957 -0.259989
N6    N     N_R   0.569822 0.341971 0.454431 0.265219
O63   O     O_R   0.583544 0.374773 0.402514 -0.339808
O64   O     O_R   0.572059 0.357519 0.508785 -0.264588
N7    N     N_R   0.055927 0.154724 0.483573 0.252403
O65   O     O_R   0.094435 0.121978 0.432733 -0.302748
O66   O     O_R   0.013401 0.137350 0.549829 -0.259916
N8    N     N_R   0.069868 0.841950 0.454333 0.265203
O67   O     O_R   0.083591 0.874732 0.402394 -0.339946
O68   O     O_R   0.072139 0.857518 0.508656 -0.264636
C137  C     C_R   0.353073 0.734365 0.084549 0.081835
C138  C     C_R   0.308692 0.708513 0.152388 -0.033065
C139  C     C_R   0.244114 0.719167 0.193783 -0.143929
C140  C     C_R   0.221497 0.756064 0.169234 -0.104704
C141  C     C_R   0.263531 0.782740 0.103580 -0.077978
C142  C     C_R   0.328336 0.772553 0.061860 -0.221003
H69   H     H_    0.323672 0.680013 0.174699 0.189374
H70   H     H_    0.211554 0.698820 0.245337 0.149958
H71   H     H_    0.171434 0.764345 0.201467 0.128932
H72   H     H_    0.245906 0.811995 0.085147 0.147593
H73   H     H_    0.357051 0.796543 0.013667 0.133400
C143  C     C_R   0.350532 0.237471 0.084780 0.065552
C144  C     C_R   0.299273 0.257140 0.154051 -0.039149
C145  C     C_R   0.240111 0.233205 0.194707 -0.143080
C146  C     C_R   0.230104 0.188743 0.167936 -0.091632
C147  C     C_R   0.279443 0.167871 0.100785 -0.084389
C148  C     C_R   0.338922 0.191449 0.059776 -0.231994
H74   H     H_    0.304702 0.291197 0.177885 0.189553
H75   H     H_    0.201977 0.249161 0.247367 0.140563
H76   H     H_    0.184249 0.170182 0.199569 0.139799
H77   H     H_    0.271800 0.132836 0.080582 0.149578
H78   H     H_    0.374644 0.171591 0.010086 0.155886
C149  C     C_R   0.853091 0.234325 0.084545 0.081812
C150  C     C_R   0.808714 0.208463 0.152377 -0.033035
C151  C     C_R   0.744132 0.219099 0.193765 -0.143920
C152  C     C_R   0.721506 0.255989 0.169218 -0.104829
C153  C     C_R   0.763535 0.282676 0.103574 -0.078028
C154  C     C_R   0.828344 0.272506 0.061860 -0.221069
H79   H     H_    0.823701 0.179969 0.174688 0.189382
H80   H     H_    0.711576 0.198745 0.245313 0.149984
H81   H     H_    0.671440 0.264256 0.201445 0.128887
H82   H     H_    0.745902 0.311926 0.085142 0.147607
H83   H     H_    0.857054 0.296503 0.013673 0.133412
C155  C     C_R   0.850534 0.737805 0.084741 0.065488
C156  C     C_R   0.799324 0.757563 0.153974 -0.038953
C157  C     C_R   0.740073 0.733772 0.194614 -0.143103
C158  C     C_R   0.729927 0.689370 0.167868 -0.091813
C159  C     C_R   0.779213 0.668410 0.100760 -0.084156
C160  C     C_R   0.838780 0.691842 0.059767 -0.232059
H84   H     H_    0.804857 0.791574 0.177795 0.189617
H85   H     H_    0.701979 0.749794 0.247246 0.140717
H86   H     H_    0.684002 0.670922 0.199489 0.139600
H87   H     H_    0.771460 0.633417 0.080579 0.149579
H88   H     H_    0.874450 0.671916 0.010117 0.155758
N9    N     N_R   0.581617 0.836700 0.942281 0.258976
O69   O     O_R   0.622618 0.856614 0.877005 -0.225645
O70   O     O_R   0.594902 0.837117 0.990673 -0.372779
N10   N     N_R   0.598497 0.181063 0.940508 0.218557
O71   O     O_R   0.608348 0.135703 0.956776 -0.297735
O72   O     O_R   0.648147 0.206216 0.888409 -0.324534
N11   N     N_R   0.081606 0.336707 0.942276 0.258990
O73   O     O_R   0.122604 0.356619 0.876998 -0.225606
O74   O     O_R   0.094889 0.337137 0.990669 -0.372724
N12   N     N_R   0.098284 0.680644 0.940409 0.219037
O75   O     O_R   0.107859 0.635258 0.956901 -0.297735
O76   O     O_R   0.148072 0.705458 0.887916 -0.323151
N13   N     N_R   0.501283 0.849992 0.923757 0.182028
O77   O     O_R   0.499592 0.835886 0.868448 -0.458021
O78   O     O_R   0.493916 0.898556 0.940659 -0.337138
N14   N     N_R   0.523602 0.150436 0.920269 0.192858
O79   O     O_R   0.562400 0.144320 0.848669 -0.322464
O80   O     O_R   0.484373 0.112984 0.958405 -0.389560
N15   N     N_R   0.001271 0.349973 0.923748 0.182020
O81   O     O_R   0.999582 0.335857 0.868442 -0.458031
O82   O     O_R   0.993898 0.398538 0.940641 -0.337046
N16   N     N_R   0.023147 0.650401 0.920354 0.192637
O83   O     O_R   0.061725 0.644362 0.848717 -0.323383
O84   O     O_R   0.983996 0.612917 0.958539 -0.389134
C161  C     C_R   0.463069 0.855081 0.095471 0.188059
C162  C     C_R   0.488031 0.851084 0.137738 -0.039038
C163  C     C_R   0.480384 0.890726 0.185006 -0.099698
C164  C     C_R   0.447161 0.934907 0.192035 -0.109326
C165  C     C_R   0.421070 0.939436 0.152148 -0.110734
C166  C     C_R   0.428387 0.899873 0.104962 -0.078747
H89   H     H_    0.512536 0.817438 0.136349 0.136099
H90   H     H_    0.499811 0.886890 0.216887 0.159011
H91   H     H_    0.441024 0.965328 0.229078 0.137916
H92   H     H_    0.394462 0.973431 0.158396 0.146307
H93   H     H_    0.405646 0.904046 0.076861 0.164905
C167  C     C_R   0.490883 0.157616 0.095020 0.208883
C168  C     C_R   0.538495 0.166837 0.106165 -0.069935
C169  C     C_R   0.541903 0.137296 0.156667 -0.116844
C170  C     C_R   0.497923 0.098314 0.197331 -0.070148
C171  C     C_R   0.450675 0.088411 0.187139 -0.135620
C172  C     C_R   0.447182 0.117550 0.136485 -0.089735
H94   H     H_    0.574782 0.195309 0.074703 0.152502
H95   H     H_    0.578943 0.144629 0.164137 0.150127
H96   H     H_    0.500543 0.075694 0.236616 0.162143
H97   H     H_    0.416303 0.058353 0.218960 0.124609
H98   H     H_    0.409272 0.109194 0.130854 0.142583
C173  C     C_R   0.963052 0.355083 0.095460 0.187996
C174  C     C_R   0.988013 0.351103 0.137730 -0.039025
C175  C     C_R   0.980367 0.390758 0.184980 -0.099693
C176  C     C_R   0.947145 0.434935 0.191989 -0.109300
C177  C     C_R   0.921049 0.439445 0.152104 -0.110583
C178  C     C_R   0.928366 0.399869 0.104936 -0.078748
H99   H     H_    0.012519 0.317461 0.136352 0.136123
H100  H     H_    0.999796 0.386938 0.216860 0.159054
H101  H     H_    0.941011 0.465369 0.229015 0.137931
H102  H     H_    0.894441 0.473435 0.158338 0.146350
H103  H     H_    0.905623 0.404028 0.076835 0.164928
C179  C     C_R   0.990614 0.657464 0.095061 0.209030
C180  C     C_R   0.038303 0.666512 0.106127 -0.070016
C181  C     C_R   0.041629 0.636918 0.156648 -0.116534
C182  C     C_R   0.997489 0.598052 0.197410 -0.070303
C183  C     C_R   0.950162 0.588319 0.187298 -0.135994
C184  C     C_R   0.946750 0.617514 0.136626 -0.089657
H104  H     H_    0.074716 0.694879 0.074570 0.152778
H105  H     H_    0.078730 0.644115 0.164053 0.150279
H106  H     H_    0.000047 0.575389 0.236708 0.162115
H107  H     H_    0.915670 0.558351 0.219194 0.124618
H108  H     H_    0.908777 0.609293 0.131057 0.142536
N17   N     N_R   0.567458 0.851359 0.467674 0.231133
O85   O     O_R   0.525888 0.887490 0.503396 -0.314445
O86   O     O_R   0.625977 0.865641 0.420441 -0.281349
N18   N     N_R   0.549477 0.147570 0.505067 0.234175
O87   O     O_R   0.539807 0.103388 0.485601 -0.258671
O88   O     O_R   0.576300 0.148054 0.539734 -0.346396
N19   N     N_R   0.067425 0.351367 0.467744 0.231124
O89   O     O_R   0.025842 0.387487 0.503490 -0.314415
O90   O     O_R   0.125940 0.365664 0.420531 -0.281256
N20   N     N_R   0.049439 0.647574 0.505158 0.234156
O91   O     O_R   0.039741 0.603383 0.485743 -0.258599
O92   O     O_R   0.076272 0.648075 0.539813 -0.346399
N21   N     N_R   0.629637 0.730898 0.928548 0.223072
O93   O     O_R   0.654196 0.705898 0.957079 -0.427659
O94   O     O_R   0.666843 0.758548 0.869400 -0.341385
N22   N     N_R   0.613595 0.307123 0.923760 0.237375
O95   O     O_R   0.634869 0.344967 0.876541 -0.432612
O96   O     O_R   0.645461 0.294321 0.950176 -0.352957
N23   N     N_R   0.129653 0.230906 0.928546 0.223028
O97   O     O_R   0.154221 0.205901 0.957063 -0.427653
O98   O     O_R   0.166851 0.258567 0.869406 -0.341361
N24   N     N_R   0.113945 0.806575 0.923853 0.237113
O99   O     O_R   0.135384 0.844747 0.877152 -0.432545
O100  O     O_R   0.145790 0.793085 0.950034 -0.352691
C185  C     C_R   0.464486 0.693389 0.904785 0.208622
C186  C     C_R   0.506800 0.651640 0.871811 -0.087204
C187  C     C_R   0.503785 0.617421 0.825171 -0.056855
C188  C     C_R   0.458980 0.624166 0.810124 -0.022620
C189  C     C_R   0.416721 0.665037 0.842079 -0.118968
C190  C     C_R   0.419212 0.699220 0.889090 -0.127872
H109  H     H_    0.542826 0.644966 0.880493 0.129909
H110  H     H_    0.536550 0.585649 0.800406 0.213106
H111  H     H_    0.457026 0.597718 0.773683 0.205181
H112  H     H_    0.381957 0.670329 0.830380 0.189258
H113  H     H_    0.385773 0.730573 0.912863 0.132718
C191  C     C_R   0.448564 0.291610 0.908393 0.174767
C192  C     C_R   0.487914 0.333516 0.865458 -0.106313
C193  C     C_R   0.474339 0.363627 0.823918 -0.072192
C194  C     C_R   0.421237 0.353075 0.824836 -0.098086
C195  C     C_R   0.381446 0.312355 0.867381 -0.118527
C196  C     C_R   0.394979 0.281800 0.908516 -0.094648
H114  H     H_    0.529917 0.343188 0.861896 0.160714
H115  H     H_    0.505234 0.395238 0.790775 0.211103
H116  H     H_    0.410943 0.376443 0.792532 0.189548
H117  H     H_    0.340066 0.304353 0.868405 0.155777
H118  H     H_    0.363541 0.250172 0.940352 0.138454
C197  C     C_R   0.964513 0.193352 0.904789 0.208699
C198  C     C_R   0.006874 0.151635 0.871766 -0.087290
C199  C     C_R   0.003865 0.117405 0.825132 -0.056905
C200  C     C_R   0.959018 0.124107 0.810142 -0.022656
C201  C     C_R   0.916713 0.164944 0.842147 -0.118970
C202  C     C_R   0.919199 0.199138 0.889151 -0.127817
H119  H     H_    0.042938 0.145000 0.880396 0.129828
H120  H     H_    0.036669 0.085661 0.800324 0.213110
H121  H     H_    0.957069 0.097650 0.773706 0.205146
H122  H     H_    0.881918 0.170204 0.830490 0.189174
H123  H     H_    0.885724 0.230466 0.912962 0.132695
C203  C     C_R   0.948780 0.791856 0.908347 0.174975
C204  C     C_R   0.988236 0.833729 0.865462 -0.106061
C205  C     C_R   0.974789 0.863920 0.823870 -0.071920
C206  C     C_R   0.921722 0.853475 0.824669 -0.097910
C207  C     C_R   0.881828 0.812787 0.867162 -0.118781
C208  C     C_R   0.895218 0.782166 0.908375 -0.095071
H124  H     H_    0.030228 0.843307 0.861971 0.160083
H125  H     H_    0.005760 0.895507 0.790769 0.211208
H126  H     H_    0.911536 0.876899 0.792311 0.189614
H127  H     H_    0.840484 0.804855 0.868079 0.155864
H128  H     H_    0.863700 0.750568 0.940173 0.138455
N25   N     N_R   0.427947 0.664367 0.052126 0.201231
O101  O     O_R   0.436122 0.646679 0.101107 -0.449691
O102  O     O_R   0.403667 0.632707 0.029317 -0.359774
N26   N     N_R   0.401116 0.322166 0.056423 0.203871
O103  O     O_R   0.405912 0.347442 0.103783 -0.417411
O104  O     O_R   0.367294 0.343302 0.037019 -0.347198
N27   N     N_R   0.927989 0.164347 0.052127 0.201235
O105  O     O_R   0.936161 0.146674 0.101118 -0.449647
O106  O     O_R   0.903733 0.132672 0.029307 -0.359770
N28   N     N_R   0.901440 0.822368 0.056370 0.203892
O107  O     O_R   0.906249 0.847537 0.103794 -0.417554
O108  O     O_R   0.867744 0.843661 0.036897 -0.347205
C209  C     C_R   0.866262 0.945486 0.374283 0.085975
C210  C     C_R   0.879923 0.903533 0.326511 -0.142451
C211  C     C_R   0.938641 0.879189 0.288352 -0.140305
C212  C     C_R   0.985175 0.896373 0.296504 -0.125606
C213  C     C_R   0.973230 0.938231 0.342276 -0.079749
C214  C     C_R   0.914550 0.962722 0.380601 -0.111042
H129  H     H_    0.844815 0.889069 0.319071 0.173514
H130  H     H_    0.947973 0.846870 0.252502 0.140042
H131  H     H_    0.030598 0.877417 0.267085 0.146372
H132  H     H_    0.009582 0.951831 0.348086 0.184964
H133  H     H_    0.908030 0.995183 0.414309 0.138910
C215  C     C_R   0.856922 0.057225 0.358213 0.115988
C216  C     C_R   0.883400 0.046977 0.282780 -0.108923
C217  C     C_R   0.938987 0.071263 0.226001 -0.053273
C218  C     C_R   0.969072 0.106584 0.243270 -0.104452
C219  C     C_R   0.943820 0.117401 0.317384 -0.151860
C220  C     C_R   0.888362 0.093052 0.374503 -0.160234
H134  H     H_    0.860668 0.019977 0.267896 0.154122
H135  H     H_    0.958610 0.062777 0.168496 0.183735
H136  H     H_    0.011941 0.125594 0.199216 0.143448
H137  H     H_    0.967201 0.144870 0.330736 0.129775
H138  H     H_    0.871177 0.103153 0.430458 0.128902
C221  C     C_R   0.366230 0.445484 0.374209 0.085948
C222  C     C_R   0.379862 0.403543 0.326429 -0.142450
C223  C     C_R   0.438585 0.379203 0.288208 -0.140292
C224  C     C_R   0.485153 0.396380 0.296306 -0.125578
C225  C     C_R   0.473236 0.438226 0.342087 -0.079915
C226  C     C_R   0.414552 0.462712 0.380472 -0.111022
H139  H     H_    0.344729 0.389085 0.319027 0.173572
H140  H     H_    0.447897 0.346895 0.252351 0.140025
H141  H     H_    0.530580 0.377428 0.266838 0.146322
H142  H     H_    0.509614 0.451820 0.347854 0.184854
H143  H     H_    0.408055 0.495166 0.414180 0.138897
C227  C     C_R   0.356881 0.557223 0.358168 0.116047
C228  C     C_R   0.383324 0.546969 0.282746 -0.108993
C229  C     C_R   0.438901 0.571250 0.225941 -0.053201
C230  C     C_R   0.469010 0.606575 0.243172 -0.104364
C231  C     C_R   0.443791 0.617399 0.317275 -0.151937
C232  C     C_R   0.388345 0.593053 0.374420 -0.160179
H144  H     H_    0.360573 0.519967 0.267891 0.154110
H145  H     H_    0.458499 0.562759 0.168445 0.183767
H146  H     H_    0.511871 0.625583 0.199097 0.143446
H147  H     H_    0.467190 0.644871 0.330598 0.129771
H148  H     H_    0.371185 0.603161 0.430365 0.128810
N29   N     N_R   0.655553 0.951777 0.496469 0.271621
O109  O     O_R   0.678330 0.964407 0.428270 -0.288009
O110  O     O_R   0.598788 0.932815 0.537422 -0.314567
N30   N     N_R   0.641698 0.052843 0.524589 0.270401
O111  O     O_R   0.662348 0.066592 0.457413 -0.271188
O112  O     O_R   0.580896 0.049661 0.574336 -0.272446
N31   N     N_R   0.155509 0.451780 0.496559 0.271614
O113  O     O_R   0.178240 0.464422 0.428378 -0.287939
O114  O     O_R   0.098756 0.432797 0.537542 -0.314670
N32   N     N_R   0.141672 0.552849 0.524682 0.270380
O115  O     O_R   0.162282 0.566600 0.457520 -0.271175
O116  O     O_R   0.080876 0.549683 0.574473 -0.272409
N33   N     N_R   0.738843 0.950950 0.624401 0.259804
O117  O     O_R   0.680517 0.964709 0.672933 -0.326475
O118  O     O_R   0.766752 0.924188 0.647328 -0.225318
N34   N     N_R   0.759507 0.052969 0.613314 0.282405
O119  O     O_R   0.701812 0.068872 0.660241 -0.288181
O120  O     O_R   0.798896 0.057192 0.631462 -0.241085
N35   N     N_R   0.238947 0.450953 0.624340 0.259843
O121  O     O_R   0.180620 0.464693 0.672906 -0.326336
O122  O     O_R   0.266896 0.424202 0.647226 -0.225329
N36   N     N_R   0.259624 0.552975 0.613223 0.282371
O123  O     O_R   0.201915 0.568820 0.660233 -0.287973
O124  O     O_R   0.299087 0.557287 0.631250 -0.241107
N37   N     N_R   0.845266 0.549700 0.504191 0.247706
O125  O     O_R   0.890019 0.525611 0.445047 -0.355092
O126  O     O_R   0.860725 0.592622 0.520278 -0.353547
N38   N     N_R   0.833973 0.449893 0.536117 0.241084
O127  O     O_R   0.868691 0.418500 0.481269 -0.361038
O128  O     O_R   0.853925 0.462414 0.576322 -0.290193
N39   N     N_R   0.345208 0.049696 0.504288 0.247686
O129  O     O_R   0.389986 0.025604 0.445166 -0.355005
O130  O     O_R   0.360641 0.092624 0.520391 -0.353739
N40   N     N_R   0.333891 0.949888 0.536220 0.241044
O131  O     O_R   0.368623 0.918480 0.481398 -0.361096
O132  O     O_R   0.353813 0.962428 0.576450 -0.290403
N41   N     N_R   0.634452 0.545286 0.623746 0.235485
O133  O     O_R   0.630963 0.518574 0.675529 -0.309928
O134  O     O_R   0.596956 0.584784 0.645398 -0.300571
N42   N     N_R   0.622036 0.446317 0.601245 0.247717
O135  O     O_R   0.624198 0.421342 0.650646 -0.310927
O136  O     O_R   0.566123 0.455817 0.617507 -0.256443
N43   N     N_R   0.134409 0.045281 0.623664 0.235503
O137  O     O_R   0.130884 0.018571 0.675470 -0.310106
O138  O     O_R   0.096906 0.084772 0.645288 -0.300507
N44   N     N_R   0.122023 0.946314 0.601117 0.247744
O139  O     O_R   0.124129 0.921362 0.650575 -0.311316
O140  O     O_R   0.066135 0.955797 0.617294 -0.256403
N45   N     N_R   0.647847 0.555183 0.508057 0.255501
O141  O     O_R   0.586727 0.553965 0.542405 -0.167639
O142  O     O_R   0.680698 0.582033 0.447110 -0.397444
N46   N     N_R   0.671256 0.454730 0.471200 0.219240
O143  O     O_R   0.622303 0.469677 0.473703 -0.192891
O144  O     O_R   0.699458 0.414481 0.429970 -0.409746
N47   N     N_R   0.147906 0.055188 0.507920 0.255468
O145  O     O_R   0.086794 0.053957 0.542204 -0.167589
O146  O     O_R   0.180789 0.082056 0.446995 -0.397502
N48   N     N_R   0.171347 0.954729 0.471051 0.219170
O147  O     O_R   0.122445 0.969695 0.473459 -0.193021
O148  O     O_R   0.199541 0.914458 0.429871 -0.409774
N49   N     N_R   0.749333 0.557350 0.623322 0.233854
O149  O     O_R   0.777138 0.550309 0.656404 -0.309552
O150  O     O_R   0.711713 0.596583 0.644867 -0.403464
N50   N     N_R   0.727299 0.448036 0.634936 0.237896
O151  O     O_R   0.726357 0.398293 0.642213 -0.405263
O152  O     O_R   0.705933 0.474072 0.695217 -0.253835
N51   N     N_R   0.249235 0.057340 0.623379 0.233831
O153  O     O_R   0.277001 0.050293 0.656505 -0.309671
O154  O     O_R   0.211602 0.096562 0.644914 -0.403515
N52   N     N_R   0.227194 0.948034 0.634973 0.237843
O155  O     O_R   0.226237 0.898290 0.642255 -0.405658
O156  O     O_R   0.205789 0.974067 0.695265 -0.254183
C233  C     C_R   0.485766 0.789325 0.644332 0.043583
C234  C     C_R   0.436442 0.783077 0.720777 -0.124491
C235  C     C_R   0.429188 0.816777 0.774387 -0.141128
C236  C     C_R   0.472267 0.856527 0.753694 -0.026220
C237  C     C_R   0.524103 0.861154 0.680062 -0.094909
C238  C     C_R   0.531075 0.827965 0.625996 -0.092076
H149  H     H_    0.401545 0.753368 0.739855 0.198016
H150  H     H_    0.389758 0.812188 0.832064 0.152083
H151  H     H_    0.466028 0.883366 0.794828 0.202810
H152  H     H_    0.559021 0.890696 0.664870 0.175762
H153  H     H_    0.572540 0.833345 0.570846 0.178058
C239  C     C_R   0.482700 0.224106 0.646589 0.055662
C240  C     C_R   0.499159 0.244263 0.692618 -0.141801
C241  C     C_R   0.493434 0.214502 0.748898 -0.140356
C242  C     C_R   0.470419 0.164418 0.761529 -0.104357
C243  C     C_R   0.452804 0.143871 0.717841 -0.072693
C244  C     C_R   0.458567 0.173313 0.661280 -0.003154
H154  H     H_    0.516159 0.283344 0.685556 0.178455
H155  H     H_    0.506273 0.230495 0.783367 0.146913
H156  H     H_    0.465806 0.141714 0.805535 0.181516
H157  H     H_    0.434310 0.105107 0.727963 0.168171
H158  H     H_    0.443350 0.156076 0.629847 0.154077
C245  C     C_R   0.985744 0.289266 0.644350 0.043645
C246  C     C_R   0.936418 0.282984 0.720788 -0.124423
C247  C     C_R   0.929126 0.316676 0.774426 -0.141198
C248  C     C_R   0.972171 0.356450 0.753768 -0.026212
C249  C     C_R   0.024015 0.361104 0.680145 -0.094802
C250  C     C_R   0.031026 0.327922 0.626051 -0.092040
H159  H     H_    0.901547 0.253255 0.739837 0.197974
H160  H     H_    0.889692 0.312064 0.832096 0.152051
H161  H     H_    0.965899 0.383284 0.794923 0.202817
H162  H     H_    0.058911 0.390661 0.664983 0.175857
H163  H     H_    0.072498 0.333318 0.570911 0.178020
C251  C     C_R   0.982695 0.724184 0.646609 0.055672
C252  C     C_R   0.999141 0.744372 0.692634 -0.141793
C253  C     C_R   0.993392 0.714644 0.748953 -0.140363
C254  C     C_R   0.970365 0.664562 0.761627 -0.104117
C255  C     C_R   0.952764 0.643984 0.717942 -0.072842
C256  C     C_R   0.958551 0.673393 0.661342 -0.003201
H164  H     H_    0.016147 0.783455 0.685542 0.178497
H165  H     H_    0.006221 0.730662 0.783419 0.147062
H166  H     H_    0.965731 0.641884 0.805666 0.181872
H167  H     H_    0.934260 0.605223 0.728098 0.168220
H168  H     H_    0.943337 0.656135 0.629919 0.154095
C257  C     C_R   0.373605 0.786520 0.638861 -0.019040
C258  C     C_R   0.386742 0.839085 0.640192 -0.151613
C259  C     C_R   0.339012 0.874133 0.686009 -0.057688
C260  C     C_R   0.276410 0.858052 0.730473 0.012410
C261  C     C_R   0.261605 0.806798 0.729270 -0.086310
C262  C     C_R   0.309228 0.771472 0.684307 -0.091417
H169  H     H_    0.434083 0.853329 0.608255 0.214206
H170  H     H_    0.350759 0.913863 0.687226 0.200975
H171  H     H_    0.239519 0.885486 0.765355 0.219497
H172  H     H_    0.213145 0.794064 0.763246 0.192498
H173  H     H_    0.294790 0.732301 0.685457 0.224508
C263  C     C_R   0.368604 0.235417 0.655603 0.067392
C264  C     C_R   0.334637 0.195034 0.650420 -0.169095
C265  C     C_R   0.287006 0.168621 0.713856 -0.106144
C266  C     C_R   0.272466 0.180999 0.783354 -0.056989
C267  C     C_R   0.302669 0.222197 0.790693 -0.047392
C268  C     C_R   0.348691 0.250065 0.728047 -0.069549
H174  H     H_    0.343819 0.182452 0.598738 0.157305
H175  H     H_    0.261316 0.138157 0.709281 0.226909
H176  H     H_    0.236836 0.159169 0.831653 0.187241
H177  H     H_    0.290287 0.232643 0.845033 0.165956
H178  H     H_    0.371340 0.281964 0.735525 0.140979
C269  C     C_R   0.873596 0.286433 0.638891 -0.019010
C270  C     C_R   0.886701 0.339006 0.640223 -0.151638
C271  C     C_R   0.838957 0.374031 0.686084 -0.057831
C272  C     C_R   0.776374 0.357910 0.730630 0.012251
C273  C     C_R   0.761600 0.306641 0.729452 -0.086561
C274  C     C_R   0.809235 0.271346 0.684408 -0.091466
H179  H     H_    0.934032 0.353271 0.608264 0.214193
H180  H     H_    0.850680 0.413771 0.687285 0.201013
H181  H     H_    0.739479 0.385327 0.765562 0.219808
H182  H     H_    0.713160 0.293866 0.763506 0.193154
H183  H     H_    0.794818 0.232168 0.685562 0.224538
C275  C     C_R   0.868610 0.735493 0.655615 0.067473
C276  C     C_R   0.834645 0.695083 0.650480 -0.169125
C277  C     C_R   0.787056 0.668665 0.713941 -0.106194
C278  C     C_R   0.772542 0.681080 0.783417 -0.056954
C279  C     C_R   0.802722 0.722321 0.790712 -0.047406
C280  C     C_R   0.848710 0.750183 0.728039 -0.069474
H184  H     H_    0.843807 0.682479 0.598814 0.157257
H185  H     H_    0.761385 0.638164 0.709398 0.226868
H186  H     H_    0.736951 0.659243 0.831734 0.187318
H187  H     H_    0.790361 0.732801 0.845034 0.165974
H188  H     H_    0.871357 0.782103 0.735480 0.141029

loop_
_geom_bond_atom_site_label_1
_geom_bond_atom_site_label_2
_geom_bond_distance
_ccdc_geom_bond_type
Zn1   O9    1.904330 S    
N51   O153  1.304044 A    
N43   O138  1.303549 A    
C121  H61   1.109355 S    
C251  C252  1.412081 A    
Zn5   O21   1.952663 S    
H19   C51   1.114897 S    
C199  C200  1.394344 A    
C107  C108  1.577192 S    
H20   C52   1.114703 S    
O23   C19   1.286227 A    
N23   O97   1.301690 A    
C122  H66   1.106506 S    
N26   O103  1.301224 A    
C271  C272  1.388429 A    
C148  H78   1.074413 S    
C75   C91   1.582229 S    
C141  C142  1.398630 A    
C140  C141  1.391268 A    
N4    O59   1.304196 A    
C198  H119  1.072812 S    
C73   C89   1.582222 S    
C230  H146  1.082435 S    
Zn8   O4    1.955512 S    
N37   O125  1.301518 A    
C34   C42   1.582731 S    
C110  H58   1.104940 S    
C187  H110  1.082265 S    
C54   N2    1.499865 S    
O42   C14   1.281784 A    
N32   O115  1.300742 A    
C27   H3    1.116345 S    
C128  N52   1.491464 S    
C241  C242  1.391720 A    
C238  H153  1.068058 S    
C105  H49   1.104447 S    
C219  C220  1.398271 A    
C21   C41   1.496426 S    
C243  C244  1.396778 A    
O46   C2    1.286665 A    
N42   O136  1.302228 A    
C215  C216  1.411227 A    
C242  H156  1.082470 S    
C113  C117  1.584105 S    
C92   N24   1.470021 S    
C105  C209  1.546312 S    
C149  C154  1.423804 A    
C7    C103  1.426995 S    
C159  H87   1.082659 S    
O34   C22   1.277707 A    
C100  C104  1.203164 T    
C59   H31   1.084406 S    
C229  H145  1.082245 S    
C38   C239  1.553176 S    
C137  C142  1.423804 A    
Zn3   O3    1.955664 S    
C163  H90   1.082553 S    
Zn16  O28   1.960936 S    
N20   O92   1.299789 A    
O28   C24   1.284078 A    
Zn15  O7    1.911463 S    
C51   H27   1.105234 S    
C175  H100  1.082553 S    
C131  N47   1.493636 S    
C236  H151  1.081536 S    
Zn4   O40   1.959704 S    
N36   O124  1.301417 A    
O11   C7    1.290045 A    
C108  H52   1.106759 S    
C239  C240  1.412079 A    
N13   O78   1.300946 A    
C85   H45   1.099585 S    
C186  C187  1.397850 A    
C86   C90   1.530938 S    
C63   C75   1.614160 S    
C275  C280  1.419110 A    
C232  H148  1.075344 S    
H15   C35   1.116906 S    
C155  C156  1.420204 A    
N39   O129  1.301521 A    
C67   C173  1.549731 S    
C170  C171  1.393289 A    
N50   O151  1.302961 A    
C26   N18   1.471386 S    
C225  H142  1.082500 S    
C25   C29   1.545245 S    
C38   C42   1.595219 S    
C29   C45   1.563167 S    
C235  H150  1.082558 S    
C158  C159  1.391683 A    
C11   C135  1.506056 S    
C32   C48   1.566553 S    
C105  C117  1.577272 S    
C12   C136  1.507579 S    
C79   C149  1.573028 S    
C243  H157  1.082340 S    
C82   C86   1.554134 S    
C108  C227  1.540263 S    
C209  C214  1.411878 A    
C15   C119  1.494082 S    
C109  C110  1.550288 S    
O16   C12   1.289189 A    
C228  H144  1.083279 S    
N52   O156  1.298140 A    
C269  C270  1.413653 A    
Zn16  O4    1.945652 S    
C222  C223  1.397230 A    
Zn12  O4    1.945593 S    
Zn13  O5    1.911463 S    
Zn2   O10   1.903027 S    
C4    C69   1.418939 S    
C263  C264  1.417279 A    
C115  H55   1.109977 S    
C83   C87   1.555755 S    
N38   O127  1.298400 A    
Zn6   O14   1.962904 S    
O47   C3    1.288285 A    
C256  H168  1.075421 S    
Zn7   O3    1.961820 S    
N29   O110  1.298018 A    
C66   C167  1.546423 S    
C175  C176  1.393050 A    
C263  C268  1.419110 A    
C109  C117  1.567779 S    
C173  C174  1.415499 A    
C64   C68   1.603196 S    
C188  C189  1.393733 A    
C124  H68   1.106518 S    
N24   O100  1.302616 A    
C150  H79   1.080491 S    
C221  C226  1.411881 A    
O25   C21   1.271613 A    
C207  C208  1.396981 A    
Zn12  O52   1.911558 S    
C111  H59   1.108462 S    
O43   C15   1.278907 A    
N46   O143  1.300551 A    
C68   C84   1.579144 S    
C227  C228  1.411226 A    
C259  C260  1.388444 A    
C240  C241  1.396586 A    
C77   C137  1.573032 S    
C2    C71   1.418942 S    
O45   C1    1.288279 A    
C195  C196  1.396982 A    
O24   C20   1.285323 A    
Zn11  O19   1.960367 S    
C255  C256  1.396773 A    
C62   C74   1.620592 S    
C168  H94   1.075559 S    
N5    O62   1.299213 A    
C107  C119  1.577289 S    
C264  C265  1.396617 A    
C60   C76   1.595079 S    
C50   H26   1.111055 S    
C170  H96   1.082459 S    
N8    O67   1.301458 A    
Zn10  O2    1.945593 S    
N34   O120  1.301418 A    
C248  H161  1.081533 S    
N3    O58   1.299455 A    
N45   O141  1.303685 A    
C39   C43   1.590988 S    
C216  H134  1.083279 S    
C126  N50   1.491449 S    
C258  C259  1.394493 A    
C254  H166  1.082466 S    
C92   H40   1.108590 S    
C89   N21   1.475165 S    
C23   C43   1.496404 S    
C26   C30   1.547564 S    
N25   O102  1.302424 A    
C151  C152  1.390076 A    
N48   O148  1.301672 A    
N15   O81   1.300246 A    
Zn7   O23   1.952663 S    
C31   H7    1.102191 S    
Zn8   O24   1.953992 S    
C81   C93   1.467133 S    
N17   O85   1.300165 A    
C161  C162  1.415503 A    
C132  N44   1.495468 S    
C162  H89   1.073745 S    
C8    C104  1.427953 S    
O31   C19   1.272447 A    
C171  C172  1.396909 A    
C140  H71   1.082576 S    
C130  N42   1.495485 S    
C257  C262  1.416579 A    
C58   C74   1.595018 S    
C233  C234  1.417097 A    
C116  N36   1.478751 S    
C53   N1    1.501313 S    
C273  C274  1.394057 A    
C253  C254  1.391721 A    
C237  C238  1.398342 A    
C267  H177  1.081821 S    
N23   O98   1.299890 A    
C121  C122  1.529024 S    
C105  C106  1.577178 S    
C213  H132  1.082499 S    
O22   C18   1.285330 A    
C141  H72   1.082721 S    
N18   O87   1.301700 A    
C24   C44   1.502876 S    
O9    C5    1.290043 A    
N30   O112  1.301909 A    
C37   C233  1.557202 S    
C207  H127  1.081447 S    
C114  C118  1.591766 S    
C125  C126  1.642285 S    
C59   C79   1.601519 S    
Zn13  O41   1.960110 S    
N16   O83   1.301554 A    
C84   C96   1.468345 S    
C245  C246  1.417100 A    
O50   C6    1.291467 A    
C147  C148  1.398431 A    
C36   C44   1.582731 S    
Zn16  O44   1.960159 S    
C268  H178  1.083026 S    
C123  C135  1.571510 S    
Zn1   O37   1.962861 S    
C248  C249  1.389730 A    
C64   C76   1.620543 S    
Zn2   O34   1.952709 S    
C91   N23   1.475161 S    
N7    O66   1.299211 A    
C194  H116  1.082367 S    
Zn3   O39   1.962861 S    
C172  H98   1.083022 S    
C204  C205  1.398271 A    
C189  H112  1.082450 S    
C112  N32   1.470962 S    
C198  C199  1.397850 A    
C179  C180  1.413649 A    
C199  H120  1.082261 S    
N19   O90   1.301757 A    
C215  C220  1.415172 A    
C113  C114  1.558779 S    
C125  C133  1.620924 S    
C271  H180  1.082171 S    
C109  H57   1.108456 S    
C127  C135  1.620896 S    
C80   N28   1.494252 S    
C230  C231  1.394424 A    
C279  C280  1.394900 A    
C110  N30   1.470958 S    
N28   O107  1.301225 A    
C206  C207  1.393469 A    
C89   H37   1.102152 S    
C109  N29   1.472193 S    
N49   O150  1.299992 A    
C27   C31   1.545251 S    
N33   O117  1.300769 A    
Zn9   O49   1.909667 S    
C241  H155  1.075899 S    
Zn10  O50   1.911558 S    
C57   C73   1.596413 S    
C210  C211  1.397228 A    
C224  H141  1.082405 S    
C200  C201  1.393731 A    
C69   C93   1.197551 T    
C107  C221  1.546317 S    
C157  C158  1.390502 A    
N15   O82   1.300944 A    
C143  C148  1.422127 A    
C59   C197  1.543925 S    
C32   H12   1.113230 S    
C159  C160  1.398435 A    
C61   C73   1.614164 S    
C154  H83   1.074847 S    
C165  H92   1.082548 S    
O5    C1    1.286079 A    
C191  C192  1.415255 A    
C112  H60   1.104938 S    
N6    O64   1.299503 A    
C40   C251  1.553188 S    
C247  H160  1.082557 S    
C178  H103  1.081968 S    
C37   C41   1.591024 S    
C90   H38   1.108588 S    
C86   H42   1.109321 S    
C56   C275  1.564475 S    
N27   O105  1.301083 A    
C28   C44   1.581023 S    
C90   N22   1.469938 S    
C115  C116  1.558769 S    
C71   C95   1.197555 T    
C236  C237  1.389722 A    
N14   O80   1.302619 A    
Zn5   O45   1.903126 S    
C108  C120  1.591548 S    
C17   C48   1.496038 S    
Zn7   O47   1.903126 S    
C85   H41   1.107998 S    
C18   C47   1.499602 S    
Zn8   O48   1.904432 S    
C161  C166  1.414493 A    
N22   O95   1.300334 A    
C75   C99   1.477927 S    
C203  C204  1.415231 A    
C155  C160  1.422146 A    
C73   C97   1.477939 S    
C68   H36   1.097401 S    
O51   C7    1.284782 A    
C19   C46   1.496028 S    
C223  H140  1.082673 S    
C221  C222  1.414242 A    
C25   H1    1.116346 S    
C67   H35   1.104308 S    
C277  C278  1.389424 A    
O8    C4    1.284079 A    
C63   N15   1.485122 S    
C183  C184  1.396918 A    
Zn9   O1    1.945495 S    
C5    C101  1.427010 S    
N40   O131  1.298399 A    
C106  C215  1.540260 S    
C57   H29   1.084393 S    
C262  H173  1.080605 S    
C269  C274  1.416564 A    
C82   C94   1.468334 S    
C166  H93   1.081971 S    
C156  H84   1.080956 S    
N2    O56   1.299606 A    
C181  C182  1.394465 A    
N26   O104  1.302319 A    
C157  H85   1.082897 S    
C228  C229  1.396982 A    
C81   C85   1.555743 S    
C150  C151  1.396474 A    
C114  N34   1.478757 S    
O52   C8    1.291392 A    
C276  H184  1.073161 S    
Zn1   O1    1.955664 S    
O40   C12   1.278240 A    
C3    C70   1.418688 S    
Zn13  O1    1.945749 S    
C84   C88   1.553915 S    
Zn14  O6    1.909574 S    
Zn3   O11   1.904330 S    
C184  H108  1.083026 S    
C169  C170  1.394452 A    
Zn15  O27   1.959054 S    
C52   H28   1.111055 S    
C37   C53   1.604920 S    
C247  C248  1.389966 A    
N32   O116  1.301908 A    
C114  H54   1.101074 S    
C58   C191  1.543134 S    
C278  H186  1.081192 S    
C46   C54   1.610012 S    
N39   O130  1.303426 A    
C28   H4    1.114758 S    
C25   N17   1.471797 S    
N33   O118  1.301615 A    
C122  C134  1.569587 S    
C13   C117  1.494078 S    
C152  C153  1.391268 A    
C9    C133  1.506053 S    
C138  H69   1.080492 S    
C87   C91   1.536668 S    
C188  H111  1.082415 S    
C77   N25   1.491439 S    
N43   O137  1.295197 A    
C85   C89   1.536660 S    
C220  H138  1.075336 S    
H13   C33   1.116909 S    
N2    O55   1.304196 A    
C79   N27   1.491450 S    
N31   O113  1.300478 A    
C68   C179  1.546425 S    
O18   C14   1.267699 A    
C226  H143  1.073171 S    
N29   O109  1.300477 A    
C279  H187  1.081861 S    
O6    C2    1.284084 A    
C189  C190  1.397058 A    
C225  C226  1.398128 A    
C277  H185  1.076938 S    
C122  H62   1.101711 S    
C27   C43   1.591854 S    
C240  H154  1.082462 S    
Zn9   O29   1.960934 S    
C211  H130  1.082674 S    
Zn11  O31   1.960934 S    
C255  H167  1.082339 S    
C54   C263  1.564491 S    
Zn12  O32   1.959052 S    
C55   C269  1.563544 S    
C28   N20   1.471394 S    
Zn13  O25   1.959054 S    
N13   O77   1.300248 A    
C60   C80   1.616769 S    
C127  C128  1.642245 S    
N35   O122  1.301615 A    
C218  H136  1.082433 S    
C167  C168  1.413653 A    
Zn15  O3    1.945749 S    
C205  C206  1.394052 A    
C74   C90   1.580192 S    
Zn11  O3    1.945495 S    
N21   O93   1.301691 A    
C88   C92   1.530934 S    
C45   C53   1.616760 S    
N50   O152  1.298141 A    
C165  C166  1.398018 A    
C182  H106  1.082460 S    
C258  H169  1.067027 S    
C40   H24   1.103825 S    
C6    C102  1.427964 S    
C160  H88   1.074432 S    
N41   O134  1.303547 A    
Zn5   O1    1.961820 S    
C26   H2    1.114758 S    
C29   H9    1.114793 S    
C203  C208  1.412681 A    
C212  C213  1.394233 A    
C31   H11   1.114794 S    
C78   C82   1.618842 S    
C169  H95   1.082562 S    
C129  C133  1.616034 S    
C162  C163  1.398239 A    
C164  C165  1.393133 A    
C65   C81   1.590638 S    
C123  H67   1.102581 S    
C131  C135  1.616026 S    
C192  H114  1.076338 S    
C235  C236  1.389966 A    
C266  C267  1.390954 A    
O32   C20   1.271474 A    
C63   C67   1.600770 S    
C35   N7    1.467527 S    
C210  H129  1.082608 S    
C237  H152  1.081539 S    
C217  H135  1.082245 S    
C62   N10   1.480783 S    
N38   O128  1.302119 A    
C204  H124  1.076344 S    
C197  C198  1.413307 A    
C128  C136  1.635005 S    
C213  C214  1.398127 A    
Zn9   O17   1.960367 S    
N44   O140  1.302226 A    
C72   C96   1.197196 T    
C25   C41   1.591867 S    
C86   H46   1.096280 S    
C62   N14   1.489967 S    
C59   C75   1.596411 S    
C182  C183  1.393293 A    
C129  N41   1.497792 S    
C145  H75   1.082897 S    
N37   O126  1.303432 A    
C180  H104  1.075599 S    
Zn14  O42   1.960159 S    
C115  N35   1.479337 S    
C246  H159  1.072545 S    
C194  C195  1.393459 A    
C152  H81   1.082577 S    
O7    C3    1.286074 A    
C275  C276  1.417284 A    
C260  C261  1.391955 A    
C123  C124  1.529053 S    
C46   C50   1.557320 S    
O33   C21   1.284100 A    
N11   O73   1.302659 A    
O19   C15   1.267447 A    
C167  C172  1.414982 A    
C40   C56   1.605833 S    
C174  H99   1.073752 S    
C144  C145  1.396474 A    
C142  H73   1.074844 S    
C153  C154  1.398630 A    
C83   C95   1.467135 S    
N42   O135  1.298402 A    
C130  N46   1.511210 S    
C212  H131  1.082405 S    
O37   C9    1.275882 A    
N47   O145  1.303684 A    
N5    O61   1.300072 A    
C121  C133  1.571493 S    
C126  C134  1.635049 S    
O39   C11   1.275880 A    
C123  H63   1.109353 S    
C66   H34   1.097352 S    
C218  C219  1.394424 A    
N12   O75   1.302250 A    
C26   C42   1.581029 S    
C270  H179  1.067012 S    
N28   O108  1.302326 A    
C261  H172  1.076793 S    
C27   N19   1.471797 S    
C124  H64   1.101719 S    
N46   O144  1.301667 A    
N27   O106  1.302422 A    
C57   C77   1.601511 S    
C200  H121  1.082414 S    
N51   O154  1.299987 A    
Zn2   O38   1.959704 S    
C197  C202  1.413729 A    
C30   H10   1.113233 S    
C80   C155  1.570109 S    
N36   O123  1.301290 A    
C87   H43   1.107999 S    
O12   C8    1.287491 A    
C61   C65   1.600780 S    
C32   H8    1.102994 S    
C187  C188  1.394341 A    
C272  C273  1.391992 A    
C45   C49   1.555957 S    
C217  C218  1.393993 A    
Zn3   O35   1.954038 S    
H16   C36   1.115338 S    
C35   C43   1.586308 S    
C180  C181  1.398645 A    
C250  H163  1.068067 S    
Zn15  O43   1.960110 S    
C179  C184  1.414985 A    
C127  N51   1.486376 S    
C48   C52   1.557333 S    
C33   C41   1.586302 S    
C76   C100  1.478061 S    
C260  H171  1.081327 S    
C249  C250  1.398344 A    
C251  C256  1.416184 A    
C176  C177  1.393132 A    
C36   N8    1.475414 S    
C201  H122  1.082453 S    
C131  C132  1.613668 S    
C121  H65   1.102572 S    
Zn6   O46   1.904432 S    
C192  C193  1.398258 A    
N18   O88   1.299786 A    
N3    O57   1.301013 A    
C156  C157  1.396482 A    
C208  H128  1.081241 S    
N6    O63   1.301460 A    
N52   O155  1.302953 A    
C239  C244  1.416188 A    
N16   O84   1.302628 A    
C158  H86   1.082507 S    
C214  H133  1.073173 S    
C76   C92   1.580144 S    
C224  C225  1.394233 A    
C107  H51   1.104442 S    
C10   C134  1.507607 S    
C234  C235  1.396192 A    
C20   C45   1.499593 S    
C149  C150  1.420676 A    
C22   C42   1.502893 S    
C146  H76   1.082503 S    
C145  C146  1.390501 A    
C60   H32   1.094444 S    
C58   H30   1.094500 S    
C261  C262  1.394082 A    
C125  N37   1.502535 S    
C185  C190  1.413736 A    
O38   C10   1.278258 A    
C254  C255  1.391666 A    
C276  C277  1.396634 A    
C193  C194  1.394028 A    
N31   O114  1.298025 A    
C125  N49   1.486402 S    
C137  C138  1.420677 A    
Zn14  O2    1.945652 S    
H17   C49   1.114900 S    
C163  C164  1.393044 A    
C61   N13   1.485121 S    
C264  H174  1.073139 S    
C171  H97   1.082278 S    
C48   C56   1.609999 S    
N49   O149  1.304045 A    
C38   C54   1.605852 S    
C49   H25   1.105237 S    
C177  C178  1.398015 A    
N9    O69   1.302659 A    
C246  C247  1.396189 A    
C219  H137  1.082787 S    
C47   C55   1.616753 S    
N25   O101  1.301080 A    
C56   N4    1.499871 S    
Zn4   O36   1.952709 S    
N12   O76   1.299959 A    
O21   C17   1.286230 A    
N34   O119  1.301294 A    
C153  H82   1.082723 S    
C79   C83   1.614292 S    
C227  C232  1.415172 A    
C164  H91   1.082337 S    
C113  N33   1.479342 S    
C205  H125  1.082384 S    
C106  H50   1.106760 S    
C196  H118  1.081229 S    
C190  H113  1.082108 S    
C14   C118  1.499555 S    
C58   C78   1.617004 S    
C111  C119  1.567792 S    
O49   C5    1.284792 A    
C67   C83   1.590630 S    
C223  C224  1.393740 A    
C30   C46   1.566541 S    
N45   O142  1.300807 A    
C34   N6    1.475418 S    
N24   O99   1.300355 A    
C53   C257  1.563579 S    
N1    O54   1.299450 A    
C252  H164  1.082466 S    
N9    O70   1.299297 A    
C61   N9    1.479537 S    
C202  H123  1.082104 S    
Zn10  O30   1.959052 S    
O26   C22   1.284085 A    
C211  C212  1.393746 A    
C1    C72   1.418683 S    
C229  C230  1.393992 A    
Zn12  O20   1.960318 S    
C124  C136  1.569584 S    
C129  C130  1.613643 S    
C63   N11   1.479538 S    
C186  H109  1.072801 S    
Zn14  O26   1.960936 S    
N7    O65   1.300073 A    
C265  C266  1.389385 A    
N44   O139  1.298404 A    
C127  N39   1.502534 S    
Zn16  O8    1.909574 S    
C222  H139  1.082606 S    
O35   C23   1.284106 A    
C274  H183  1.080609 S    
C16   C120  1.499553 S    
C47   C51   1.555965 S    
C40   C44   1.595203 S    
C38   H22   1.103827 S    
Zn4   O12   1.903027 S    
C34   C50   1.550338 S    
Zn11  O51   1.909667 S    
Zn5   O13   1.959745 S    
C29   H5    1.102208 S    
C177  H102  1.082546 S    
Zn6   O2    1.955512 S    
N40   O132  1.302109 A    
C183  H107  1.082292 S    
C70   C94   1.197199 T    
Zn7   O15   1.959745 S    
Zn8   O16   1.962904 S    
C132  C136  1.656207 S    
N30   O111  1.300744 A    
C173  C178  1.414491 A    
C130  C134  1.656217 S    
C87   H47   1.099588 S    
N35   O121  1.300764 A    
C66   C82   1.578996 S    
C139  C140  1.390077 A    
C77   C81   1.614288 S    
N48   O147  1.300546 A    
C174  C175  1.398247 A    
C33   N5    1.467544 S    
C146  C147  1.391686 A    
C266  H176  1.081199 S    
C99   C103  1.202598 T    
C106  C118  1.591549 S    
O27   C23   1.271595 A    
C80   C84   1.618723 S    
C126  N38   1.489980 S    
O14   C10   1.289189 A    
O29   C17   1.272448 A    
C91   H39   1.102175 S    
C31   C47   1.563202 S    
N11   O74   1.299296 A    
C259  H170  1.082167 S    
C64   N12   1.480794 S    
N19   O89   1.300164 A    
C242  C243  1.391671 A    
C37   H21   1.104663 S    
C33   C49   1.544631 S    
Zn6   O22   1.953992 S    
N1    O53   1.301005 A    
O13   C9    1.289610 A    
Zn10  O18   1.960318 S    
C64   N16   1.489917 S    
C195  H117  1.081392 S    
N10   O71   1.302259 A    
N47   O146  1.300812 A    
C168  C169  1.398639 A    
C244  H158  1.075427 S    
N4    O60   1.299607 A    
C113  H53   1.109975 S    
C181  H105  1.082561 S    
N10   O72   1.299907 A    
C191  C196  1.412642 A    
C185  C186  1.413303 A    
C131  N43   1.497791 S    
C265  H175  1.076884 S    
C74   C98   1.478074 S    
C98   C102  1.203174 T    
C231  H147  1.082787 S    
O41   C13   1.278915 A    
C110  C118  1.580256 S    
N17   O86   1.301762 A    
C88   H48   1.096264 S    
C35   C51   1.544667 S    
C39   C245  1.557198 S    
C143  C144  1.420198 A    
C112  C120  1.580253 S    
N20   O91   1.301700 A    
C139  H70   1.082770 S    
C111  N31   1.472200 S    
C278  C279  1.390990 A    
C97   C101  1.202604 T    
C231  C232  1.398273 A    
C78   N26   1.494243 S    
C36   C52   1.550360 S    
C129  N45   1.493658 S    
Zn2   O2    1.961973 S    
H18   C50   1.114704 S    
C132  N48   1.511212 S    
C55   N3    1.501330 S    
C206  H126  1.082366 S    
O15   C11   1.289616 A    
C280  H188  1.083032 S    
Zn4   O4    1.961973 S    
C257  C258  1.413660 A    
C115  C119  1.584107 S    
C209  C210  1.414241 A    
C270  C271  1.394469 A    
C116  H56   1.101075 S    
C28   C32   1.547573 S    
C273  H182  1.076782 S    
C65   H33   1.104314 S    
C253  H165  1.075896 S    
C249  H162  1.081546 S    
C144  H74   1.080965 S    
N8    O68   1.299506 A    
O44   C16   1.281781 A    
N41   O133  1.295204 A    
O17   C13   1.267434 A    
C234  H149  1.072522 S    
O20   C16   1.267698 A    
C233  C238  1.414690 A    
N22   O96   1.302608 A    
N14   O79   1.301561 A    
O10   C6    1.287423 A    
C201  C202  1.397057 A    
C78   C143  1.570084 S    
C151  H80   1.082771 S    
C30   H6    1.103009 S    
O48   C4    1.286667 A    
C39   H23   1.104669 S    
C57   C185  1.543930 S    
C65   C161  1.549735 S    
C62   C66   1.602981 S    
C60   C203  1.543141 S    
C272  H181  1.081292 S    
H14   C34   1.115338 S    
C193  H115  1.082395 S    
C267  C268  1.394920 A    
N21   O94   1.299887 A    
C245  C250  1.414683 A    
C138  C139  1.396472 A    
C128  N40   1.489969 S    
C111  C112  1.550297 S    
C176  H101  1.082344 S    
C147  H77   1.082660 S    
C116  C120  1.591756 S    
C216  C217  1.396985 A    
Zn1   O33   1.954038 S    
C88   H44   1.109286 S    
O36   C24   1.277703 A    
C252  C253  1.396582 A    
C39   C55   1.604864 S    
O30   C18   1.271476 A    
