data_mof_unit_65491.cif
_audit_creation_date              2012-12-10T17:24:29-0500
_audit_creation_method            fapswitch 2.2
_symmetry_space_group_name_H-M    P1
_symmetry_Int_Tables_number       1
_space_group_crystal_system       triclinic
_cell_length_a                    21.789159
_cell_length_b                    21.784163
_cell_length_c                    32.201709
_cell_angle_alpha                 89.999949
_cell_angle_beta                  89.999929
_cell_angle_gamma                 90.004106
_cell_volume                      15284.8177918

loop_
_atom_site_label
_atom_site_type_symbol
_atom_type_description
_atom_site_fract_x
_atom_site_fract_y
_atom_site_fract_z
_atom_type_partial_charge
C1    C     C_R   0.313841 0.500011 0.999989 -0.147807
C2    C     C_R   0.500003 0.313741 0.000000 -0.149838
C3    C     C_R   0.686159 0.499989 0.999988 -0.147807
C4    C     C_R   0.499997 0.686259 0.000000 -0.149839
C5    C     C_R   0.813859 0.000004 0.499997 -0.147551
C6    C     C_R   0.000003 0.813739 0.500000 -0.149843
C7    C     C_R   0.186141 0.999996 0.499997 -0.147548
C8    C     C_R   0.999997 0.186260 0.500000 -0.149843
C9    C     C_R   0.217379 0.461048 0.972380 0.113997
C10   C     C_R   0.537827 0.217235 0.971695 0.106917
C11   C     C_R   0.782621 0.538953 0.972380 0.113998
C12   C     C_R   0.462173 0.782765 0.971695 0.106917
C13   C     C_R   0.217397 0.539064 0.027552 0.113873
C14   C     C_R   0.537813 0.782771 0.028309 0.106934
C15   C     C_R   0.782603 0.460935 0.027552 0.113874
C16   C     C_R   0.462187 0.217229 0.028309 0.106933
C17   C     C_R   0.717410 0.960819 0.472524 0.114080
C18   C     C_R   0.037812 0.717232 0.471686 0.106922
C19   C     C_R   0.282590 0.039181 0.472524 0.114073
C20   C     C_R   0.962187 0.282768 0.471686 0.106925
C21   C     C_R   0.717418 0.039213 0.527458 0.114025
C22   C     C_R   0.037802 0.282773 0.528315 0.106974
C23   C     C_R   0.282581 0.960787 0.527457 0.114027
C24   C     C_R   0.962199 0.717227 0.528316 0.106971
C25   C     C_R   0.281800 0.458927 0.973445 0.072551
C26   C     C_R   0.540196 0.281653 0.972835 0.072922
C27   C     C_R   0.718200 0.541074 0.973445 0.072550
C28   C     C_R   0.459804 0.718347 0.972835 0.072922
C29   C     C_R   0.281821 0.541145 0.026501 0.072380
C30   C     C_R   0.540185 0.718354 0.027167 0.073053
C31   C     C_R   0.718179 0.458854 0.026500 0.072381
C32   C     C_R   0.459814 0.281646 0.027167 0.073054
C33   C     C_R   0.781834 0.958740 0.473582 0.072244
C34   C     C_R   0.040179 0.781650 0.472823 0.073047
C35   C     C_R   0.218166 0.041260 0.473581 0.072249
C36   C     C_R   0.959820 0.218349 0.472824 0.073049
C37   C     C_R   0.781843 0.041280 0.526405 0.072147
C38   C     C_R   0.040171 0.218356 0.527177 0.073194
C39   C     C_R   0.218157 0.958720 0.526405 0.072144
C40   C     C_R   0.959830 0.781644 0.527178 0.073195
C41   C     C_R   0.118813 0.500006 0.999999 0.853845
C42   C     C_R   0.500002 0.118773 1.000000 0.850251
C43   C     C_R   0.881187 0.499993 0.999999 0.853845
C44   C     C_R   0.499998 0.881227 1.000000 0.850250
C45   C     C_R   0.618819 0.000003 0.499999 0.853494
C46   C     C_R   0.000002 0.618773 0.500000 0.850279
C47   C     C_R   0.381181 0.999997 0.499999 0.853494
C48   C     C_R   0.999998 0.381227 0.500000 0.850278
C49   C     C_R   1.000000 0.500000 0.079317 0.825676
C50   C     C_R   0.500000 1.000000 0.079301 0.822473
C51   C     C_R   1.000000 0.500000 0.920685 0.826116
C52   C     C_R   0.500000 0.000000 0.920699 0.822416
C53   C     C_R   0.500000 1.000000 0.579317 0.825474
C54   C     C_R   1.000000 0.500000 0.579303 0.822446
C55   C     C_R   0.500000 0.000000 0.420683 0.825599
C56   C     C_R   1.000000 0.500000 0.420699 0.822359
C57   C     C_R   0.055332 0.509166 0.271951 0.125886
C58   C     C_R   0.555345 0.990906 0.271851 0.126477
C59   C     C_R   0.944668 0.490834 0.271951 0.125886
C60   C     C_R   0.444655 0.009094 0.271851 0.126477
C61   C     C_R   0.055710 0.493617 0.728068 0.125985
C62   C     C_R   0.555246 0.009689 0.728154 0.126423
C63   C     C_R   0.944289 0.506384 0.728068 0.125986
C64   C     C_R   0.444754 0.990310 0.728154 0.126423
C65   C     C_R   0.555199 0.009906 0.771953 0.125854
C66   C     C_R   0.055739 0.493793 0.771869 0.126718
C67   C     C_R   0.444801 0.990093 0.771953 0.125854
C68   C     C_R   0.944260 0.506207 0.771869 0.126718
C69   C     C_R   0.555301 0.990697 0.228051 0.125886
C70   C     C_R   0.055375 0.508952 0.228151 0.126515
C71   C     C_R   0.444699 0.009303 0.228051 0.125887
C72   C     C_R   0.944625 0.491047 0.228151 0.126514
C73   C     C_R   0.000000 0.500000 0.293711 -0.060485
C74   C     C_R   0.500000 0.000000 0.293634 -0.055165
C75   C     C_R   1.000000 0.500000 0.706304 -0.060231
C76   C     C_R   0.500000 1.000000 0.706369 -0.055219
C77   C     C_R   0.500000 1.000000 0.793713 -0.060522
C78   C     C_R   1.000000 0.500000 0.793648 -0.054970
C79   C     C_R   0.500000 1.000000 0.206290 -0.060464
C80   C     C_R   1.000000 0.500000 0.206368 -0.055191
C81   C     C_R   0.185640 0.500031 0.999983 -0.176896
C82   C     C_R   0.500006 0.185539 0.000001 -0.172289
C83   C     C_R   0.814360 0.499968 0.999983 -0.176896
C84   C     C_R   0.499994 0.814461 0.000001 -0.172289
C85   C     C_R   0.685656 0.000011 0.499994 -0.177377
C86   C     C_R   0.000005 0.685538 0.500001 -0.172068
C87   C     C_R   0.314344 0.999989 0.499994 -0.177375
C88   C     C_R   0.999995 0.314462 0.500001 -0.172072
C89   C     C_R   0.499999 0.619127 0.000000 0.802267
C90   C     C_R   0.380909 0.499991 0.999998 0.803677
C91   C     C_R   0.500001 0.380873 0.000000 0.802267
C92   C     C_R   0.619091 0.500009 0.999998 0.803678
C93   C     C_R   0.999998 0.119128 0.500000 0.802180
C94   C     C_R   0.880915 0.999998 0.500000 0.803831
C95   C     C_R   0.000002 0.880872 0.500000 0.802179
C96   C     C_R   0.119085 0.000002 0.499999 0.803831
C97   C     C_1   0.000000 0.500000 0.338631 0.086506
C98   C     C_1   0.500000 0.000000 0.338575 0.090973
C99   C     C_1   1.000000 0.500000 0.661380 0.086822
C100  C     C_1   0.500000 1.000000 0.661427 0.090884
C101  C     C_1   0.500000 0.000000 0.838632 0.086422
C102  C     C_1   1.000000 0.500000 0.838584 0.091344
C103  C     C_1   0.500000 1.000000 0.161370 0.086516
C104  C     C_1   0.000000 0.500000 0.161426 0.091021
C105  C     C_1   0.000000 0.500000 0.123927 -0.078277
C106  C     C_1   0.500000 1.000000 0.123886 -0.077549
C107  C     C_1   1.000000 0.500000 0.876081 -0.077835
C108  C     C_1   0.500000 0.000000 0.876116 -0.077636
C109  C     C_1   0.500000 1.000000 0.623928 -0.078516
C110  C     C_1   1.000000 0.500000 0.623893 -0.077286
C111  C     C_1   0.500000 0.000000 0.376073 -0.078397
C112  C     C_1   0.000000 0.500000 0.376115 -0.077516
Cu1   Cu    Cu3+1 0.000000 0.561730 0.000000 1.069035
Cu2   Cu    Cu3+1 0.438270 0.000000 0.000000 1.075451
Cu3   Cu    Cu3+1 0.000000 0.438270 0.000000 1.069035
Cu4   Cu    Cu3+1 0.561730 0.000000 0.000000 1.075452
Cu5   Cu    Cu3+1 0.500000 0.061730 0.500000 1.069163
Cu6   Cu    Cu3+1 0.938270 0.500000 0.500000 1.075814
Cu7   Cu    Cu3+1 0.500000 0.938270 0.500000 1.069163
Cu8   Cu    Cu3+1 0.061730 0.500000 0.500000 1.075815
Cu9   Cu    Cu3+1 0.500000 0.500000 0.958920 0.925391
Cu10  Cu    Cu3+1 0.500000 0.500000 0.041080 0.925305
Cu11  Cu    Cu3+1 0.000000 0.000000 0.458920 0.925343
Cu12  Cu    Cu3+1 0.000000 0.000000 0.541080 0.925315
O1    O     O_R   0.090200 0.552120 0.999920 -0.561451
O2    O     O_R   0.447880 0.090200 0.999920 -0.561139
O3    O     O_R   0.909800 0.447880 0.999920 -0.561452
O4    O     O_R   0.552120 0.909800 0.999920 -0.561139
O5    O     O_R   0.090200 0.447880 0.000080 -0.561699
O6    O     O_R   0.447880 0.909800 0.000080 -0.561094
O7    O     O_R   0.909800 0.552120 0.000080 -0.561700
O8    O     O_R   0.552120 0.090200 0.000080 -0.561094
O9    O     O_R   0.590200 0.052120 0.499920 -0.561491
O10   O     O_R   0.947880 0.590200 0.499920 -0.561124
O11   O     O_R   0.409800 0.947880 0.499920 -0.561491
O12   O     O_R   0.052120 0.409800 0.499920 -0.561123
O13   O     O_R   0.590200 0.947880 0.500080 -0.561559
O14   O     O_R   0.947880 0.409800 0.500080 -0.560998
O15   O     O_R   0.409800 0.052120 0.500080 -0.561559
O16   O     O_R   0.052120 0.590200 0.500080 -0.560998
O17   O     O_R   1.000000 0.552120 0.059780 -0.563413
O18   O     O_R   0.447880 0.000000 0.059780 -0.559866
O19   O     O_R   1.000000 0.447880 0.059780 -0.563414
O20   O     O_R   0.552120 0.000000 0.059780 -0.559865
O21   O     O_R   1.000000 0.447880 0.940220 -0.563392
O22   O     O_R   0.447880 0.000000 0.940220 -0.559920
O23   O     O_R   0.000000 0.552120 0.940220 -0.563392
O24   O     O_R   0.552120 0.000000 0.940220 -0.559920
O25   O     O_R   0.500000 0.052120 0.559780 -0.563364
O26   O     O_R   0.947880 0.500000 0.559780 -0.559720
O27   O     O_R   0.500000 0.947880 0.559780 -0.563364
O28   O     O_R   0.052120 0.500000 0.559780 -0.559720
O29   O     O_R   0.500000 0.947880 0.440220 -0.563357
O30   O     O_R   0.947880 0.500000 0.440220 -0.559880
O31   O     O_R   0.500000 0.052120 0.440220 -0.563357
O32   O     O_R   0.052120 0.500000 0.440220 -0.559880
O33   O     O_R   0.500000 0.590200 0.965310 -0.584814
O34   O     O_R   0.409800 0.500000 0.965310 -0.585053
O35   O     O_R   0.500000 0.409800 0.965310 -0.584815
O36   O     O_R   0.590200 0.500000 0.965310 -0.585053
O37   O     O_R   0.500000 0.409800 0.034690 -0.584803
O38   O     O_R   0.409800 0.500000 0.034690 -0.585094
O39   O     O_R   0.500000 0.590200 0.034690 -0.584803
O40   O     O_R   0.590200 0.500000 0.034690 -0.585093
O41   O     O_R   0.000000 0.090200 0.465310 -0.584792
O42   O     O_R   0.909800 0.000000 0.465310 -0.585101
O43   O     O_R   0.000000 0.909800 0.465310 -0.584793
O44   O     O_R   0.090200 0.000000 0.465310 -0.585106
O45   O     O_R   1.000000 0.909800 0.534690 -0.584780
O46   O     O_R   0.909800 0.000000 0.534690 -0.585123
O47   O     O_R   0.000000 0.090200 0.534690 -0.584779
O48   O     O_R   0.090200 0.000000 0.534690 -0.585121
I1    I     I_    0.138859 0.521939 0.194229 -0.245869
I2    I     I_    0.638447 0.976246 0.194008 -0.212278
I3    I     I_    0.861141 0.478060 0.194229 -0.245868
I4    I     I_    0.361552 0.023754 0.194008 -0.212278
I5    I     I_    0.139728 0.484841 0.805817 -0.246597
I6    I     I_    0.638183 0.025279 0.805998 -0.212121
I7    I     I_    0.860272 0.515159 0.805817 -0.246599
I8    I     I_    0.361817 0.974721 0.805998 -0.212121
I9    I     I_    0.638543 0.023777 0.694234 -0.245560
I10   I     I_    0.139503 0.483621 0.694033 -0.212813
I11   I     I_    0.361457 0.976222 0.694234 -0.245558
I12   I     I_    0.860497 0.516379 0.694034 -0.212813
I13   I     I_    0.638780 0.977693 0.305776 -0.245796
I14   I     I_    0.138524 0.523418 0.305995 -0.212231
I15   I     I_    0.361220 0.022307 0.305776 -0.245799
I16   I     I_    0.861476 0.476582 0.305995 -0.212230
I17   I     I_    0.167723 0.407046 0.927267 -0.304429
I18   I     I_    0.589493 0.167351 0.925471 -0.315623
I19   I     I_    0.832277 0.592956 0.927267 -0.304429
I20   I     I_    0.410508 0.832649 0.925471 -0.315623
I21   I     I_    0.167773 0.593312 0.072540 -0.303197
I22   I     I_    0.589468 0.832664 0.074537 -0.316155
I23   I     I_    0.832226 0.406687 0.072540 -0.303195
I24   I     I_    0.410531 0.167336 0.074537 -0.316155
I25   I     I_    0.667808 0.906367 0.427631 -0.303035
I26   I     I_    0.089458 0.667342 0.425455 -0.316058
I27   I     I_    0.332193 0.093635 0.427632 -0.303033
I28   I     I_    0.910541 0.332657 0.425455 -0.316055
I29   I     I_    0.667829 0.093723 0.572321 -0.302540
I30   I     I_    0.089447 0.332669 0.574547 -0.317365
I31   I     I_    0.332170 0.906277 0.572321 -0.302541
I32   I     I_    0.910554 0.667330 0.574547 -0.317367
C113  C     C_3   0.315615 0.410256 0.948130 -0.361797
C114  C     C_3   0.327436 0.430876 0.903348 -0.684157
H1    H     H_    0.284006 0.434763 0.885682 0.271431
H2    H     H_    0.350710 0.476081 0.902297 0.257381
H3    H     H_    0.357011 0.396577 0.887537 0.230464
H4    H     H_    0.359833 0.397457 0.962860 0.184444
H5    H     H_    0.289478 0.366539 0.947993 0.222048
C115  C     C_3   0.588351 0.315332 0.947005 -0.354359
C116  C     C_3   0.566602 0.327655 0.902533 -0.695446
H6    H     H_    0.562829 0.284456 0.884595 0.263683
H7    H     H_    0.521125 0.350421 0.902086 0.257237
H8    H     H_    0.600223 0.357854 0.886592 0.233396
H9    H     H_    0.601873 0.359329 0.961761 0.184912
H10   H     H_    0.631846 0.288861 0.946201 0.222475
C117  C     C_3   0.684384 0.589745 0.948130 -0.361796
C118  C     C_3   0.672564 0.569126 0.903349 -0.684150
H11   H     H_    0.715994 0.565239 0.885682 0.271430
H12   H     H_    0.649289 0.523921 0.902296 0.257381
H13   H     H_    0.642989 0.603427 0.887538 0.230463
H14   H     H_    0.640167 0.602543 0.962861 0.184443
H15   H     H_    0.710522 0.633462 0.947994 0.222047
C119  C     C_3   0.411650 0.684668 0.947005 -0.354359
C120  C     C_3   0.433399 0.672345 0.902532 -0.695448
H16   H     H_    0.437172 0.715544 0.884595 0.263683
H17   H     H_    0.478876 0.649580 0.902086 0.257237
H18   H     H_    0.399777 0.642146 0.886592 0.233396
H19   H     H_    0.398128 0.640671 0.961761 0.184912
H20   H     H_    0.368154 0.711139 0.946201 0.222475
C121  C     C_3   0.315666 0.589825 0.051797 -0.361582
C122  C     C_3   0.327406 0.569265 0.096599 -0.684481
H21   H     H_    0.283942 0.565374 0.114228 0.271515
H22   H     H_    0.350698 0.524075 0.097692 0.257199
H23   H     H_    0.356938 0.603599 0.112418 0.230667
H24   H     H_    0.359917 0.602556 0.037085 0.184457
H25   H     H_    0.289588 0.633572 0.051883 0.222156
C123  C     C_3   0.588339 0.684685 0.052999 -0.354368
C124  C     C_3   0.566583 0.672354 0.097470 -0.695799
H26   H     H_    0.562816 0.715550 0.115411 0.263663
H27   H     H_    0.521103 0.649590 0.097914 0.257329
H28   H     H_    0.600197 0.642152 0.113410 0.233188
H29   H     H_    0.601866 0.640692 0.038243 0.184884
H30   H     H_    0.631832 0.711165 0.053808 0.222364
C125  C     C_3   0.684334 0.410174 0.051796 -0.361580
C126  C     C_3   0.672595 0.430733 0.096599 -0.684497
H31   H     H_    0.716058 0.434629 0.114227 0.271516
H32   H     H_    0.649298 0.475920 0.097693 0.257200
H33   H     H_    0.643068 0.396397 0.112418 0.230671
H34   H     H_    0.640082 0.397443 0.037084 0.184457
H35   H     H_    0.710412 0.366426 0.051882 0.222156
C127  C     C_3   0.411661 0.315315 0.053000 -0.354368
C128  C     C_3   0.433416 0.327646 0.097471 -0.695796
H36   H     H_    0.437185 0.284450 0.115411 0.263663
H37   H     H_    0.478896 0.350410 0.097914 0.257329
H38   H     H_    0.399801 0.357847 0.113410 0.233188
H39   H     H_    0.398133 0.359308 0.038243 0.184884
H40   H     H_    0.368168 0.288835 0.053808 0.222364
C129  C     C_3   0.815684 0.909943 0.448396 -0.361787
C130  C     C_3   0.827440 0.930290 0.403551 -0.684443
H41   H     H_    0.783984 0.934107 0.385908 0.271507
H42   H     H_    0.850749 0.975470 0.402363 0.257241
H43   H     H_    0.856966 0.895879 0.387809 0.230646
H44   H     H_    0.859937 0.897298 0.463136 0.184246
H45   H     H_    0.789608 0.866191 0.448404 0.222160
C131  C     C_3   0.088308 0.815326 0.446970 -0.354335
C132  C     C_3   0.066517 0.827636 0.402505 -0.695819
H46   H     H_    0.062718 0.784431 0.384578 0.263637
H47   H     H_    0.021043 0.850409 0.402076 0.257314
H48   H     H_    0.100127 0.857824 0.386544 0.233233
H49   H     H_    0.101841 0.859328 0.461715 0.184898
H50   H     H_    0.131805 0.788859 0.446151 0.222404
C133  C     C_3   0.184316 0.090057 0.448395 -0.361788
C134  C     C_3   0.172563 0.069712 0.403550 -0.684458
H51   H     H_    0.216022 0.065874 0.385911 0.271510
H52   H     H_    0.149234 0.024543 0.402361 0.257241
H53   H     H_    0.143057 0.104136 0.387804 0.230656
H54   H     H_    0.140062 0.102702 0.463135 0.184248
H55   H     H_    0.210393 0.133809 0.448404 0.222161
C135  C     C_3   0.911689 0.184673 0.446973 -0.354335
C136  C     C_3   0.933478 0.172362 0.402507 -0.695830
H56   H     H_    0.937273 0.215566 0.384578 0.263637
H57   H     H_    0.978952 0.149592 0.402077 0.257319
H58   H     H_    0.899869 0.142172 0.386548 0.233233
H59   H     H_    0.898156 0.140672 0.461718 0.184892
H60   H     H_    0.868193 0.211141 0.446154 0.222405
C137  C     C_3   0.815707 0.090075 0.551589 -0.361683
C138  C     C_3   0.827437 0.069738 0.596439 -0.684454
H61   H     H_    0.783969 0.065911 0.614070 0.271514
H62   H     H_    0.850751 0.024565 0.597634 0.257159
H63   H     H_    0.856949 0.104160 0.612186 0.230763
H64   H     H_    0.859970 0.102704 0.536855 0.184257
H65   H     H_    0.789650 0.133836 0.551570 0.222243
C139  C     C_3   0.088304 0.184688 0.553027 -0.354338
C140  C     C_3   0.066516 0.172369 0.597492 -0.696058
H66   H     H_    0.062723 0.215572 0.615424 0.263546
H67   H     H_    0.021040 0.149594 0.597922 0.257411
H68   H     H_    0.100125 0.142181 0.613450 0.233124
H69   H     H_    0.101839 0.140690 0.538280 0.184883
H70   H     H_    0.131800 0.211163 0.553846 0.222326
C141  C     C_3   0.184293 0.909925 0.551589 -0.361680
C142  C     C_3   0.172562 0.930262 0.596438 -0.684454
H71   H     H_    0.216029 0.934085 0.614070 0.271515
H72   H     H_    0.149252 0.975438 0.597634 0.257158
H73   H     H_    0.143047 0.895843 0.612185 0.230761
H74   H     H_    0.140029 0.897296 0.536854 0.184258
H75   H     H_    0.210349 0.866165 0.551570 0.222243
C143  C     C_3   0.911697 0.815312 0.553029 -0.354339
C144  C     C_3   0.933487 0.827630 0.597494 -0.696051
H76   H     H_    0.937285 0.784425 0.615424 0.263546
H77   H     H_    0.978961 0.850409 0.597923 0.257410
H78   H     H_    0.899875 0.857814 0.613453 0.233124
H79   H     H_    0.898162 0.859310 0.538283 0.184885
H80   H     H_    0.868202 0.788836 0.553848 0.222327

loop_
_geom_bond_atom_site_label_1
_geom_bond_atom_site_label_2
_ccdc_geom_bond_type
C53   O25   A    
C128  H37   S    
C5    C37   A    
C138  H63   S    
C77   C101  S    
Cu5   O9    S    
C143  H80   S    
C125  H34   S    
C135  C136  S    
Cu10  O37   S    
C17   C85   A    
C19   C87   A    
Cu5   Cu7   S    
C65   I6    S    
C51   O21   A    
C44   O6    A    
C22   C38   A    
C12   C84   A    
C64   I11   S    
C142  H73   S    
C96   O44   A    
C17   I25   S    
C59   C73   A    
C14   I22   S    
C100  C109  T    
Cu7   O29   S    
C35   C133  S    
Cu2   O6    S    
Cu5   O15   S    
C8    C38   A    
C9    I17   S    
C104  C105  T    
C126  H32   S    
C116  H7    S    
C12   I20   S    
C65   C77   A    
C41   O1    A    
C56   O30   A    
C43   O3    A    
C97   C112  T    
C114  H1    S    
C54   O28   A    
C99   C110  T    
C10   C82   A    
C3    C92   S    
C122  H23   S    
C46   O10   A    
C120  H16   S    
Cu12  O48   S    
C11   C27   A    
C1    C29   A    
C2    C26   A    
C3    C31   A    
C29   C121  S    
C139  C140  S    
C80   C104  S    
C132  H47   S    
C123  H29   S    
C6    C40   A    
C4    C89   S    
C53   C109  S    
C52   O22   A    
C55   C111  S    
C8    C93   S    
C30   C123  S    
C89   O33   A    
C76   C100  S    
C45   O9    A    
C48   O14   A    
C92   O36   A    
C43   O7    A    
C133  H54   S    
C121  H25   S    
C129  H44   S    
C19   C35   A    
C94   O46   A    
C62   I9    S    
C127  H39   S    
C119  H20   S    
Cu6   Cu8   S    
C42   O2    A    
C115  C116  S    
C51   C107  S    
C131  H50   S    
C113  H5    S    
C26   C115  S    
Cu6   O14   S    
Cu1   Cu3   S    
C33   C129  S    
C43   C83   S    
C67   C77   A    
Cu5   O25   S    
C56   O32   A    
C71   C79   A    
Cu11  Cu12  S    
C74   C98   S    
C55   O31   A    
C61   I10   S    
C137  H65   S    
C90   O38   A    
C67   I8    S    
C129  C130  S    
Cu2   O2    S    
C49   O19   A    
Cu10  O40   S    
C71   I4    S    
C54   C110  S    
C2    C32   A    
C124  H26   S    
C72   I3    S    
C57   C73   A    
C20   I28   S    
C117  H14   S    
Cu4   O20   S    
C5    C33   A    
Cu5   O31   S    
Cu8   O16   S    
C121  C122  S    
Cu6   O10   S    
C141  H75   S    
C142  H72   S    
C135  H59   S    
C52   O24   A    
C136  H58   S    
C38   C139  S    
C140  H67   S    
C79   C103  S    
C45   O13   A    
C118  H11   S    
C50   O20   A    
C64   C76   A    
C66   I5    S    
C47   C87   S    
C18   C34   A    
Cu4   O8    S    
C75   C99   S    
C137  C138  S    
C102  C107  T    
Cu11  O44   S    
C120  H17   S    
Cu9   O34   S    
C144  H77   S    
C69   C79   A    
C58   C74   A    
C55   O29   A    
C63   C68   A    
C7    C39   A    
C47   O11   A    
C48   O12   A    
C95   O43   A    
Cu2   Cu4   S    
C15   C31   A    
C130  H41   S    
C16   C32   A    
C68   I7    S    
C19   I27   S    
Cu10  O38   S    
C124  H28   S    
C3    C27   A    
C72   C80   A    
C63   C75   A    
C113  H4    S    
C123  C124  S    
Cu1   O17   S    
Cu6   O30   S    
C11   I19   S    
C2    C91   S    
C133  H55   S    
C134  H51   S    
C37   C137  S    
C6    C95   S    
C32   C127  S    
C136  H56   S    
C53   O27   A    
C24   C86   A    
C118  H13   S    
C50   O18   A    
C27   C117  S    
C1    C90   S    
C78   C102  S    
C133  C134  S    
C14   C84   A    
C94   O42   A    
C130  H43   S    
C5    C94   S    
C9    C25   A    
C116  H6    S    
C7    C96   S    
C18   C86   A    
C122  H22   S    
C12   C28   A    
C13   C29   A    
C114  H2    S    
C115  H9    S    
C13   C81   A    
Cu8   O32   S    
C138  H61   S    
C8    C36   A    
Cu6   O26   S    
Cu11  O42   S    
C24   I32   S    
Cu12  O45   S    
Cu9   O36   S    
C49   O17   A    
C18   I26   S    
C48   C88   S    
C22   C88   A    
C57   C70   A    
C91   O35   A    
C59   C72   A    
C15   I23   S    
C101  C108  T    
C128  H38   S    
C13   I21   S    
C132  H46   S    
C58   I13   S    
C123  H30   S    
C62   C76   A    
C17   C33   A    
C25   C113  S    
C143  H79   S    
C68   C78   A    
C66   C78   A    
C21   C85   A    
C22   I30   S    
C70   C80   A    
C54   O26   A    
Cu9   O35   S    
C117  C118  S    
Cu4   O24   S    
C15   C83   A    
C60   C71   A    
C11   C83   A    
Cu7   O11   S    
C6    C34   A    
Cu8   O12   S    
C139  H70   S    
C121  H24   S    
C127  C128  S    
C16   I24   S    
C21   I29   S    
C134  H53   S    
C127  H40   S    
C41   C81   S    
Cu9   Cu10  S    
C141  H74   S    
C60   I15   S    
C122  H21   S    
C126  H31   S    
C46   O16   A    
C116  H8    S    
C143  C144  S    
C93   O47   A    
C63   I12   S    
C44   C84   S    
C49   C105  S    
C58   C69   A    
Cu3   O21   S    
C137  H64   S    
Cu1   O23   S    
C36   C135  S    
Cu12  O47   S    
C20   C88   A    
C20   C36   A    
C21   C37   A    
C131  C132  S    
C132  H48   S    
C47   O15   A    
C50   C106  S    
C91   O37   A    
C42   O8    A    
C89   O39   A    
C144  H76   S    
C135  H60   S    
C136  H57   S    
C140  H66   S    
C42   C82   S    
C118  H12   S    
C113  C114  S    
C61   C75   A    
C73   C97   S    
C10   I18   S    
Cu2   O18   S    
C34   C131  S    
C129  H45   S    
Cu1   O1    S    
C119  H19   S    
Cu3   O3    S    
C39   C141  S    
C61   C66   A    
C141  C142  S    
C131  H49   S    
C126  H33   S    
Cu11  O43   S    
C92   O40   A    
C93   O41   A    
C23   C87   A    
C1    C25   A    
C31   C125  S    
C14   C30   A    
C4    C28   A    
Cu7   O27   S    
C139  H69   S    
Cu3   O19   S    
Cu8   O28   S    
Cu7   O13   S    
C64   C67   A    
Cu2   O22   S    
C28   C119  S    
C130  H42   S    
Cu10  O39   S    
C23   I31   S    
C124  H27   S    
C90   O34   A    
C45   C85   S    
C69   I2    S    
C51   O23   A    
C16   C82   A    
C57   I14   S    
C59   I16   S    
C117  H15   S    
C95   O45   A    
C125  H35   S    
C142  H71   S    
C134  H52   S    
C119  C120  S    
C96   O48   A    
C140  H68   S    
C144  H78   S    
C128  H36   S    
Cu3   O5    S    
C44   O4    A    
C98   C111  T    
Cu1   O7    S    
C62   C65   A    
C7    C35   A    
C125  C126  S    
C41   O5    A    
C114  H3    S    
C10   C26   A    
C115  H10   S    
C23   C39   A    
C60   C74   A    
C24   C40   A    
C103  C106  T    
C138  H62   S    
C70   I1    S    
Cu11  O41   S    
C120  H18   S    
Cu12  O46   S    
C52   C108  S    
Cu4   O4    S    
C40   C143  S    
Cu9   O33   S    
C56   C112  S    
C4    C30   A    
C9    C81   A    
C46   C86   S    
