data_mof_unit_23920.cif
_audit_creation_date              2012-12-10T18:49:25-0500
_audit_creation_method            fapswitch 2.2
_symmetry_space_group_name_H-M    P1
_symmetry_Int_Tables_number       1
_space_group_crystal_system       triclinic
_cell_length_a                    9.949566
_cell_length_b                    10.617209
_cell_length_c                    13.576979
_cell_angle_alpha                 90.706104
_cell_angle_beta                  82.797914
_cell_angle_gamma                 90.996082
_cell_volume                      1422.62093254

loop_
_atom_site_label
_atom_site_type_symbol
_atom_type_description
_atom_site_fract_x
_atom_site_fract_y
_atom_site_fract_z
_atom_type_partial_charge
C1    C     C_R   0.501637 0.739336 0.496614 0.909446
C2    C     C_R   0.920488 0.583475 0.557921 -0.188801
C3    C     C_1   0.543646 0.489474 0.210513 -0.107095
C4    C     C_1   0.456195 0.508264 0.789640 -0.093366
C5    C     C_2   0.554121 0.476683 0.017915 0.394145
C6    C     C_2   0.443106 0.517861 0.982854 0.398163
C7    C     C_1   0.444379 0.513438 0.877672 -0.091920
C8    C     C_1   0.554636 0.482309 0.122605 -0.051566
C9    C     C_R   0.549292 0.933818 0.574891 -0.203137
C10   C     C_R   0.450329 0.066607 0.423809 -0.252363
C11   C     C_R   0.545897 0.063240 0.581873 -0.036916
C12   C     C_R   0.498528 0.260702 0.502520 0.914233
C13   C     C_R   0.454643 0.937045 0.416471 -0.049539
C14   C     C_3   0.891372 0.344449 0.291348 0.084232
C15   C     C_3   0.806700 0.250277 0.239106 -0.746452
C16   C     C_3   0.122302 0.798897 0.562935 0.111466
C17   C     C_3   0.176334 0.898322 0.630088 -0.741923
C18   C     C_2   0.150642 0.299079 0.404271 1.008238
C19   C     C_2   0.839709 0.656541 0.636167 1.034275
C20   C     C_3   0.214070 0.566577 0.010961 0.124488
C21   C     C_3   0.104162 0.606965 0.092828 -0.803919
C22   C     C_3   0.783235 0.455971 0.970721 0.087736
C23   C     C_R   0.495868 0.128183 0.504807 -0.091639
C24   C     C_3   0.887511 0.385566 0.900093 -0.709550
C25   C     C_2   0.590541 0.125498 0.671326 0.929439
C26   C     C_2   0.410173 0.874622 0.327014 0.888581
C27   C     C_R   0.504650 0.872042 0.493648 -0.104191
C28   C     C_R   0.475421 0.502393 0.685601 0.950718
C29   C     C_R   0.524584 0.497473 0.314434 0.963499
C30   C     C_R   0.934736 0.413822 0.444375 0.458061
C31   C     C_R   0.065096 0.590054 0.551869 0.440158
C32   C     C_R   0.077561 0.409341 0.448802 -0.184579
H1    H     H_    0.579826 0.880121 0.635448 0.206980
H2    H     H_    0.276728 0.870775 0.649391 0.244189
H3    H     H_    0.186562 0.990530 0.591883 0.237027
H4    H     H_    0.105454 0.907999 0.699665 0.257205
H5    H     H_    0.163958 0.109554 0.400828 0.352581
H6    H     H_    0.766361 0.670502 0.781088 0.331765
H7    H     H_    0.191490 0.467587 0.989345 0.137845
H8    H     H_    0.211639 0.629706 0.946393 0.158250
H9    H     H_    0.123735 0.705358 0.116593 0.264307
H10   H     H_    0.003806 0.601793 0.065235 0.188159
H11   H     H_    0.102496 0.543889 0.157669 0.250269
H12   H     H_    0.416638 0.120731 0.364496 0.199339
H13   H     H_    0.805229 0.439280 0.047760 0.125223
H14   H     H_    0.793961 0.558471 0.954347 0.152095
H15   H     H_    0.885387 0.284178 0.919524 0.237563
H16   H     H_    0.865099 0.394563 0.822442 0.298955
H17   H     H_    0.990271 0.425099 0.905560 0.188629
H18   H     H_    0.707320 0.117773 0.782378 0.356046
H19   H     H_    0.295423 0.882963 0.214800 0.357500
H20   H     H_    0.999125 0.331989 0.260572 0.142912
H21   H     H_    0.861303 0.441502 0.274206 0.139790
H22   H     H_    0.697534 0.260971 0.266499 0.244642
H23   H     H_    0.822716 0.265934 0.157820 0.197963
H24   H     H_    0.836953 0.152767 0.253873 0.265711
H25   H     H_    0.018580 0.826191 0.551420 0.169742
H26   H     H_    0.183991 0.801098 0.488914 0.160065
N1    N     N_R   0.142790 0.500030 0.500020 -0.166872
N2    N     N_R   0.857210 0.499970 0.499980 -0.174322
O1    O     O_R   0.385380 0.683250 0.500010 -0.603230
O2    O     O_3   0.126967 0.679028 0.607220 -0.583538
O3    O     O_2   0.237794 0.311298 0.333174 -0.637738
O4    O     O_R   0.112158 0.179098 0.439810 -0.779026
O5    O     O_2   0.792709 0.757397 0.617174 -0.644878
O6    O     O_R   0.822827 0.612258 0.733417 -0.800382
O7    O     O_3   0.341122 0.576222 0.046803 -0.613725
O8    O     O_3   0.652527 0.411432 0.956469 -0.607633
O9    O     O_2   0.542512 0.225772 0.701969 -0.644669
O10   O     O_R   0.685421 0.066920 0.722544 -0.776000
O11   O     O_2   0.456516 0.773248 0.297540 -0.640516
O12   O     O_R   0.614620 0.316750 0.499990 -0.551872
O13   O     O_R   0.317402 0.934118 0.274456 -0.816728
O14   O     O_R   0.614710 0.683220 0.500000 -0.589730
O15   O     O_R   0.385290 0.316780 0.500000 -0.618237
O16   O     O_R   0.368830 0.499990 0.640350 -0.593737
O17   O     O_R   0.631170 0.500010 0.359650 -0.638535
O18   O     O_R   0.598160 0.499960 0.640350 -0.584598
O19   O     O_R   0.401840 0.500040 0.359650 -0.549999
O20   O     O_3   0.870334 0.321055 0.394386 -0.550354
Zn1   Zn    Zn3+2 0.346870 0.500020 0.500000 1.031686
Zn2   Zn    Zn3+2 0.653130 0.499980 0.500000 1.029959

loop_
_geom_bond_atom_site_label_1
_geom_bond_atom_site_label_2
_ccdc_geom_bond_type
C20   O7    S    
C12   C23   S    
C1    O14   A    
C5    O8    S    
C5    C6    D    
C20   H8    S    
C2    N2    A    
C18   O3    D    
C11   C25   S    
C26   O13   S    
C19   O6    S    
C31   N1    A    
C3    C29   S    
C21   H11   S    
N2    Zn2   S    
C14   H20   S    
H6    O6    S    
C16   C17   S    
C30   N2    A    
C17   H4    S    
C14   O20   S    
C28   O18   A    
C30   O20   S    
C12   O12   A    
C9    H1    S    
C26   O11   D    
C31   O2    S    
C16   O2    S    
O14   Zn2   S    
C4    C7    T    
C4    C28   S    
C10   H12   S    
C24   H16   S    
C15   H22   S    
N1    Zn1   S    
C3    C8    T    
O19   Zn1   S    
C20   H7    S    
O15   Zn1   S    
C2    C31   A    
C15   H23   S    
O18   Zn2   S    
C29   O19   A    
C14   H21   S    
C16   H26   S    
C9    C11   A    
C22   O8    S    
C21   H9    S    
C6    O7    S    
C22   H14   S    
C22   C24   S    
C13   C26   S    
C18   C32   S    
C17   H2    S    
C28   O16   A    
H5    O4    S    
C9    C27   A    
C25   O9    D    
C24   H17   S    
C2    C19   S    
C24   H15   S    
H19   O13   S    
C10   C13   A    
C1    O1    A    
O16   Zn1   S    
C5    C8    S    
C6    C7    S    
C10   C23   A    
C15   H24   S    
H18   O10   S    
O1    Zn1   S    
C30   C32   A    
C18   O4    S    
O17   Zn2   S    
C11   C23   A    
C19   O5    D    
C16   H25   S    
C21   H10   S    
C22   H13   S    
C29   O17   A    
C20   C21   S    
C12   O15   A    
C1    C27   S    
C14   C15   S    
C13   C27   A    
C25   O10   S    
C17   H3    S    
C32   N1    A    
O12   Zn2   S    
