data_mof_unit_52374.cif
_audit_creation_date              2012-10-26T20:44:03-0400
_audit_creation_method            fapswitch 2.2
_symmetry_space_group_name_H-M    P1
_symmetry_Int_Tables_number       1
_space_group_crystal_system       triclinic
_cell_length_a                    10.961188
_cell_length_b                    9.514665
_cell_length_c                    19.41778
_cell_angle_alpha                 89.965909
_cell_angle_beta                  90.237274
_cell_angle_gamma                 89.845888
_cell_volume                      2025.09466702

loop_
_atom_site_label
_atom_site_type_symbol
_atom_type_description
_atom_site_fract_x
_atom_site_fract_y
_atom_site_fract_z
_atom_type_partial_charge
C1    C     C_R   0.870860 0.498878 0.500212 -0.059806
C2    C     C_R   0.737471 0.499717 0.500151 0.586990
C3    C     C_R   0.500103 0.500015 0.367583 0.567143
C4    C     C_R   0.500252 0.499974 0.632408 0.566059
C5    C     C_R   0.061696 0.373980 0.484727 0.010889
C6    C     C_R   0.935182 0.618312 0.523629 0.010436
C7    C     C_R   0.934960 0.379168 0.476474 -0.001792
C8    C     C_R   0.061012 0.624414 0.513683 0.009161
C9    C     C_R   0.528183 0.376624 0.744234 -0.114684
C10   C     C_R   0.523500 0.624223 0.255766 -0.115472
C11   C     C_R   0.477920 0.375582 0.255734 -0.113093
C12   C     C_R   0.126759 0.499490 0.499259 -0.069278
C13   C     C_R   0.474360 0.623301 0.744186 -0.108626
C14   C     C_R   0.528873 0.374097 0.816344 0.033284
C15   C     C_R   0.523753 0.626590 0.183738 0.035487
C16   C     C_R   0.478530 0.372979 0.183715 0.036242
C17   C     C_R   0.474664 0.625738 0.816291 0.031908
C18   C     C_R   0.501914 0.499872 0.852719 -0.039200
C19   C     C_R   0.501342 0.499729 0.147263 -0.042143
C20   C     C_R   0.443230 0.074608 0.448600 0.016223
C21   C     C_R   0.557336 0.925401 0.551200 0.045495
C22   C     C_R   0.557747 0.074163 0.551068 0.044947
C23   C     C_R   0.612630 0.501944 0.964448 -0.019366
C24   C     C_R   0.443604 0.925858 0.448487 0.019473
C25   C     C_R   0.500890 0.499946 0.708073 -0.022968
C26   C     C_R   0.500468 0.499968 0.291903 -0.026433
C27   C     C_2   0.123798 0.236353 0.479490 0.641794
C28   C     C_2   0.873501 0.734623 0.561301 0.620378
C29   C     C_2   0.871391 0.261836 0.440471 0.636081
C30   C     C_2   0.119580 0.763757 0.512572 0.658969
C31   C     C_2   0.557215 0.238089 0.851556 0.593966
C32   C     C_2   0.546841 0.763955 0.149059 0.575210
C33   C     C_2   0.455838 0.235504 0.149031 0.575430
C34   C     C_R   0.390784 0.497271 0.035497 -0.026855
C35   C     C_2   0.446897 0.761710 0.851462 0.593789
C36   C     C_R   0.612469 0.502045 0.036158 -0.026080
C37   C     C_R   0.390915 0.497435 0.963794 -0.020265
C38   C     C_R   0.501549 0.499659 0.071719 0.089345
C39   C     C_R   0.501840 0.499716 0.928220 0.101599
C40   C     C_R   0.261692 0.500011 0.499540 0.559655
Cu1   Cu    Cu3+1 0.500000 0.640660 0.500000 1.038453
Cu2   Cu    Cu3+1 0.500000 0.359340 0.500000 1.023411
H1    H     H_    0.397163 0.130620 0.407557 0.152281
H2    H     H_    0.304869 0.495486 0.062839 0.121214
H3    H     H_    0.698267 0.503841 0.064017 0.122211
H4    H     H_    0.305104 0.495669 0.935947 0.122954
H5    H     H_    0.217130 0.085749 0.531117 0.345234
H6    H     H_    0.835167 0.941568 0.567365 0.347279
H7    H     H_    0.760975 0.203290 0.362248 0.349417
H8    H     H_    0.185817 0.918970 0.452737 0.343951
H9    H     H_    0.544832 0.117350 0.936764 0.367015
H10   H     H_    0.620970 0.957628 0.155556 0.368331
H11   H     H_    0.381785 0.041779 0.155206 0.368424
H12   H     H_    0.603308 0.869386 0.592257 0.148550
H13   H     H_    0.460563 0.882281 0.936652 0.367066
H14   H     H_    0.604509 0.129835 0.591864 0.123698
H15   H     H_    0.398197 0.870173 0.407224 0.142711
H16   H     H_    0.548429 0.281263 0.715947 0.168540
H17   H     H_    0.540328 0.720464 0.284030 0.181231
H18   H     H_    0.460764 0.279419 0.283974 0.176514
H19   H     H_    0.453831 0.718732 0.715865 0.180073
H20   H     H_    0.698545 0.503773 0.937106 0.123541
N1    N     N_R   0.500000 0.852070 0.500000 -0.230251
N2    N     N_R   0.500000 0.147930 0.500000 -0.233747
O1    O     O_R   0.319640 0.618740 0.500000 -0.482477
O2    O     O_R   0.164302 0.171000 0.539948 -0.629101
O3    O     O_2   0.817669 0.708898 0.614219 -0.512193
O4    O     O_R   0.879253 0.872332 0.536508 -0.605372
O5    O     O_2   0.879162 0.141677 0.462381 -0.445712
O6    O     O_R   0.801381 0.290466 0.381717 -0.668199
O7    O     O_2   0.146107 0.823551 0.566271 -0.471807
O8    O     O_R   0.144134 0.824943 0.448742 -0.646073
O9    O     O_2   0.615081 0.147201 0.821238 -0.484650
O10   O     O_R   0.516596 0.211799 0.918489 -0.661838
O11   O     O_2   0.508677 0.786898 0.090863 -0.491996
O12   O     O_R   0.680360 0.381260 0.500000 -0.484441
O13   O     O_R   0.610759 0.869221 0.184110 -0.684125
O14   O     O_2   0.494524 0.212450 0.091147 -0.491714
O15   O     O_R   0.391686 0.130268 0.183729 -0.684684
O16   O     O_2   0.388673 0.852702 0.821114 -0.475466
O17   O     O_R   0.488475 0.787836 0.918400 -0.662095
O18   O     O_R   0.680360 0.618740 0.500000 -0.475647
O19   O     O_R   0.319640 0.381260 0.500000 -0.478174
O20   O     O_R   0.500020 0.618830 0.400190 -0.513487
O21   O     O_R   0.499980 0.381170 0.599810 -0.512080
O22   O     O_R   0.499980 0.618830 0.599810 -0.500099
O23   O     O_R   0.500020 0.381170 0.400190 -0.505237
O24   O     O_2   0.141782 0.182938 0.423193 -0.505328

loop_
_geom_bond_atom_site_label_1
_geom_bond_atom_site_label_2
_ccdc_geom_bond_type
C12   C40   S    
C7    C29   S    
C34   C37   A    
Cu1   Cu2   S    
C14   C18   A    
H9    O10   S    
C14   C31   S    
C9    C14   A    
C32   O11   D    
C30   O7    D    
C35   O17   S    
C9    C25   A    
C15   C32   S    
C15   C19   A    
Cu1   O22   S    
C6    C8    A    
H11   O15   S    
C9    H16   S    
C10   C15   A    
C21   H12   S    
C33   O14   D    
C31   O9    D    
C4    O22   A    
C35   O16   D    
C1    C2    S    
H8    O8    S    
C32   O13   S    
C5    C27   S    
C23   H20   S    
C6    C28   S    
C20   C24   A    
C24   H15   S    
H13   O17   S    
H5    O2    S    
C10   C26   A    
C1    C7    A    
C21   C22   A    
C40   O19   A    
C13   C25   A    
C4    C25   S    
C29   O5    D    
C3    O23   A    
C1    C6    A    
C28   O3    D    
C34   H2    S    
C5    C12   A    
C5    C7    A    
C33   O15   S    
C31   O10   S    
C22   H14   S    
C4    O21   A    
C11   C26   A    
Cu1   O20   S    
C20   N2    A    
C18   C39   S    
C19   C38   S    
C16   C33   S    
C11   C16   A    
C8    C12   A    
C17   C18   A    
C36   H3    S    
Cu2   O21   S    
H6    O4    S    
C24   N1    A    
C40   O1    A    
C2    O18   A    
Cu1   N1    S    
C11   H18   S    
Cu2   N2    S    
C20   H1    S    
C2    O12   A    
C29   O6    S    
C28   O4    S    
C34   C38   A    
C3    C26   S    
Cu2   O19   S    
C30   O8    S    
Cu2   O12   S    
C13   C17   A    
H7    O6    S    
C8    C30   S    
C36   C38   A    
C10   H17   S    
C37   C39   A    
C27   O2    S    
C16   C19   A    
C23   C39   A    
Cu1   O18   S    
Cu1   O1    S    
C27   O24   D    
C21   N1    A    
C22   N2    A    
C13   H19   S    
C23   C36   A    
C3    O20   A    
Cu2   O23   S    
C17   C35   S    
C37   H4    S    
H10   O13   S    
