data_mof_unit_36107.cif
_audit_creation_date              2012-12-10T18:23:10-0500
_audit_creation_method            fapswitch 2.2
_symmetry_space_group_name_H-M    P1
_symmetry_Int_Tables_number       1
_space_group_crystal_system       triclinic
_cell_length_a                    15.017413
_cell_length_b                    14.16222
_cell_length_c                    10.489935
_cell_angle_alpha                 90.010239
_cell_angle_beta                  88.334288
_cell_angle_gamma                 89.93788
_cell_volume                      2230.05429463

loop_
_atom_site_label
_atom_site_type_symbol
_atom_type_description
_atom_site_fract_x
_atom_site_fract_y
_atom_site_fract_z
_atom_type_partial_charge
Br1   Br    Br    0.296643 0.502389 0.897303 -0.429881
Br2   Br    Br    0.703439 0.497506 0.102745 -0.434750
Br3   Br    Br    0.635511 0.730208 0.303142 -0.480227
Br4   Br    Br    0.364720 0.269791 0.697172 -0.481064
Br5   Br    Br    0.364442 0.730599 0.696751 -0.493150
Br6   Br    Br    0.634293 0.269457 0.301749 -0.504525
C1    C     C_R   0.326738 0.500080 0.500493 0.929633
C2    C     C_R   0.955538 0.325449 0.497162 0.163289
C3    C     C_R   0.556781 0.798627 0.418173 0.284481
C4    C     C_R   0.443432 0.201375 0.582115 0.284447
C5    C     C_R   0.443280 0.798783 0.581888 0.283306
C6    C     C_R   0.556580 0.201223 0.417941 0.287754
C7    C     C_R   0.442146 0.899179 0.583285 -0.037520
C8    C     C_R   0.558040 0.100834 0.416944 -0.034604
C9    C     C_R   0.558069 0.899031 0.416967 -0.037456
C10   C     C_R   0.442241 0.100977 0.583432 -0.038918
C11   C     C_R   0.500132 0.949475 0.500161 0.043031
C12   C     C_R   0.673267 0.499918 0.499821 0.931183
C13   C     C_R   0.500156 0.050532 0.500202 0.042170
C14   C     C_R   0.384611 0.950847 0.665627 -0.156278
C15   C     C_R   0.615759 0.049182 0.334845 -0.160589
C16   C     C_R   0.615749 0.950565 0.334828 -0.155301
C17   C     C_R   0.384689 0.049455 0.665741 -0.154131
C18   C     C_R   0.498448 0.500001 0.257662 0.958232
C19   C     C_R   0.501589 0.499996 0.742336 0.957283
C20   C     C_3   0.457884 0.578599 0.042525 -0.204014
C21   C     C_3   0.542204 0.421380 0.957471 -0.203643
C22   C     C_3   0.543798 0.577507 0.957423 -0.204943
C23   C     C_R   0.953642 0.499402 0.502148 0.033302
C24   C     C_3   0.456294 0.422472 0.042577 -0.204593
C25   C     C_3   0.416720 0.501038 0.960101 0.336285
C26   C     C_3   0.583370 0.498938 0.039904 0.336966
C27   C     C_3   0.501668 0.499968 0.877247 -0.120430
C28   C     C_3   0.498418 0.500015 0.122751 -0.120077
C29   C     C_R   0.814978 0.413765 0.498157 -0.216785
C30   C     C_R   0.185062 0.586274 0.504665 -0.214801
C31   C     C_R   0.769225 0.499615 0.500256 -0.056378
C32   C     C_R   0.230768 0.500400 0.501757 -0.049068
C33   C     C_R   0.814835 0.585075 0.503434 -0.186747
C34   C     C_R   0.046275 0.500896 0.502925 0.044825
C35   C     C_R   0.185102 0.414975 0.500088 -0.185031
C36   C     C_R   0.906806 0.585672 0.504407 0.070159
C37   C     C_R   0.093180 0.414527 0.500615 0.090352
C38   C     C_3   0.094370 0.769564 0.512827 -0.392615
C39   C     C_3   0.036783 0.858803 0.517580 -0.859736
C40   C     C_3   0.911165 0.229282 0.493329 -0.438035
C41   C     C_3   0.883037 0.204890 0.358533 -0.779342
C42   C     C_R   0.907635 0.411878 0.498942 0.089521
C43   C     C_R   0.092274 0.588418 0.505572 0.052125
C44   C     C_R   0.951645 0.671915 0.507823 -0.181167
C45   C     C_R   0.048263 0.328381 0.498226 -0.228087
C46   C     C_R   0.044840 0.675319 0.508665 0.153679
H1    H     H_    0.423000 0.642063 0.081133 0.192610
H2    H     H_    0.085894 0.262922 0.496042 0.152761
H3    H     H_    0.338548 0.916218 0.731309 0.191299
H4    H     H_    0.661941 0.083839 0.269347 0.188722
H5    H     H_    0.661858 0.915815 0.269213 0.191081
H6    H     H_    0.338698 0.084205 0.731526 0.191721
H7    H     H_    0.996405 0.864211 0.430817 0.263395
H8    H     H_    0.992777 0.859066 0.604545 0.263076
H9    H     H_    0.080558 0.921861 0.521036 0.257186
H10   H     H_    0.136117 0.770399 0.598626 0.235347
H11   H     H_    0.139085 0.774895 0.426815 0.213164
H12   H     H_    0.577087 0.357916 0.918861 0.192286
H13   H     H_    0.838518 0.259947 0.320371 0.293754
H14   H     H_    0.942768 0.198594 0.294099 0.260142
H15   H     H_    0.847098 0.136393 0.359646 0.249943
H16   H     H_    0.957724 0.173331 0.524673 0.211614
H17   H     H_    0.853406 0.225887 0.561619 0.209675
H18   H     H_    0.579961 0.640061 0.918739 0.192422
H19   H     H_    0.420134 0.359916 0.081259 0.192713
H20   H     H_    0.777449 0.348884 0.495831 0.195624
H21   H     H_    0.222770 0.651136 0.505731 0.182040
H22   H     H_    0.778808 0.651503 0.505523 0.182745
H23   H     H_    0.221011 0.348475 0.497726 0.183951
H24   H     H_    0.912585 0.736112 0.509686 0.164119
N1    N     N_R   0.500000 0.750030 0.500000 -0.148586
N2    N     N_R   0.500000 0.249970 0.500000 -0.148416
O1    O     O_R   0.367850 0.580280 0.500030 -0.601168
O2    O     O_R   0.632150 0.419720 0.499970 -0.601748
O3    O     O_R   0.632150 0.580280 0.499970 -0.599543
O4    O     O_R   0.367850 0.419720 0.500030 -0.600287
O5    O     O_R   0.499970 0.580260 0.313950 -0.588310
O6    O     O_R   0.500030 0.419740 0.686050 -0.588244
O7    O     O_R   0.500030 0.580260 0.686050 -0.586731
O8    O     O_R   0.499970 0.419740 0.313950 -0.585625
Zn1   Zn    Zn3+2 0.500000 0.607200 0.500000 1.034546
Zn2   Zn    Zn3+2 0.500000 0.392800 0.500000 1.034587

loop_
_geom_bond_atom_site_label_1
_geom_bond_atom_site_label_2
_ccdc_geom_bond_type
C17   H6    S    
O5    Zn1   S    
C39   H8    S    
C23   C36   A    
C16   H5    S    
O1    Zn1   S    
C24   H19   S    
C4    N2    A    
C9    C16   A    
C21   C27   S    
C8    C15   A    
C29   C31   A    
C18   O5    A    
Br5   C5    S    
Br6   C6    S    
C24   C25   S    
O8    Zn2   S    
C34   C43   A    
Br1   C25   S    
C12   O3    A    
Br2   C26   S    
C33   H22   S    
C40   H17   S    
C5    N1    A    
C20   C28   S    
C34   C37   A    
C6    N2    A    
C19   O6    A    
C44   C46   A    
C25   C27   S    
C41   H14   S    
C38   C46   S    
C20   C25   S    
C15   C16   A    
C21   C24   S    
C35   C37   A    
C14   H3    S    
C29   C42   A    
C41   H15   S    
C33   C36   A    
O7    Zn1   S    
C38   H11   S    
C31   C33   A    
C24   C28   S    
C23   C42   A    
C22   C26   S    
C32   C35   A    
C30   H21   S    
C38   H10   S    
C18   C28   S    
C26   C28   S    
C2    C42   A    
C40   H16   S    
Br3   C3    S    
C44   H24   S    
C35   H23   S    
C14   C17   A    
C43   C46   A    
C19   O7    A    
C3    N1    A    
C2    C45   A    
O3    Zn1   S    
C36   C44   A    
C6    C8    A    
C22   C27   S    
C10   C17   A    
Br4   C4    S    
C20   H1    S    
C38   C39   S    
C1    O1    A    
N2    Zn2   S    
C9    C11   A    
C40   C41   S    
C39   H7    S    
C7    C14   A    
C21   C26   S    
C8    C13   A    
C12   C31   S    
C22   H18   S    
O6    Zn2   S    
C29   H20   S    
C15   H4    S    
C20   C22   S    
C7    C11   A    
C45   H2    S    
C30   C32   A    
C3    C9    A    
O2    Zn2   S    
C4    C10   A    
C5    C7    A    
C37   C45   A    
C10   C13   A    
O4    Zn2   S    
C23   C34   A    
C39   H9    S    
C11   C13   A    
C1    C32   S    
C2    C40   S    
C21   H12   S    
C1    O4    A    
N1    Zn1   S    
C12   O2    A    
C18   O8    A    
C41   H13   S    
C30   C43   A    
C19   C27   S    
