data_mof_unit_54540.cif
_audit_creation_date              2012-12-10T17:35:01-0500
_audit_creation_method            fapswitch 2.2
_symmetry_space_group_name_H-M    P1
_symmetry_Int_Tables_number       1
_space_group_crystal_system       triclinic
_cell_length_a                    12.393341
_cell_length_b                    13.518429
_cell_length_c                    13.884055
_cell_angle_alpha                 107.256494
_cell_angle_beta                  74.040926
_cell_angle_gamma                 117.102776
_cell_volume                      1950.55392277

loop_
_atom_site_label
_atom_site_type_symbol
_atom_type_description
_atom_site_fract_x
_atom_site_fract_y
_atom_site_fract_z
_atom_type_partial_charge
C1    C     C_R   0.144618 0.714727 0.512177 0.817610
C2    C     C_1   0.974326 0.505779 0.791393 -0.176173
C3    C     C_R   0.735467 0.971064 0.437280 0.439611
C4    C     C_R   0.774873 0.167039 0.459744 -0.143941
C5    C     C_R   0.172438 0.912673 0.509266 0.409799
C6    C     C_R   0.250832 0.025696 0.500031 -0.251959
C7    C     C_R   0.375993 0.069662 0.500643 0.378732
C8    C     C_R   0.432336 0.996499 0.494723 -0.036236
C9    C     C_R   0.353459 0.886106 0.513931 -0.209038
C10   C     C_R   0.562755 0.027504 0.474185 -0.005529
C11   C     C_R   0.607993 0.945918 0.468850 -0.083044
C12   C     C_R   0.984196 0.504431 0.686250 0.812005
C13   C     C_R   0.528361 0.848070 0.507223 0.333916
C14   C     C_R   0.405612 0.829963 0.544651 0.395730
C15   C     C_R   0.650679 0.135551 0.459149 -0.222627
C16   C     C_R   0.818190 0.083464 0.441712 -0.196276
C17   C     C_R   0.224443 0.839763 0.513823 -0.192386
C18   C     C_R   0.622731 0.645900 0.683569 -0.391554
C19   C     C_R   0.246341 0.347525 0.363046 0.602278
C20   C     C_R   0.334083 0.300929 0.344401 0.205425
C21   C     C_R   0.433119 0.357359 0.397864 -0.203827
C22   C     C_R   0.442928 0.454238 0.474355 -0.014505
C23   C     C_R   0.856661 0.287366 0.479468 0.811013
C24   C     C_R   0.341871 0.485604 0.502421 0.091021
C25   C     C_R   0.543731 0.514557 0.530615 -0.012891
C26   C     C_R   0.528951 0.587820 0.624884 0.029585
C27   C     C_R   0.422393 0.607062 0.657759 -0.123197
C28   C     C_R   0.334479 0.561453 0.594863 -0.086343
C29   C     C_R   0.659462 0.507528 0.496502 0.473482
C30   C     C_R   0.731826 0.629291 0.650944 0.605545
C31   C     C_R   0.017135 0.497761 0.314057 0.821198
C32   C     C_1   0.030999 0.502961 0.209970 -0.147737
C33   C     C_2   0.056095 0.512244 0.016308 0.416081
C34   C     C_2   0.958412 0.504566 0.985077 0.345479
C35   C     C_1   0.966654 0.505933 0.879567 -0.057311
C36   C     C_1   0.042962 0.507470 0.122301 -0.065011
Cu1   Cu    Cu3+1 0.899780 0.525060 0.522890 1.018690
Cu2   Cu    Cu3+1 0.100220 0.474940 0.477110 0.977816
H1    H     H_    0.411226 0.665204 0.728853 0.184368
H2    H     H_    0.611118 0.704522 0.753934 0.165812
H3    H     H_    0.494909 0.317261 0.385095 0.220738
H4    H     H_    0.264025 0.590834 0.619557 0.239273
H5    H     H_    0.915797 0.104882 0.429958 0.183669
H6    H     H_    0.626345 0.198481 0.450069 0.200140
H7    H     H_    0.214717 0.083833 0.496962 0.164746
N1    N     N_R   0.748810 0.563010 0.557590 -0.249509
N2    N     N_R   0.250540 0.437620 0.443020 -0.263072
O1    O     O_R   0.025040 0.682470 0.528790 -0.480472
O2    O     O_R   0.194310 0.640150 0.490130 -0.592156
O3    O     O_R   0.903380 0.524130 0.659910 -0.557963
O4    O     O_R   0.072660 0.481800 0.621240 -0.597967
O5    O     O_R   0.805690 0.359850 0.509870 -0.628711
O6    O     O_R   0.974960 0.317530 0.471210 -0.535656
O7    O     O_R   0.927340 0.518200 0.378760 -0.540033
O8    O     O_R   0.096620 0.475870 0.340090 -0.551742
O9    O     O_3   0.850057 0.492791 0.052974 -0.726740
H8    H     H_    0.789438 0.488264 0.015925 0.322268
O10   O     O_3   0.350009 0.781680 0.629543 -0.748304
H9    H     H_    0.278608 0.800691 0.664894 0.311358
O11   O     O_3   0.828762 0.688040 0.705958 -0.549196
C37   C     C_3   0.790868 0.686274 0.811886 0.061860
H10   H     H_    0.848892 0.657177 0.834790 0.178794
H11   H     H_    0.694075 0.626514 0.833374 0.115386
C38   C     C_3   0.813008 0.805735 0.873626 -0.843405
H12   H     H_    0.755793 0.838997 0.855167 0.235692
H13   H     H_    0.789069 0.804560 0.956565 0.222124
H14   H     H_    0.911336 0.863240 0.856282 0.258379
O12   O     O_3   0.686396 0.454178 0.398269 -0.714964
H15   H     H_    0.715734 0.399354 0.402896 0.342826
O13   O     O_3   0.144246 0.295320 0.313549 -0.552578
C39   C     C_3   0.169274 0.248488 0.208543 0.118426
H16   H     H_    0.153332 0.158692 0.199531 0.217287
H17   H     H_    0.264241 0.297665 0.171917 0.140549
C40   C     C_3   0.079455 0.246551 0.151722 -0.837543
H18   H     H_    0.102076 0.333844 0.146141 0.234375
H19   H     H_    0.086979 0.195589 0.073006 0.207734
H20   H     H_    0.983731 0.208873 0.192132 0.260821
O14   O     O_3   0.317908 0.197413 0.279191 -0.762710
H21   H     H_    0.386396 0.177057 0.276048 0.343581
O15   O     O_3   0.165526 0.527106 0.946464 -0.599011
C41   C     C_3   0.253642 0.515431 0.983579 0.069185
H22   H     H_    0.216939 0.429270 0.000418 0.143388
H23   H     H_    0.281158 0.581317 0.053304 0.152056
C42   C     C_3   0.368028 0.530889 0.902457 -0.781942
H24   H     H_    0.410442 0.618328 0.887881 0.239321
H25   H     H_    0.435851 0.517237 0.929260 0.193557
H26   H     H_    0.343861 0.469005 0.830245 0.259269
O16   O     O_3   0.575077 0.782212 0.525320 -0.708885
H27   H     H_    0.525846 0.704148 0.492286 0.328012
O17   O     O_3   0.782287 0.889520 0.404401 -0.714297
H28   H     H_    0.719737 0.818792 0.371685 0.346427
O18   O     O_3   0.045588 0.869982 0.512400 -0.536539
C43   C     C_3   0.996686 0.952930 0.557408 0.065914
H29   H     H_    0.004725 0.996812 0.497897 0.175516
H30   H     H_    0.043037 0.016160 0.621925 0.115911
C44   C     C_3   0.861489 0.896236 0.600988 -0.596506
H31   H     H_    0.852401 0.873139 0.673785 0.233576
H32   H     H_    0.817118 0.955946 0.617220 0.201909
H33   H     H_    0.813972 0.818836 0.546267 0.300503
O19   O     O_3   0.434834 0.185851 0.520085 -0.771558
H34   H     H_    0.479086 0.207207 0.577750 0.321282

loop_
_geom_bond_atom_site_label_1
_geom_bond_atom_site_label_2
_ccdc_geom_bond_type
C2    C35   T    
C34   O9    S    
C43   H29   S    
C6    H7    S    
C19   C20   A    
C18   C26   A    
C42   H26   S    
C2    C12   S    
C12   O4    A    
C41   H22   S    
C23   O5    A    
C7    C8    A    
Cu2   O2    S    
C26   C27   A    
C40   H19   S    
C3    O17   S    
C32   C36   T    
C42   H25   S    
C15   H6    S    
C10   C15   A    
C5    C6    A    
C19   N2    A    
C5    C17   A    
C44   H33   S    
C33   C36   S    
O9    H8    S    
C34   C35   S    
C37   H11   S    
C18   H2    S    
O18   C43   S    
Cu2   O8    S    
C27   H1    S    
C8    C9    A    
C40   H20   S    
C44   H32   S    
O13   C39   S    
C18   C30   A    
C43   H30   S    
C21   C22   A    
C41   H23   S    
C23   O6    A    
C25   C29   A    
C14   O10   S    
C7    O19   S    
C38   H14   S    
C42   H24   S    
C40   H18   S    
C39   H17   S    
Cu1   O5    S    
O14   H21   S    
O12   H15   S    
Cu2   O4    S    
O10   H9    S    
C22   C25   A    
C30   O11   S    
O11   C37   S    
C38   H13   S    
C4    C16   A    
C37   C38   S    
C9    C14   A    
Cu1   Cu2   S    
C29   O12   S    
C31   C32   S    
C44   H31   S    
C33   C34   D    
C1    O1    A    
O16   H27   S    
Cu1   O1    S    
C16   H5    S    
Cu2   N2    S    
C21   H3    S    
Cu1   O7    S    
C9    C17   A    
C43   C44   S    
C22   C24   A    
C41   C42   S    
C4    C23   S    
C24   N2    A    
C30   N1    A    
C24   C28   A    
O15   C41   S    
C39   C40   S    
C12   O3    A    
C33   O15   S    
C6    C7    A    
C1    C17   S    
C20   O14   S    
C29   N1    A    
C38   H12   S    
C4    C15   A    
C25   C26   A    
C39   H16   S    
Cu1   O3    S    
C11   C13   A    
O17   H28   S    
Cu2   O6    S    
C13   O16   S    
C28   H4    S    
O19   H34   S    
C31   O7    A    
C37   H10   S    
C5    O18   S    
C3    C11   A    
C10   C11   A    
C20   C21   A    
C8    C10   A    
C27   C28   A    
C19   O13   S    
C31   O8    A    
Cu1   N1    S    
C13   C14   A    
C1    O2    A    
C3    C16   A    
