data_mof_unit_6028.cif
_audit_creation_date              2012-12-11T14:42:00-0500
_audit_creation_method            fapswitch 2.2
_symmetry_space_group_name_H-M    P1
_symmetry_Int_Tables_number       1
_space_group_crystal_system       triclinic
_cell_length_a                    18.97785
_cell_length_b                    10.928214
_cell_length_c                    18.894832
_cell_angle_alpha                 89.953156
_cell_angle_beta                  90.050294
_cell_angle_gamma                 90.026977
_cell_volume                      3918.67164985

loop_
_atom_site_label
_atom_site_type_symbol
_atom_type_description
_atom_site_fract_x
_atom_site_fract_y
_atom_site_fract_z
_atom_type_partial_charge
C1    C     C_R   0.726636 0.956617 0.854135 0.577644
C2    C     C_R   0.273376 0.956716 0.145851 0.574793
C3    C     C_R   0.226635 0.456618 0.854135 0.577676
C4    C     C_R   0.773376 0.456716 0.145851 0.574788
C5    C     C_R   0.691523 0.450136 0.040957 0.046393
C6    C     C_R   0.308517 0.449992 0.958978 0.045952
C7    C     C_R   0.191523 0.950130 0.040958 0.046392
C8    C     C_R   0.808513 0.950021 0.958983 0.045962
C9    C     C_R   0.757392 0.423741 0.072768 -0.007273
C10   C     C_R   0.242620 0.423575 0.927221 -0.007569
C11   C     C_R   0.257393 0.923745 0.072767 -0.007268
C12   C     C_R   0.742623 0.923572 0.927220 -0.007576
C13   C     C_R   0.815099 0.390260 0.030882 -0.158552
C14   C     C_R   0.184891 0.390202 0.969152 -0.158518
C15   C     C_R   0.315103 0.890276 0.030880 -0.158556
C16   C     C_R   0.684898 0.890168 0.969147 -0.158525
C17   C     C_R   0.809556 0.385865 0.958735 -0.153702
C18   C     C_R   0.190425 0.386038 0.041303 -0.153618
C19   C     C_R   0.309558 0.885879 0.958732 -0.153714
C20   C     C_R   0.690427 0.886008 0.041299 -0.153620
C21   C     C_R   0.745076 0.408322 0.925777 0.041934
C22   C     C_R   0.254933 0.408492 0.074217 0.042196
C23   C     C_R   0.245075 0.908325 0.925776 0.041940
C24   C     C_R   0.754931 0.908491 0.074217 0.042195
C25   C     C_R   0.543167 0.268624 0.525279 -0.136300
C26   C     C_R   0.535485 0.263581 0.453127 -0.145759
C27   C     C_R   0.043109 0.768672 0.525286 -0.136287
C28   C     C_R   0.035446 0.763631 0.453134 -0.145742
C29   C     C_R   0.503053 0.161944 0.422966 0.032046
C30   C     C_R   0.520202 0.170648 0.567624 0.037621
C31   C     C_R   0.003070 0.661949 0.422959 0.032058
C32   C     C_R   0.020196 0.670645 0.567622 0.037630
C33   C     C_R   0.486170 0.058848 0.464287 -0.136458
C34   C     C_R   0.494796 0.063369 0.536910 -0.145838
C35   C     C_R   0.986243 0.558807 0.464268 -0.136472
C36   C     C_R   0.994858 0.563325 0.536894 -0.145850
C37   C     C_R   0.784920 0.307613 0.527839 -0.161808
C38   C     C_R   0.185923 0.392674 0.456961 -0.170950
C39   C     C_R   0.285034 0.807760 0.527866 -0.161839
C40   C     C_R   0.685932 0.892607 0.456973 -0.170943
C41   C     C_R   0.787670 0.322428 0.455489 -0.148726
C42   C     C_R   0.179284 0.403334 0.529129 -0.153066
C43   C     C_R   0.287768 0.822522 0.455513 -0.148714
C44   C     C_R   0.679298 0.903252 0.529142 -0.153076
C45   C     C_R   0.530012 0.177617 0.851004 0.574617
C46   C     C_R   0.469974 0.177705 0.148987 0.571000
C47   C     C_R   0.030011 0.677617 0.851004 0.574606
C48   C     C_R   0.969973 0.677705 0.148987 0.571001
C49   C     C_R   0.752242 0.419807 0.423856 0.009654
C50   C     C_R   0.237524 0.436013 0.570954 0.008989
C51   C     C_R   0.252233 0.919755 0.423848 0.009668
C52   C     C_R   0.737534 0.935970 0.570963 0.008847
C53   C     C_R   0.710400 0.498555 0.465034 -0.133353
C54   C     C_R   0.301678 0.464625 0.539123 -0.138187
C55   C     C_R   0.210284 0.998373 0.464997 -0.133367
C56   C     C_R   0.801684 0.964599 0.539128 -0.138269
C57   C     C_R   0.706958 0.483530 0.538315 0.068661
C58   C     C_R   0.309207 0.453432 0.466022 0.083831
C59   C     C_R   0.206875 0.983424 0.538287 0.068784
C60   C     C_R   0.809208 0.953420 0.466025 0.083809
C61   C     C_R   0.745600 0.388564 0.570040 0.071458
C62   C     C_R   0.251270 0.411852 0.424888 0.066711
C63   C     C_R   0.245623 0.888613 0.570045 0.071504
C64   C     C_R   0.751272 0.911827 0.424894 0.066692
C65   C     C_R   0.737483 0.363384 0.853368 0.567381
C66   C     C_R   0.262513 0.363493 0.146641 0.563054
C67   C     C_R   0.237483 0.863384 0.853368 0.567385
C68   C     C_R   0.762512 0.863495 0.146641 0.563060
C69   C     C_R   0.725692 0.960174 0.645411 0.556876
C70   C     C_R   0.271931 0.955788 0.352634 0.554361
C71   C     C_R   0.225687 0.460188 0.645406 0.556959
C72   C     C_R   0.771935 0.455803 0.352638 0.554352
C73   C     C_R   0.534222 0.176899 0.642201 0.550432
C74   C     C_R   0.471250 0.175232 0.354357 0.551484
C75   C     C_R   0.034221 0.676898 0.642200 0.550429
C76   C     C_R   0.971254 0.675233 0.354355 0.551485
C77   C     C_R   0.738379 0.358048 0.644631 0.570377
C78   C     C_R   0.260991 0.362759 0.353822 0.558084
C79   C     C_R   0.238385 0.858067 0.644634 0.570384
C80   C     C_R   0.760991 0.862755 0.353824 0.558067
C81   C     C_2   0.498046 0.169030 0.921330 -0.097095
C82   C     C_2   0.501938 0.169249 0.078661 -0.097018
C83   C     C_2   0.998042 0.669032 0.921328 -0.097102
C84   C     C_2   0.001934 0.669248 0.078659 -0.097013
C85   C     C_2   0.492520 0.069376 0.038262 -0.171487
C86   C     C_2   0.507658 0.069331 0.961892 -0.171931
C87   C     C_2   0.992511 0.569377 0.038260 -0.171487
C88   C     C_2   0.007648 0.569330 0.961890 -0.171936
C89   C     C_R   0.685898 0.445014 0.966467 0.062243
C90   C     C_R   0.314140 0.445048 0.033474 0.062551
C91   C     C_R   0.185896 0.945008 0.966468 0.062242
C92   C     C_R   0.814133 0.945076 0.033478 0.062554
Cr1   Cr    Cr6+3 0.769270 0.163730 0.750710 1.057124
Cr2   Cr    Cr6+3 0.230730 0.163730 0.249290 1.055906
Cr3   Cr    Cr6+3 0.269270 0.663730 0.750710 1.057136
Cr4   Cr    Cr6+3 0.730730 0.663730 0.249290 1.055902
Cr5   Cr    Cr6+3 0.612620 0.009790 0.748780 1.025658
Cr6   Cr    Cr6+3 0.387380 0.009790 0.251220 1.021820
Cr7   Cr    Cr6+3 0.112620 0.509790 0.748780 1.025669
Cr8   Cr    Cr6+3 0.887380 0.509790 0.251220 1.021822
Cr9   Cr    Cr6+3 0.614160 0.322500 0.747710 1.070476
Cr10  Cr    Cr6+3 0.385840 0.322500 0.252290 1.073426
Cr11  Cr    Cr6+3 0.114160 0.822500 0.747710 1.070444
Cr12  Cr    Cr6+3 0.885840 0.822500 0.252290 1.073414
H1    H     H_    0.472737 0.985144 0.061259 0.150470
H2    H     H_    0.527592 0.985197 0.939030 0.150286
H3    H     H_    0.972725 0.485147 0.061257 0.150473
H4    H     H_    0.027574 0.485192 0.939026 0.150277
H5    H     H_    0.820175 0.261037 0.424588 0.139234
H6    H     H_    0.127825 0.386522 0.551949 0.146448
H7    H     H_    0.320348 0.761214 0.424636 0.139223
H8    H     H_    0.627843 0.886413 0.551964 0.146508
H9    H     H_    0.683650 0.575931 0.441218 0.136299
H10   H     H_    0.345920 0.495352 0.570793 0.122577
H11   H     H_    0.183435 0.075623 0.441155 0.136227
H12   H     H_    0.845923 0.995345 0.570795 0.122574
H13   H     H_    0.524507 0.251878 0.056091 0.125951
H14   H     H_    0.475342 0.251548 0.943777 0.126122
H15   H     H_    0.024505 0.751875 0.056090 0.125946
H16   H     H_    0.975343 0.751553 0.943776 0.126135
H17   H     H_    0.866227 0.370544 0.053571 0.150239
H18   H     H_    0.133757 0.370429 0.946489 0.150197
H19   H     H_    0.366232 0.870569 0.053567 0.150234
H20   H     H_    0.633768 0.870370 0.946481 0.150205
H21   H     H_    0.855695 0.358606 0.928863 0.165835
H22   H     H_    0.144263 0.358889 0.071223 0.165349
H23   H     H_    0.355697 0.858628 0.928859 0.165806
H24   H     H_    0.644268 0.858836 0.071215 0.165372
H25   H     H_    0.566941 0.349805 0.547830 0.147312
H26   H     H_    0.550024 0.342602 0.421629 0.134798
H27   H     H_    0.066829 0.849893 0.547846 0.147091
H28   H     H_    0.049946 0.842690 0.421648 0.134770
H29   H     H_    0.461421 0.978703 0.441446 0.139147
H30   H     H_    0.479965 0.985302 0.569006 0.123033
H31   H     H_    0.961545 0.478622 0.441414 0.139123
H32   H     H_    0.980073 0.485216 0.568979 0.123034
H33   H     H_    0.813333 0.231227 0.550618 0.137512
H34   H     H_    0.140426 0.363158 0.426746 0.134935
H35   H     H_    0.313528 0.731475 0.550660 0.137498
H36   H     H_    0.640437 0.863072 0.426763 0.134950
O1    O     O_R   0.784320 0.290430 0.830510 -0.519893
O2    O     O_R   0.215680 0.290430 0.169490 -0.521287
O3    O     O_R   0.284320 0.790430 0.830510 -0.519903
O4    O     O_R   0.715680 0.790430 0.169490 -0.521288
O5    O     O_R   0.554640 0.080370 0.673500 -0.509662
O6    O     O_R   0.445360 0.080370 0.326500 -0.512147
O7    O     O_R   0.054640 0.580370 0.673500 -0.509676
O8    O     O_R   0.945360 0.580370 0.326500 -0.512141
O9    O     O_R   0.543920 0.282180 0.666790 -0.517369
O10   O     O_R   0.456080 0.282180 0.333210 -0.502828
O11   O     O_R   0.043920 0.782180 0.666790 -0.517412
O12   O     O_R   0.956080 0.782180 0.333210 -0.502849
O13   O     O_R   0.679040 0.374160 0.674430 -0.472702
O14   O     O_R   0.320960 0.374160 0.325570 -0.460037
O15   O     O_R   0.179040 0.874160 0.674430 -0.472717
O16   O     O_R   0.820960 0.874160 0.325570 -0.460032
O17   O     O_3   0.665350 0.165340 0.749070 -0.275522
O18   O     O_3   0.334650 0.165340 0.250930 -0.268190
O19   O     O_3   0.165350 0.665340 0.749070 -0.275518
O20   O     O_3   0.834650 0.665340 0.250930 -0.268195
O21   O     O_R   0.762640 0.040960 0.825200 -0.464516
O22   O     O_R   0.237360 0.040960 0.174800 -0.465122
O23   O     O_R   0.262640 0.540960 0.825200 -0.464517
O24   O     O_R   0.737360 0.540960 0.174800 -0.465118
O25   O     O_R   0.667400 0.923970 0.829950 -0.527388
O26   O     O_R   0.332600 0.923970 0.170050 -0.530177
O27   O     O_R   0.167400 0.423970 0.829950 -0.527382
O28   O     O_R   0.832600 0.423970 0.170050 -0.530179
O29   O     O_R   0.553960 0.081340 0.821780 -0.505967
O30   O     O_R   0.446040 0.081340 0.178220 -0.508145
O31   O     O_R   0.053960 0.581340 0.821780 -0.505973
O32   O     O_R   0.946040 0.581340 0.178220 -0.508147
O33   O     O_R   0.543180 0.283240 0.826740 -0.474891
O34   O     O_R   0.456820 0.283240 0.173260 -0.477491
O35   O     O_R   0.043180 0.783240 0.826740 -0.474875
O36   O     O_R   0.956820 0.783240 0.173260 -0.477500
O37   O     O_R   0.678360 0.375140 0.822710 -0.462530
O38   O     O_R   0.321640 0.375140 0.177290 -0.466268
O39   O     O_R   0.178360 0.875140 0.822710 -0.462523
O40   O     O_R   0.821640 0.875140 0.177290 -0.466263
O41   O     O_R   0.785050 0.289380 0.670560 -0.539409
O42   O     O_R   0.214950 0.289380 0.329440 -0.540655
O43   O     O_R   0.285050 0.789380 0.670560 -0.539426
O44   O     O_R   0.714950 0.789380 0.329440 -0.540678
O45   O     O_R   0.763320 0.039990 0.676930 -0.501833
O46   O     O_R   0.236680 0.039990 0.323070 -0.501195
O47   O     O_R   0.263320 0.539990 0.676930 -0.501832
O48   O     O_R   0.736680 0.539990 0.323070 -0.501210
O49   O     O_R   0.668130 0.922920 0.670000 -0.519806
O50   O     O_R   0.331870 0.922920 0.330000 -0.520311
O51   O     O_R   0.168130 0.422920 0.670000 -0.519776
O52   O     O_R   0.831870 0.422920 0.330000 -0.520279
N1    N     N_3   0.666615 0.566962 0.580364 -0.609465
H37   H     H_    0.614809 0.566748 0.561518 0.217372
H38   H     H_    0.687171 0.654657 0.572711 0.237074
N2    N     N_3   0.376185 0.480416 0.434714 -0.588026
H39   H     H_    0.413852 0.423708 0.458252 0.238474
H40   H     H_    0.389299 0.570825 0.447072 0.205350
N3    N     N_3   0.166430 0.066754 0.580305 -0.609303
H41   H     H_    0.114539 0.065851 0.561670 0.217322
H42   H     H_    0.186641 0.154631 0.572347 0.236937
N4    N     N_3   0.876178 0.980442 0.434711 -0.588056
H43   H     H_    0.913855 0.923749 0.458243 0.238450
H44   H     H_    0.889279 0.070855 0.447075 0.205351
N5    N     N_3   0.619943 0.470592 0.932180 -0.575396
H45   H     H_    0.607392 0.562705 0.939782 0.267514
H46   H     H_    0.580574 0.415622 0.954275 0.243176
N6    N     N_3   0.380113 0.470648 0.067726 -0.576064
H47   H     H_    0.392742 0.562730 0.059969 0.266827
H48   H     H_    0.419438 0.415591 0.045734 0.243739
N7    N     N_3   0.119939 0.970576 0.932182 -0.575372
H49   H     H_    0.107384 0.062687 0.939784 0.267518
H50   H     H_    0.080573 0.915601 0.954278 0.243171
N8    N     N_3   0.880100 0.970708 0.067734 -0.576086
H51   H     H_    0.892714 0.062797 0.059981 0.266818
H52   H     H_    0.919437 0.915673 0.045742 0.243738
C93   C     C_2   0.628129 0.474952 0.085047 0.569488
O53   O     O_2   0.615727 0.410505 0.136517 -0.519679
O54   O     O_R   0.582945 0.571714 0.068226 -0.721404
H53   H     H_    0.541717 0.578263 0.102099 0.340728
C94   C     C_2   0.371928 0.474646 0.914834 0.569389
O55   O     O_2   0.384192 0.410212 0.863396 -0.516394
O56   O     O_R   0.417284 0.571241 0.931562 -0.721671
H54   H     H_    0.458498 0.577688 0.897657 0.341278
C95   C     C_2   0.128128 0.974934 0.085050 0.569480
O57   O     O_2   0.115733 0.910489 0.136522 -0.519683
O58   O     O_R   0.082936 0.071685 0.068228 -0.721405
H55   H     H_    0.041708 0.078226 0.102103 0.340729
C96   C     C_2   0.871923 0.974719 0.914845 0.569411
O59   O     O_2   0.884214 0.910278 0.863417 -0.516411
O60   O     O_R   0.917244 0.071367 0.931568 -0.721665
H56   H     H_    0.958460 0.077846 0.897667 0.341263

loop_
_geom_bond_atom_site_label_1
_geom_bond_atom_site_label_2
_ccdc_geom_bond_type
C58   C62   A    
C87   C88   S    
C49   C53   A    
Cr3   O3    S    
C48   C84   S    
C14   H18   S    
N6    H48   S    
Cr7   O19   S    
Cr8   O32   S    
C27   H27   S    
C14   C18   A    
Cr9   O33   S    
C35   C36   A    
C84   C87   D    
Cr6   O50   S    
C25   H25   S    
Cr10  O18   S    
C32   C75   S    
C13   H17   S    
C3    O27   A    
Cr12  O36   S    
C21   C89   A    
N5    H45   S    
C7    C11   A    
C66   O38   A    
C70   O50   A    
C50   C54   A    
N4    H44   S    
Cr3   O19   S    
C32   C36   A    
Cr12  O20   S    
C38   C42   A    
C55   C59   A    
C88   H4    S    
N8    H52   S    
C37   H33   S    
Cr7   O31   S    
C4    O24   A    
C34   H30   S    
C29   C33   A    
Cr6   O30   S    
Cr5   O29   S    
C23   C67   S    
C57   C61   A    
C9    C13   A    
C22   C66   S    
C52   C69   S    
C77   O13   A    
C46   C82   S    
C11   C15   A    
C54   H10   S    
C5    C93   S    
Cr6   O18   S    
C61   C77   S    
N6    H47   S    
N1    H38   S    
C49   C72   S    
C77   O41   A    
C46   O34   A    
C92   N8    S    
C8    C92   A    
C51   C70   S    
C47   C83   S    
C8    C12   A    
C22   C90   A    
Cr2   O22   S    
C51   C55   A    
C81   C86   D    
C26   H26   S    
Cr11  O11   S    
C6    C94   S    
Cr11  O19   S    
C44   C52   A    
Cr5   O49   S    
C83   C88   D    
C67   O3    A    
N3    H41   S    
Cr2   O18   S    
C48   O32   A    
C37   C41   A    
C64   C80   S    
Cr10  O38   S    
C2    O22   A    
C86   H2    S    
C1    C12   S    
Cr1   O41   S    
Cr4   O44   S    
C85   H1    S    
C2    C11   S    
C36   H32   S    
C41   C49   A    
C53   H9    S    
C80   O16   A    
Cr7   O27   S    
N5    H46   S    
C7    C95   S    
C38   H34   S    
C12   C16   A    
C39   H35   S    
N4    H43   S    
C30   C34   A    
Cr3   O47   S    
Cr2   O2    S    
C20   C24   A    
Cr8   O52   S    
O56   H54   S    
C91   N7    S    
C10   C14   A    
C75   O11   A    
O54   H53   S    
C30   C73   S    
C53   C57   A    
N8    H51   S    
C78   O14   A    
C63   C79   S    
C29   C74   S    
Cr6   O6    S    
C75   O7    A    
C25   C26   A    
C85   C86   S    
C24   C68   S    
C79   O15   A    
C81   H14   S    
C68   O40   A    
C17   C21   A    
Cr4   O24   S    
C57   N1    S    
C78   O42   A    
Cr5   O17   S    
C83   H16   S    
Cr12  O40   S    
C15   C19   A    
C50   C71   S    
C17   H21   S    
N7    H49   S    
C5    C9    A    
C96   O59   D    
C45   O33   A    
Cr4   O4    S    
C94   O55   D    
C65   O1    A    
C8    C96   S    
Cr8   O20   S    
C37   C61   A    
O58   H55   S    
Cr3   O43   S    
Cr1   O21   S    
C16   C20   A    
C7    C91   A    
Cr11  O35   S    
C33   C34   A    
C56   H12   S    
C87   H3    S    
Cr4   O20   S    
C38   C62   A    
Cr12  O16   S    
Cr1   O17   S    
C76   O8    A    
Cr6   O26   S    
C46   O30   A    
C15   H19   S    
Cr10  O10   S    
C90   N6    S    
C44   H8    S    
C60   N4    S    
C93   O53   D    
C42   C50   A    
C72   O48   A    
C24   C92   A    
C23   C91   A    
C93   O54   S    
C2    O26   A    
C35   H31   S    
C69   O45   A    
O60   H56   S    
Cr1   O1    S    
C19   C23   A    
C54   C58   A    
Cr11  O15   S    
C25   C30   A    
N7    H50   S    
Cr7   O7    S    
C73   O9    A    
C27   C32   A    
C18   C22   A    
C4    O28   A    
Cr5   O5    S    
C74   O6    A    
C28   C31   A    
C45   C81   S    
Cr2   O46   S    
C71   O47   A    
N2    H39   S    
C69   O49   A    
C45   O29   A    
C71   O51   A    
C6    C10   A    
C47   O31   A    
C58   N2    S    
C20   H24   S    
C66   O2    A    
C3    O23   A    
Cr10  O34   S    
C82   C85   D    
C39   C63   A    
C59   C63   A    
C40   C64   A    
Cr8   O28   S    
Cr3   O23   S    
C60   C64   A    
C21   C65   S    
Cr12  O12   S    
C42   H6    S    
C59   N3    S    
Cr9   O17   S    
C94   O56   S    
C3    C10   S    
C6    C90   A    
Cr10  O14   S    
C18   H22   S    
Cr7   O51   S    
C55   H11   S    
C43   C51   A    
C31   C76   S    
C62   C78   S    
C65   O37   A    
Cr8   O8    S    
C84   H15   S    
Cr5   O25   S    
C40   H36   S    
C31   C35   A    
Cr9   O9    S    
C95   O58   S    
C79   O43   A    
C68   O4    A    
Cr11  O39   S    
C80   O44   A    
C89   N5    S    
C16   H20   S    
C47   O35   A    
C67   O39   A    
N2    H40   S    
Cr9   O37   S    
C70   O46   A    
C1    O21   A    
C13   C17   A    
C43   H7    S    
C33   H29   S    
C40   C44   A    
C56   C60   A    
C1    O25   A    
C39   C43   A    
C26   C29   A    
C96   O60   S    
N1    H37   S    
C73   O5    A    
C27   C28   A    
N3    H42   S    
C76   O12   A    
C74   O10   A    
C41   H5    S    
C19   H23   S    
C82   H13   S    
C28   H28   S    
C4    C9    S    
Cr2   O42   S    
Cr9   O13   S    
Cr4   O48   S    
C72   O52   A    
C5    C89   A    
C52   C56   A    
C48   O36   A    
C95   O57   D    
Cr1   O45   S    
