data_mof_unit_49627.cif
_audit_creation_date              2012-12-11T15:29:44-0500
_audit_creation_method            fapswitch 2.2
_symmetry_space_group_name_H-M    P1
_symmetry_Int_Tables_number       1
_space_group_crystal_system       triclinic
_cell_length_a                    13.503499
_cell_length_b                    13.534859
_cell_length_c                    27.568894
_cell_angle_alpha                 90.476208
_cell_angle_beta                  89.369839
_cell_angle_gamma                 60.13782
_cell_volume                      4368.88205633

loop_
_atom_site_label
_atom_site_type_symbol
_atom_type_description
_atom_site_fract_x
_atom_site_fract_y
_atom_site_fract_z
_atom_type_partial_charge
C1    C     C_R   0.619636 0.101139 0.569909 0.537383
C2    C     C_1   0.634993 0.723709 0.660340 0.033584
C3    C     C_3   0.163817 0.075954 0.745210 0.409435
C4    C     C_R   0.597996 0.781509 0.568919 0.542315
C5    C     C_3   0.260245 0.032116 0.782909 -0.046721
C6    C     C_1   0.114691 0.191133 0.903520 -0.002252
C7    C     C_1   0.241049 0.131536 0.619436 0.009024
C8    C     C_3   0.093336 0.186751 0.774762 -0.112950
C9    C     C_3   0.190194 0.144585 0.811728 -0.045942
C10   C     C_3   0.150184 0.243587 0.745778 -0.209752
C11   C     C_3   0.218773 0.132466 0.715898 0.042537
C12   C     C_1   0.622700 0.743240 0.617711 0.023730
C13   C     C_3   0.247092 0.201313 0.783438 -0.098396
C14   C     C_3   0.315145 0.089974 0.753329 0.273103
C15   C     C_1   0.156283 0.164326 0.863243 -0.049433
C16   C     C_R   0.278948 0.120938 0.569894 0.537922
C17   C     C_1   0.225342 0.133333 0.662657 -0.009850
C18   C     C_3   0.676960 0.249039 0.737258 0.402790
C19   C     C_3   0.578374 0.285624 0.774742 -0.149434
C20   C     C_1   0.692032 0.206845 0.901661 -0.002269
C21   C     C_1   0.632510 0.133350 0.617994 0.028525
C22   C     C_3   0.757967 0.152364 0.770269 0.327898
C23   C     C_3   0.629499 0.604948 0.770307 -0.092665
C24   C     C_3   0.660346 0.187350 0.807576 -0.060323
C25   C     C_3   0.725396 0.071094 0.745392 0.350423
C26   C     C_3   0.644228 0.168030 0.712520 0.032550
C27   C     C_3   0.627336 0.104710 0.783119 -0.130821
C28   C     C_R   0.623544 0.100846 0.432083 0.599915
C29   C     C_3   0.545124 0.203070 0.749574 -0.196775
C30   C     C_1   0.673753 0.197130 0.859741 -0.038273
C31   C     C_1   0.638541 0.152743 0.660217 0.039990
C32   C     C_R   0.637953 0.731963 0.380021 -0.027316
C33   C     C_R   0.712564 0.758612 0.353782 0.234594
C34   C     C_3   0.668141 0.667035 0.806550 -0.056134
C35   C     C_R   0.712926 0.756965 0.303507 0.378766
C36   C     C_R   0.654764 0.711524 0.278600 -0.043847
C37   C     C_R   0.595018 0.668604 0.304817 -0.179154
C38   C     C_R   0.581062 0.683706 0.355294 0.217903
C39   C     C_R   0.563584 0.719598 0.199834 -0.099578
C40   C     C_R   0.601832 0.778443 0.429630 0.581982
C41   C     C_R   0.574450 0.689430 0.151023 0.330009
C42   C     C_R   0.769858 0.651922 0.150672 0.330933
C43   C     C_R   0.760914 0.675353 0.199994 -0.045391
C44   C     C_R   0.659193 0.704466 0.225401 -0.059033
C45   C     C_3   0.549848 0.721807 0.747796 0.284600
C46   C     C_R   0.681175 0.646230 0.127176 0.026242
C47   C     C_R   0.238488 0.134076 0.380815 -0.040827
C48   C     C_R   0.189943 0.069884 0.363579 -0.148158
C49   C     C_R   0.161665 0.074158 0.314711 0.403568
C50   C     C_R   0.188802 0.137049 0.282370 0.032277
C51   C     C_R   0.242111 0.196095 0.299336 -0.166104
C52   C     C_R   0.282350 0.118927 0.430170 0.560400
C53   C     C_R   0.259553 0.202013 0.348348 0.242384
C54   C     C_R   0.093548 0.270797 0.217543 -0.191295
C55   C     C_R   0.074192 0.298107 0.169121 0.189587
C56   C     C_3   0.645180 0.706839 0.712720 0.081946
C57   C     C_R   0.151105 0.097088 0.148977 0.321125
C58   C     C_R   0.179497 0.068732 0.198025 0.324442
C59   C     C_R   0.150155 0.157355 0.232123 -0.014419
C60   C     C_R   0.096377 0.211885 0.134705 -0.003169
C61   C     C_R   0.647782 0.142180 0.386758 -0.030661
C62   C     C_R   0.562976 0.244679 0.366804 0.385189
C63   C     C_R   0.567705 0.266062 0.317859 0.403770
C64   C     C_3   0.725109 0.592704 0.735551 0.290993
C65   C     C_R   0.661093 0.188610 0.288929 -0.093073
C66   C     C_R   0.753334 0.095225 0.310572 -0.119750
C67   C     C_3   0.585835 0.784036 0.784713 -0.089405
C68   C     C_R   0.747067 0.071717 0.359094 0.360133
C69   C     C_R   0.702887 0.106612 0.205057 -0.110483
C70   C     C_R   0.714954 0.117259 0.155492 -0.118987
C71   C     C_R   0.636334 0.320899 0.167108 -0.129545
C72   C     C_R   0.627717 0.309746 0.216697 -0.061033
C73   C     C_R   0.662554 0.202299 0.236172 0.062019
C74   C     C_R   0.683632 0.224207 0.136478 0.020552
C75   C     C_R   0.052321 0.233692 0.948589 0.544662
C76   C     C_3   0.765930 0.651351 0.771973 -0.120811
C77   C     C_R   0.712135 0.562129 0.946656 0.544281
C78   C     C_3   0.683395 0.767991 0.749139 -0.161101
C79   C     C_R   0.723055 0.224121 0.949176 0.542068
C80   C     C_R   0.046912 0.244361 0.086442 0.600519
C81   C     C_R   0.706989 0.575685 0.083165 0.584529
C82   C     C_R   0.719699 0.234158 0.087657 0.534326
C83   C     C_1   0.695951 0.610823 0.899608 0.000084
C84   C     C_3   0.932742 0.027991 0.803081 -0.042129
C85   C     C_3   0.885320 0.708432 0.384711 -0.025469
C86   C     C_3   0.863261 0.405508 0.736016 -0.035924
C87   C     C_3   0.403871 0.701063 0.364859 -0.041669
C88   C     C_3   0.114592 0.439525 0.156712 -0.038041
C89   C     C_1   0.682785 0.640917 0.858134 -0.052624
C90   C     C_3   0.191302 0.893285 0.202208 0.009873
C91   C     C_3   0.218710 0.383339 0.363982 -0.021338
C92   C     C_3   0.379402 0.725610 0.762213 -0.098633
C93   C     C_3   0.468063 0.020030 0.698472 -0.119763
Cr1   Cr    Cr6+3 0.417550 0.169090 0.500530 1.101897
Cr2   Cr    Cr6+3 0.669180 0.913420 0.499920 1.089641
Cr3   Cr    Cr6+3 0.413260 0.917540 0.499520 1.063431
Cr4   Cr    Cr6+3 0.909770 0.175810 0.018240 1.081683
Cr5   Cr    Cr6+3 0.913300 0.427650 0.016090 1.095733
Cr6   Cr    Cr6+3 0.657770 0.431010 0.016900 1.070032
F1    F     F_    0.701242 0.322334 0.712070 -0.612341
F2    F     F_    0.835895 0.977280 0.377978 -0.567079
F3    F     F_    0.120139 0.011986 0.725177 -0.603778
F4    F     F_    0.800406 0.961284 0.729333 -0.649818
F5    F     F_    0.482971 0.695172 0.128372 -0.595172
F6    F     F_    0.766465 0.805020 0.279546 -0.630702
F7    F     F_    0.868494 0.626197 0.126990 -0.606597
F8    F     F_    0.105502 0.020092 0.299577 -0.630010
F9    F     F_    0.180987 0.013599 0.114874 -0.613348
F10   F     F_    0.472245 0.321661 0.393917 -0.570270
F11   F     F_    0.477137 0.358044 0.298357 -0.614069
H1    H     H_    0.855378 0.621742 0.782549 0.128999
H2    H     H_    0.557050 0.625570 0.285927 0.136277
H3    H     H_    0.172852 0.017705 0.388035 0.157315
H4    H     H_    0.069308 0.339348 0.243893 0.133896
H5    H     H_    0.706798 0.833491 0.740253 0.191501
H6    H     H_    0.265379 0.243222 0.274495 0.147670
H7    H     H_    0.728314 0.023093 0.219288 0.167933
H8    H     H_    0.752382 0.041826 0.132334 0.145060
H9    H     H_    0.599137 0.384312 0.239887 0.169235
H10   H     H_    0.528018 0.861680 0.806301 0.158790
H11   H     H_    0.614291 0.404009 0.153317 0.153460
H12   H     H_    0.282903 0.252141 0.799426 0.128215
H13   H     H_    0.828811 0.037837 0.289395 0.193497
H14   H     H_    0.609450 0.537054 0.779564 0.122097
H15   H     H_    0.305572 0.946429 0.799035 0.120512
H16   H     H_    0.962872 0.957376 0.775957 0.223080
H17   H     H_    0.885180 0.014945 0.833212 0.100913
H18   H     H_    0.009403 0.024903 0.818901 0.141300
H19   H     H_    0.931104 0.668389 0.349936 0.125920
H20   H     H_    0.882117 0.643555 0.408245 0.069628
H21   H     H_    0.935287 0.741027 0.403906 0.184093
H22   H     H_    0.811847 0.385371 0.761636 0.176714
H23   H     H_    0.108314 0.329858 0.729973 0.128289
H24   H     H_    0.922087 0.424039 0.756903 0.069245
H25   H     H_    0.914536 0.329295 0.712553 0.202987
H26   H     H_    0.397495 0.660491 0.330750 0.139635
H27   H     H_    0.368418 0.794345 0.359996 0.124522
H28   H     H_    0.349750 0.690765 0.392624 0.164794
H29   H     H_    0.188274 0.381208 0.132820 0.115029
H30   H     H_    0.143784 0.439750 0.194272 0.098180
H31   H     H_    0.080522 0.526771 0.142604 0.204939
H32   H     H_    0.216299 0.853668 0.165464 0.209623
H33   H     H_    0.096427 0.944384 0.206122 0.144442
H34   H     H_    0.002720 0.222588 0.785838 0.154452
H35   H     H_    0.221168 0.822836 0.228467 0.145299
H36   H     H_    0.143972 0.397561 0.386792 0.081247
H37   H     H_    0.191192 0.414150 0.326565 0.100456
H38   H     H_    0.252632 0.435700 0.379974 0.210966
H39   H     H_    0.389389 0.739144 0.801359 0.090005
H40   H     H_    0.409438 0.634171 0.754497 0.132048
H41   H     H_    0.286907 0.774375 0.754313 0.188759
H42   H     H_    0.433196 0.102064 0.679111 0.109216
H43   H     H_    0.443447 0.961276 0.680975 0.160978
H44   H     H_    0.562174 0.979482 0.695685 0.150026
H45   H     H_    0.518184 0.374461 0.786880 0.124360
H46   H     H_    0.456268 0.226496 0.740657 0.158481
H47   H     H_    0.607414 0.044662 0.802232 0.164488
H48   H     H_    0.482343 0.748053 0.218266 0.173495
H49   H     H_    0.836369 0.663371 0.218377 0.205038
O1    O     O_R   0.301780 0.195490 0.553940 -0.511239
O2    O     O_R   0.636050 0.541380 0.962520 -0.502330
O3    O     O_R   0.666480 0.323610 0.968170 -0.496342
O4    O     O_R   0.522450 0.158840 0.550250 -0.504227
O5    O     O_R   0.817280 0.156800 0.072180 -0.501181
O6    O     O_R   0.005110 0.187160 0.067410 -0.455784
O7    O     O_R   0.026450 0.340060 0.069950 -0.459554
O8    O     O_R   0.808300 0.527240 0.065170 -0.430895
O9    O     O_R   0.634070 0.548770 0.069460 -0.457930
O10   O     O_R   0.664650 0.330470 0.067300 -0.502246
O11   O     O_3   0.826940 0.344820 0.017080 -0.286154
O12   O     O_R   0.658840 0.818280 0.449970 -0.468737
O13   O     O_R   0.694460 0.003360 0.553820 -0.494525
O14   O     O_R   0.657750 0.819520 0.549120 -0.504084
O15   O     O_R   0.501990 0.803120 0.552700 -0.489413
O16   O     O_R   0.318230 0.023430 0.549370 -0.487924
O17   O     O_R   0.302950 0.194150 0.446980 -0.444873
O18   O     O_R   0.523540 0.157600 0.451100 -0.433585
O19   O     O_R   0.695630 0.002030 0.446860 -0.423230
O20   O     O_3   0.868003 0.133919 0.780520 -0.551333
O21   O     O_3   0.775008 0.800591 0.376474 -0.452834
O22   O     O_3   0.794220 0.496794 0.706089 -0.518150
O23   O     O_R   0.503160 0.801780 0.445740 -0.473360
O24   O     O_3   0.517470 0.646538 0.381278 -0.522123
O25   O     O_3   0.027315 0.410821 0.156113 -0.493365
O26   O     O_3   0.246104 0.956677 0.212394 -0.528312
O27   O     O_3   0.305711 0.267831 0.363606 -0.472855
O28   O     O_3   0.436911 0.764637 0.731873 -0.541977
O29   O     O_3   0.435086 0.038341 0.747741 -0.594504
O30   O     O_R   0.319320 0.022190 0.450230 -0.517375
O31   O     O_3   0.499990 0.000010 0.499990 -0.291848
O32   O     O_R   0.819250 0.149410 0.965240 -0.506652
O33   O     O_R   0.006940 0.180310 0.968270 -0.490206
O34   O     O_R   0.028420 0.332670 0.963010 -0.511338
O35   O     O_R   0.810130 0.520390 0.966030 -0.500013

loop_
_geom_bond_atom_site_label_1
_geom_bond_atom_site_label_2
_ccdc_geom_bond_type
C84   H18   S    
C66   C68   A    
C63   C65   A    
C1    C21   S    
C23   C45   S    
Cr3   O16   S    
C16   O1    A    
C19   H45   S    
C80   O6    A    
C35   C36   A    
C18   C26   S    
C24   C27   S    
C64   C76   S    
C53   O27   S    
C2    C12   T    
C91   H37   S    
C92   O28   S    
C56   C78   S    
C6    C75   S    
C39   C41   A    
Cr6   O11   S    
C20   C30   T    
C67   H10   S    
C21   C31   T    
C62   C63   A    
Cr3   O15   S    
C50   C59   S    
C36   C37   A    
C76   C78   S    
C90   H35   S    
C43   H49   S    
C85   O21   S    
C87   O24   S    
C11   C14   S    
C88   O25   S    
C27   C29   S    
C77   C83   S    
Cr6   O3    S    
C65   C73   S    
Cr5   O35   S    
Cr1   O17   S    
C18   C19   S    
C42   C46   A    
Cr3   O31   S    
C9    C13   S    
C70   C74   A    
C88   H30   S    
C37   H2    S    
Cr2   O31   S    
C85   H19   S    
C6    C15   T    
Cr6   O2    S    
C86   H24   S    
Cr4   O33   S    
C60   C80   S    
C78   H5    S    
C45   C56   S    
C8    C9    S    
C7    C17   T    
C22   C25   S    
C45   C67   S    
C86   O22   S    
C55   O25   S    
C56   C64   S    
C69   C73   A    
C32   C38   A    
C4    C12   S    
C28   O18   A    
C52   O17   A    
Cr5   O8    S    
C47   C53   A    
C28   C61   S    
C23   C34   S    
C84   H17   S    
C82   O10   A    
C26   C31   S    
C4    O15   A    
C13   C14   S    
C58   O26   S    
C77   O2    A    
C69   C70   A    
C67   C78   S    
C18   F1    S    
C87   H27   S    
C10   H23   S    
C80   O7    A    
C91   H38   S    
C40   O23   A    
C54   C59   A    
C84   H16   S    
C83   C89   T    
C22   O20   S    
C68   F2    S    
C49   F8    S    
C3    C8    S    
C45   O28   S    
C57   C60   A    
C25   C26   S    
Cr4   O11   S    
Cr5   O34   S    
C91   H36   S    
C51   C53   A    
Cr1   O18   S    
Cr3   O30   S    
C84   O20   S    
C77   O35   A    
Cr1   O31   S    
C88   H29   S    
C5    C9    S    
C37   C38   A    
C35   F6    S    
C85   H20   S    
C46   C81   S    
C14   O29   S    
Cr2   O19   S    
C47   C48   A    
C41   C46   A    
Cr4   O5    S    
C92   H41   S    
C50   C51   A    
C81   O8    A    
C8    H34   S    
Cr5   O7    S    
C42   F7    S    
C5    C14   S    
C90   H32   S    
C29   H46   S    
C64   O22   S    
C75   O34   A    
C16   O16   A    
C23   C64   S    
C91   O27   S    
C49   C50   A    
C4    O14   A    
C43   C44   A    
C92   H40   S    
C22   C24   S    
C36   C44   S    
C24   C30   S    
C27   H47   S    
C42   C43   A    
C79   O3    A    
C5    H15   S    
C19   C29   S    
C88   H31   S    
C3    F3    S    
Cr6   O9    S    
Cr2   O13   S    
C54   C55   A    
C11   C17   S    
Cr1   O1    S    
C20   C79   S    
C18   C22   S    
C87   H26   S    
C71   H11   S    
C7    C16   S    
C90   H33   S    
Cr3   O23   S    
C72   C73   A    
C3    C5    S    
C10   C13   S    
C93   H44   S    
C34   C67   S    
C71   C74   A    
C39   C44   A    
Cr6   O10   S    
C90   O26   S    
C25   C27   S    
C1    O13   A    
C51   H6    S    
C41   F5    S    
C32   C33   A    
C63   F11   S    
C93   H43   S    
C75   O33   A    
C58   C59   A    
C34   C89   S    
C71   C72   A    
C39   H48   S    
C2    C56   S    
C85   H21   S    
C13   H12   S    
C61   C68   A    
C86   H22   S    
C57   C58   A    
C62   F10   S    
C82   O5    A    
C70   H8    S    
C76   H1    S    
Cr4   O6    S    
C54   H4    S    
C72   H9    S    
C69   H7    S    
C33   C35   A    
C81   O9    A    
C19   C24   S    
C52   O30   A    
C32   C40   S    
Cr2   O14   S    
C61   C62   A    
C25   F4    S    
C3    C11   S    
C10   C11   S    
C38   O24   S    
Cr5   O11   S    
C93   O29   S    
C86   H25   S    
Cr4   O32   S    
C57   F9    S    
C1    O4    A    
C26   C29   S    
C8    C10   S    
C65   C66   A    
C48   C49   A    
C47   C52   S    
C92   H39   S    
C66   H13   S    
C93   H42   S    
C79   O32   A    
C87   H28   S    
Cr2   O12   S    
C55   C60   A    
C23   H14   S    
C28   O19   A    
Cr1   O4    S    
C40   O12   A    
C74   C82   S    
C9    C15   S    
C34   C76   S    
C48   H3    S    
C33   O21   S    
