data_mof_unit_7149.cif
_audit_creation_date              2012-12-10T18:23:20-0500
_audit_creation_method            fapswitch 2.2
_symmetry_space_group_name_H-M    P1
_symmetry_Int_Tables_number       1
_space_group_crystal_system       triclinic
_cell_length_a                    27.812382
_cell_length_b                    10.626347
_cell_length_c                    9.408589
_cell_angle_alpha                 89.512565
_cell_angle_beta                  90.068928
_cell_angle_gamma                 89.767435
_cell_volume                      2780.52657539

loop_
_atom_site_label
_atom_site_type_symbol
_atom_type_description
_atom_site_fract_x
_atom_site_fract_y
_atom_site_fract_z
_atom_type_partial_charge
C1    C     C_R   0.500264 0.259551 0.500573 0.834449
C2    C     C_R   0.499924 0.740471 0.499448 0.815165
C3    C     C_R   0.101906 0.498997 0.499870 -0.043578
C4    C     C_R   0.898009 0.500846 0.500726 -0.043266
C5    C     C_R   0.127552 0.389217 0.464131 -0.021834
C6    C     C_R   0.872351 0.613251 0.524386 -0.023029
C7    C     C_R   0.102428 0.280565 0.428384 -0.142895
C8    C     C_R   0.897461 0.724764 0.546813 -0.142484
C9    C     C_R   0.127554 0.608315 0.535406 -0.021338
C10   C     C_R   0.872371 0.388909 0.477233 -0.021719
C11   C     C_R   0.354574 0.498846 0.499825 -0.024228
C12   C     C_R   0.645403 0.501319 0.500235 -0.029013
C13   C     C_R   0.974412 0.386584 0.473136 0.043210
C14   C     C_R   0.025507 0.612126 0.532755 0.042799
C15   C     C_R   0.974403 0.613718 0.527732 0.043255
C16   C     C_R   0.025505 0.387256 0.467635 0.042834
C17   C     C_R   0.949159 0.500380 0.500537 0.068254
C18   C     C_R   0.050755 0.499462 0.500083 0.068393
C19   C     C_R   0.947411 0.275422 0.453029 -0.205111
C20   C     C_R   0.052526 0.719518 0.570396 -0.205663
C21   C     C_R   0.897493 0.276923 0.454710 -0.142513
C22   C     C_R   0.102444 0.717437 0.571307 -0.143000
C23   C     C_R   0.407514 0.499712 0.499926 0.825253
C24   C     C_R   0.592478 0.500387 0.500081 0.800554
C25   C     C_R   0.052509 0.279388 0.429712 -0.205536
C26   C     C_R   0.947382 0.725357 0.548129 -0.204835
C27   C     C_3   0.501637 0.039455 0.636125 -0.171690
C28   C     C_3   0.498755 0.960597 0.363940 -0.191398
C29   C     C_3   0.539877 0.957444 0.562630 0.032825
C30   C     C_3   0.460506 0.042651 0.437527 0.035721
C31   C     C_3   0.500034 0.877189 0.498487 -0.078387
C32   C     C_3   0.500334 0.122862 0.501656 -0.080868
C33   C     C_3   0.461238 0.957628 0.571002 -0.198889
C34   C     C_3   0.539130 0.042536 0.429040 -0.222547
C35   C     C_3   0.505838 0.612616 0.049342 -0.012216
C36   C     C_3   0.494165 0.387383 0.950653 -0.026443
C37   C     C_3   0.465660 0.569940 0.948489 -0.034515
C38   C     C_3   0.534338 0.430055 0.051512 -0.056024
C39   C     C_3   0.540218 0.542622 0.949300 -0.016322
C40   C     C_3   0.459782 0.457361 0.050707 -0.032823
C41   C     C_R   0.178034 0.390768 0.464581 0.537534
C42   C     C_R   0.821871 0.611687 0.523901 0.536940
C43   C     C_R   0.178028 0.605840 0.534677 0.536293
C44   C     C_R   0.821897 0.391412 0.477865 0.535844
C45   C     C_R   0.278920 0.505809 0.628147 -0.096196
C46   C     C_R   0.721017 0.517803 0.627923 -0.093391
C47   C     C_R   0.329044 0.506231 0.628390 -0.199694
C48   C     C_R   0.670885 0.517139 0.627955 -0.197560
C49   C     C_R   0.329029 0.490440 0.371225 -0.220195
C50   C     C_R   0.670975 0.486439 0.372631 -0.208093
C51   C     C_R   0.278900 0.489683 0.371349 -0.101206
C52   C     C_R   0.721102 0.486619 0.373026 -0.094842
C53   C     C_R   0.253694 0.497640 0.499709 0.354722
C54   C     C_R   0.746257 0.502240 0.500587 0.356164
Cu1   Cu    Cu3+1 0.500010 0.499990 0.643150 0.966115
Cu2   Cu    Cu3+1 0.499990 0.500010 0.356850 0.952162
H1    H     H_    0.347709 0.484264 0.270586 0.155962
H2    H     H_    0.652312 0.474000 0.272663 0.153057
H3    H     H_    0.503216 0.073708 0.747188 0.154888
H4    H     H_    0.497260 0.926218 0.252916 0.168693
H5    H     H_    0.429272 0.920298 0.627703 0.158176
H6    H     H_    0.571013 0.080103 0.372116 0.171164
H7    H     H_    0.436817 0.628824 0.900076 0.121846
H8    H     H_    0.563186 0.371184 0.099923 0.121524
H9    H     H_    0.510852 0.707589 0.095115 0.129274
H10   H     H_    0.489163 0.292417 0.904849 0.129598
H11   H     H_    0.574064 0.578666 0.902008 0.131079
H12   H     H_    0.425980 0.421039 0.098067 0.129746
H13   H     H_    0.259576 0.483547 0.271680 0.144348
H14   H     H_    0.740468 0.474795 0.274227 0.140325
H15   H     H_    0.121297 0.195313 0.398840 0.189824
H16   H     H_    0.878579 0.812822 0.563311 0.189546
H17   H     H_    0.652149 0.529327 0.727765 0.148225
H18   H     H_    0.347731 0.512726 0.729105 0.154599
H19   H     H_    0.740316 0.529810 0.726880 0.139681
H20   H     H_    0.259610 0.511670 0.727760 0.142265
H21   H     H_    0.878625 0.189202 0.438368 0.189513
H22   H     H_    0.121324 0.802355 0.600683 0.189833
H23   H     H_    0.963621 0.184411 0.437890 0.137166
H24   H     H_    0.036336 0.806945 0.602310 0.139325
H25   H     H_    0.036298 0.192268 0.397893 0.139321
H26   H     H_    0.963573 0.816069 0.563206 0.137124
N1    N     N_R   0.202134 0.498073 0.499618 -0.469386
N2    N     N_R   0.797798 0.501782 0.500852 -0.471204
N3    N     N_3   0.500040 0.499970 0.858290 -0.161360
N4    N     N_3   0.499960 0.500030 0.141710 -0.164656
O1    O     O_R   0.500020 0.316850 0.620870 -0.585035
O2    O     O_R   0.499980 0.683150 0.379130 -0.592568
O3    O     O_R   0.500000 0.316860 0.379090 -0.580176
O4    O     O_R   0.500000 0.683140 0.620910 -0.551607
O5    O     O_R   0.430270 0.500020 0.620880 -0.586647
O6    O     O_R   0.569730 0.499980 0.379120 -0.588751
O7    O     O_R   0.430250 0.500030 0.379090 -0.585943
O8    O     O_R   0.569750 0.499970 0.620910 -0.582083
O9    O     O_2   0.202869 0.285666 0.431434 -0.527748
O10   O     O_2   0.797009 0.719198 0.545332 -0.518216
O11   O     O_2   0.797060 0.284338 0.456553 -0.523166
O12   O     O_2   0.202854 0.710525 0.567631 -0.528596
C55   C     C_2   0.584136 0.906472 0.633879 0.826325
O13   O     O_2   0.623791 0.930674 0.585272 -0.572596
O14   O     O_R   0.579706 0.831290 0.755635 -0.766375
H27   H     H_    0.611961 0.801298 0.793435 0.326518
C56   C     C_2   0.415815 0.094485 0.369654 0.835694
O15   O     O_2   0.406842 0.071184 0.245484 -0.595831
O16   O     O_R   0.384784 0.169925 0.449041 -0.763896
H28   H     H_    0.356031 0.200353 0.391816 0.346057

loop_
_geom_bond_atom_site_label_1
_geom_bond_atom_site_label_2
_ccdc_geom_bond_type
C1    O1    A    
Cu1   Cu2   S    
O14   H27   S    
C27   C29   S    
C43   N1    A    
C14   C18   A    
C11   C47   A    
C43   O12   S    
C12   C48   A    
C54   N2    S    
C49   H1    S    
C27   C33   S    
C38   N4    S    
C45   H20   S    
C11   C49   A    
C37   N3    S    
C35   C37   S    
C37   C40   S    
C7    H15   S    
C38   C39   S    
C35   N4    S    
C36   H10   S    
C9    C22   A    
Cu2   O2    S    
C35   H9    S    
C41   N1    A    
C34   H6    S    
C8    C26   A    
C3    C18   A    
C40   N4    S    
C2    O4    A    
Cu1   O5    S    
C49   C51   A    
C30   C56   S    
C50   C52   A    
C31   C33   S    
C2    O2    A    
C45   C47   A    
C45   C53   A    
C26   H26   S    
C25   H25   S    
Cu1   O8    S    
C24   O6    A    
C46   H19   S    
C37   H7    S    
C52   C54   A    
C38   H8    S    
C28   H4    S    
C10   C21   A    
Cu2   O7    S    
C46   C48   A    
C9    C43   A    
C8    H16   S    
C29   C55   S    
C10   C44   A    
C50   H2    S    
C14   C20   A    
C36   C40   S    
C42   N2    A    
C22   H22   S    
C4    C6    A    
C5    C7    A    
C20   H24   S    
C15   C26   A    
C6    C8    A    
C3    C5    A    
C29   C34   S    
C1    C32   S    
C23   O7    A    
C2    C31   S    
C51   C53   A    
C32   C34   S    
Cu1   N3    S    
C35   C39   S    
C3    C9    A    
C24   O8    A    
C44   O11   S    
Cu2   N4    S    
C55   O13   D    
C46   C54   A    
C56   O16   S    
C19   H23   S    
C4    C17   A    
C16   C18   A    
Cu2   O3    S    
C55   O14   S    
C20   C22   A    
C6    C42   A    
C42   O10   S    
C39   N3    S    
C4    C10   A    
C16   C25   A    
C15   C17   A    
C5    C41   A    
C1    O3    A    
C30   C33   S    
C19   C21   A    
C27   C32   S    
C39   H11   S    
C48   H17   S    
C28   C31   S    
C47   H18   S    
C44   N2    A    
C12   C50   A    
C36   N3    S    
Cu1   O4    S    
O16   H28   S    
C12   C24   S    
C7    C25   A    
C13   C17   A    
C53   N1    S    
C36   C38   S    
C28   C30   S    
C29   C31   S    
C27   H3    S    
C30   C32   S    
C41   O9    S    
C11   C23   S    
C23   O5    A    
Cu1   O1    S    
C52   H14   S    
C28   C34   S    
Cu2   O6    S    
C33   H5    S    
C40   H12   S    
C13   C16   A    
C21   H21   S    
C56   O15   D    
C13   C19   A    
C14   C15   A    
C51   H13   S    
