data_mof_unit_34427.cif
_audit_creation_date              2013-03-05T16:13:43-0500
_audit_creation_method            fapswitch 2.2
_symmetry_space_group_name_H-M    P1
_symmetry_Int_Tables_number       1
_space_group_crystal_system       triclinic
_cell_length_a                    10.646939
_cell_length_b                    10.026709
_cell_length_c                    8.908111
_cell_angle_alpha                 89.992292
_cell_angle_beta                  90.443328
_cell_angle_gamma                 89.994927
_cell_volume                      950.945856254

loop_
_atom_site_label
_atom_site_type_symbol
_atom_site_description
_atom_site_fract_x
_atom_site_fract_y
_atom_site_fract_z
_atom_type_partial_charge
O1    O     O_R   0.316770 0.614620 0.499990 -0.581210
O2    O     O_R   0.683230 0.385380 0.500010 -0.581080
O3    O     O_R   0.683230 0.614620 0.500010 -0.597405
O4    O     O_R   0.316770 0.385380 0.499990 -0.597354
C1    C     C_R   0.260922 0.500124 0.498525 0.982656
C2    C     C_R   0.739077 0.499874 0.501442 0.981692
O5    O     O_R   0.500010 0.614640 0.285340 -0.589930
O6    O     O_R   0.499990 0.385360 0.714660 -0.589942
O7    O     O_R   0.499990 0.614640 0.714660 -0.577183
O8    O     O_R   0.500010 0.385360 0.285340 -0.577167
C3    C     C_R   0.500604 0.500015 0.219243 0.961570
C4    C     C_R   0.499443 0.499985 0.780757 0.961950
Zn1   Zn    Zn3+2 0.500000 0.653120 0.500000 1.123806
Zn2   Zn    Zn3+2 0.500000 0.346880 0.500000 1.123861
C5    C     C_1   0.500282 0.500022 0.065510 0.058452
C6    C     C_1   0.499794 0.499977 0.934491 0.058644
C7    C     C_R   0.063329 0.434468 0.381947 0.200238
C8    C     C_R   0.936667 0.565618 0.617894 0.200394
C9    C     C_R   0.933362 0.432964 0.385297 0.204031
C10   C     C_R   0.066627 0.567071 0.614605 0.203955
C11   C     C_R   0.871815 0.498941 0.502402 -0.317480
C12   C     C_R   0.128183 0.501057 0.497524 -0.317553
C13   C     C_R   0.517071 0.071011 0.629710 0.217498
C14   C     C_R   0.482904 0.928988 0.370294 0.217422
C15   C     C_R   0.483922 0.070889 0.370095 0.223044
C16   C     C_R   0.516030 0.929112 0.629913 0.223019
N1    N     N_R   0.500000 0.857200 0.500000 -0.216421
N2    N     N_R   0.500000 0.142800 0.500000 -0.216392
N3    N     N_R   0.128743 0.375338 0.257945 0.251083
O9    O     O_R   0.100630 0.255594 0.212670 -0.219844
O10   O     O_R   0.210252 0.444775 0.183041 -0.339606
N4    N     N_R   0.871238 0.624914 0.741756 0.250986
O11   O     O_R   0.898625 0.745162 0.785978 -0.220139
O12   O     O_R   0.790111 0.555440 0.817183 -0.339231
N5    N     N_R   0.863545 0.373491 0.264374 0.247339
O13   O     O_R   0.813726 0.448555 0.160779 -0.319009
O14   O     O_R   0.837937 0.246674 0.267148 -0.250769
N6    N     N_R   0.136408 0.626623 0.735511 0.247588
O15   O     O_R   0.187438 0.551524 0.838243 -0.320263
O16   O     O_R   0.160989 0.753683 0.733322 -0.250071
N7    N     N_R   0.535876 0.137801 0.768856 0.258913
O17   O     O_R   0.442889 0.148051 0.861919 -0.248571
O18   O     O_R   0.649215 0.167158 0.813285 -0.259592
N8    N     N_R   0.464006 0.862197 0.231166 0.258921
O19   O     O_R   0.556918 0.851975 0.137996 -0.248580
O20   O     O_R   0.350640 0.832797 0.186869 -0.259636
N9    N     N_R   0.470487 0.137404 0.229967 0.258994
O21   O     O_R   0.358845 0.157873 0.174504 -0.238500
O22   O     O_R   0.568255 0.151332 0.144727 -0.231892
N10   N     N_R   0.529298 0.862605 0.770066 0.258960
O23   O     O_R   0.640870 0.842272 0.825794 -0.238209
O24   O     O_R   0.431408 0.848606 0.855094 -0.231988

loop_
_geom_bond_atom_site_label_1
_geom_bond_atom_site_label_2
_geom_bond_distance
_ccdc_geom_bond_type
O1    Zn1   1.988699 S    
N10   O24   1.300724 A    
N3    O9    1.300823 A    
C8    C11   1.404086 A    
C7    N3    1.438319 S    
N7    O17   1.300265 A    
C15   N9    1.421424 S    
C7    C12   1.404221 A    
O3    Zn1   1.988631 S    
C14   N1    1.372144 A    
O6    C4    1.291460 A    
O3    C2    1.295055 A    
N4    O11   1.300891 A    
N10   O23   1.299965 A    
N9    O22   1.300710 A    
C9    N5    1.434000 S    
C13   N2    1.372141 A    
C14   C15   1.422838 A    
C15   N2    1.373136 A    
O5    C3    1.291464 A    
N7    O18   1.300830 A    
C16   N1    1.373139 A    
O2    C2    1.292912 A    
O2    Zn2   1.988698 S    
N6    O16   1.300789 A    
C10   C12   1.402184 A    
C8    C10   1.384291 A    
C16   N10   1.421424 S    
O4    Zn2   1.988632 S    
N6    O15   1.300663 A    
C14   N8    1.421758 S    
O7    C4    1.291591 A    
O1    C1    1.292932 A    
C8    N4    1.438117 S    
O8    C3    1.291591 A    
C7    C9    1.384393 A    
C5    C6    1.167110 T    
C4    C6    1.369449 S    
O5    Zn1   1.950803 S    
C10   N6    1.434026 S    
N8    O19   1.300252 A    
N5    O14   1.300760 A    
N3    O10   1.300773 A    
O8    Zn2   1.950701 S    
C13   C16   1.422825 A    
O7    Zn1   1.950701 S    
Zn1   N1    2.046251 S    
O6    Zn2   1.950803 S    
Zn2   N2    2.046251 S    
N4    O12   1.300679 A    
C2    C11   1.413243 S    
C3    C5    1.369447 S    
C1    C12   1.413258 S    
N9    O21   1.299977 A    
N8    O20   1.300831 A    
O4    C1    1.295047 A    
C9    C11   1.402121 A    
N5    O13   1.300618 A    
C13   N7    1.421757 S    
