data_mof_unit_51072.cif
_audit_creation_date              2012-12-11T15:28:43-0500
_audit_creation_method            fapswitch 2.2
_symmetry_space_group_name_H-M    P1
_symmetry_Int_Tables_number       1
_space_group_crystal_system       triclinic
_cell_length_a                    6.953044
_cell_length_b                    19.571947
_cell_length_c                    23.508507
_cell_angle_alpha                 96.351384
_cell_angle_beta                  91.05857
_cell_angle_gamma                 88.795288
_cell_volume                      3178.38744167

loop_
_atom_site_label
_atom_site_type_symbol
_atom_type_description
_atom_site_fract_x
_atom_site_fract_y
_atom_site_fract_z
_atom_type_partial_charge
O1    O     O_R   0.617180 0.809390 0.808140 -0.521806
O2    O     O_R   0.382820 0.190610 0.191860 -0.521805
O3    O     O_R   0.293300 0.672410 0.795490 -0.535945
O4    O     O_R   0.706700 0.327590 0.204510 -0.535945
O5    O     O_R   0.117220 0.690610 0.691850 -0.520659
O6    O     O_R   0.882780 0.309390 0.308150 -0.520661
C1    C     C_R   0.464738 0.648494 0.806195 0.725093
C2    C     C_R   0.535262 0.351506 0.193805 0.725091
O7    O     O_R   0.287840 0.807750 0.814460 -0.524110
O8    O     O_R   0.712160 0.192250 0.185540 -0.524110
O9    O     O_R   0.111720 0.826910 0.710960 -0.534760
O10   O     O_R   0.888280 0.173090 0.289040 -0.534765
C3    C     C_R   0.456547 0.830739 0.833200 0.718116
C4    C     C_R   0.543453 0.169261 0.166800 0.718120
O11   O     O_R   0.622680 0.673080 0.789040 -0.536314
O12   O     O_R   0.377320 0.326920 0.210960 -0.536315
O13   O     O_3   0.448820 0.756130 0.716020 -0.361093
O14   O     O_3   0.551180 0.243870 0.283980 -0.361094
V1    V     V_3+5 0.176220 0.748860 0.756300 1.406535
V2    V     V_3+5 0.823780 0.251140 0.243700 1.406535
O15   O     O_R   0.781670 0.827580 0.704500 -0.537943
O16   O     O_R   0.218330 0.172420 0.295500 -0.537937
C5    C     C_R   0.948453 0.851278 0.693590 0.714814
C6    C     C_R   0.051547 0.148724 0.306411 0.714819
O17   O     O_R   0.787130 0.692240 0.685530 -0.525519
O18   O     O_R   0.212870 0.307760 0.314470 -0.525521
C7    C     C_R   0.956141 0.669248 0.666777 0.718290
C8    C     C_R   0.043859 0.330752 0.333223 0.718291
V3    V     V_3+5 0.675510 0.751130 0.743690 1.408525
V4    V     V_3+5 0.324490 0.248870 0.256310 1.408536
O19   O     O_3   0.952780 0.743870 0.783980 -0.359590
O20   O     O_3   0.047220 0.256130 0.216020 -0.359591
C9    C     C_1   0.966738 0.617210 0.614719 -0.217966
C10   C     C_1   0.033262 0.382789 0.385281 -0.217964
C11   C     C_1   0.978288 0.573694 0.571906 -0.001239
C12   C     C_1   0.021712 0.426306 0.428094 -0.001239
C13   C     C_1   0.993453 0.521870 0.521310 -0.002886
C14   C     C_1   0.006547 0.478129 0.478690 -0.002886
C15   C     C_R   0.948600 0.912501 0.661791 -0.054266
C16   C     C_R   0.051396 0.087504 0.338214 -0.054246
C17   C     C_R   0.870634 0.033527 0.662293 -0.167655
C18   C     C_R   0.129274 0.966471 0.337707 -0.167642
C19   C     C_R   0.869173 0.973549 0.688738 -0.207526
C20   C     C_R   0.130723 0.026444 0.311256 -0.207533
C21   C     C_R   0.022047 0.910933 0.605545 0.089736
C22   C     C_R   0.978033 0.089086 0.394472 0.089778
C23   C     C_R   0.985821 0.968973 0.573883 0.077304
C24   C     C_R   0.014251 0.031043 0.426133 0.077284
C25   C     C_R   0.929905 0.031969 0.605602 0.112459
C26   C     C_R   0.070101 0.968040 0.394408 0.112454
C27   C     C_R   0.002991 0.968325 0.512817 0.061232
C28   C     C_R   0.997112 0.031691 0.487200 0.061242
C29   C     C_R   0.986218 0.093418 0.523957 -0.200818
C30   C     C_R   0.013885 0.906597 0.476064 -0.200824
C31   C     C_R   0.939267 0.093501 0.581068 -0.194764
C32   C     C_R   0.060769 0.906510 0.418947 -0.194751
H1    H     H_    0.914687 0.142361 0.606678 0.125517
H2    H     H_    0.085315 0.857648 0.393337 0.125513
H3    H     H_    0.184765 0.024416 0.268137 0.119014
H4    H     H_    0.815051 0.975566 0.731847 0.119026
H5    H     H_    0.821353 0.081202 0.685910 0.121684
H6    H     H_    0.178482 0.918789 0.314084 0.121679
H7    H     H_    0.011778 0.142606 0.509199 0.149114
H8    H     H_    0.988358 0.857409 0.490828 0.149110
C33   C     C_R   0.485064 0.586785 0.837345 -0.099710
C34   C     C_R   0.514936 0.413215 0.162655 -0.099709
C35   C     C_R   0.597570 0.467971 0.834595 0.172335
C36   C     C_R   0.402430 0.532029 0.165405 0.172334
C37   C     C_R   0.576083 0.528849 0.809019 -0.205343
C38   C     C_R   0.423917 0.471151 0.190981 -0.205343
C39   C     C_R   0.423914 0.585494 0.894436 0.084354
C40   C     C_R   0.576086 0.414506 0.105564 0.084354
C41   C     C_R   0.485350 0.529282 0.925357 0.039609
C42   C     C_R   0.514650 0.470718 0.074643 0.039609
C43   C     C_R   0.549576 0.467638 0.892855 0.094772
C44   C     C_R   0.450424 0.532362 0.107145 0.094772
C45   C     C_R   0.485680 0.530990 0.986786 0.075458
C46   C     C_R   0.514320 0.469010 0.013214 0.075458
C47   C     C_R   0.528924 0.406972 0.977190 -0.208160
C48   C     C_R   0.471076 0.593028 0.022810 -0.208160
C49   C     C_R   0.559798 0.406578 0.919029 -0.192510
C50   C     C_R   0.440202 0.593422 0.080971 -0.192510
H9    H     H_    0.587965 0.357362 0.894599 0.139343
H10   H     H_    0.412035 0.642638 0.105401 0.139342
H11   H     H_    0.378493 0.469761 0.234725 0.121648
H12   H     H_    0.621507 0.530239 0.765275 0.121648
H13   H     H_    0.519921 0.357738 0.993457 0.148728
H14   H     H_    0.480079 0.642262 0.006543 0.148729
C51   C     C_1   0.467307 0.882780 0.885259 -0.218187
C52   C     C_1   0.532693 0.117219 0.114741 -0.218188
C53   C     C_1   0.478723 0.926300 0.928079 -0.001852
C54   C     C_1   0.521277 0.073700 0.071921 -0.001852
C55   C     C_1   0.493592 0.978128 0.978685 -0.003464
C56   C     C_1   0.506408 0.021872 0.021315 -0.003464
C57   C     C_3   0.838847 0.146941 0.414637 -0.803667
H15   H     H_    0.748637 0.134304 0.450251 0.217004
H16   H     H_    0.917652 0.195291 0.426762 0.191653
H17   H     H_    0.733083 0.155437 0.380120 0.229073
C58   C     C_3   0.161326 0.853102 0.585395 -0.803606
H18   H     H_    0.082603 0.804733 0.573279 0.191652
H19   H     H_    0.251512 0.865743 0.549778 0.216989
H20   H     H_    0.267093 0.844643 0.619920 0.229089
C59   C     C_3   0.727893 0.362289 0.083008 -0.781729
H21   H     H_    0.664181 0.310636 0.073585 0.190032
H22   H     H_    0.800965 0.377249 0.044906 0.214815
H23   H     H_    0.845563 0.359610 0.115230 0.226174
C60   C     C_3   0.272108 0.637711 0.916992 -0.781730
H24   H     H_    0.199036 0.622751 0.955094 0.214815
H25   H     H_    0.335819 0.689364 0.926415 0.190032
H26   H     H_    0.154438 0.640391 0.884770 0.226174
C61   C     C_3   0.678915 0.405057 0.799506 -0.799684
H27   H     H_    0.716839 0.415847 0.755719 0.209369
H28   H     H_    0.811652 0.386808 0.820578 0.212133
H29   H     H_    0.571083 0.363694 0.795118 0.205164
C62   C     C_3   0.321085 0.594943 0.200494 -0.799684
H30   H     H_    0.283160 0.584153 0.244281 0.209370
H31   H     H_    0.428916 0.636306 0.204881 0.205163
H32   H     H_    0.188347 0.613192 0.179422 0.212133

loop_
_geom_bond_atom_site_label_1
_geom_bond_atom_site_label_2
_ccdc_geom_bond_type
C2    C34   S    
C55   C56   T    
C39   C60   S    
O13   V3    S    
C61   H27   S    
C17   H5    S    
O4    C2    A    
V1    O19   S    
C47   H13   S    
C57   H17   S    
C23   C25   A    
C34   C38   A    
C45   C46   A    
C7    C9    S    
C16   C22   A    
O9    V1    S    
C42   C44   A    
C11   C13   S    
O3    C1    A    
C9    C11   T    
C33   C37   A    
C53   C55   S    
C20   H3    S    
O12   V4    S    
C62   H30   S    
C21   C23   A    
O7    C3    A    
C4    C52   S    
C6    C16   S    
O5    C7    A    
C59   H22   S    
C34   C40   A    
C22   C57   S    
C57   H15   S    
O8    V2    S    
C62   H31   S    
C60   H24   S    
O3    V1    S    
O14   V4    S    
C51   C53   T    
C18   H6    S    
C10   C12   T    
C15   C21   A    
C24   C26   A    
C8    C10   S    
C2    O12   A    
C17   C19   A    
C61   H29   S    
C18   C20   A    
C17   C25   A    
C49   H9    S    
O7    V1    S    
O11   V3    S    
C22   C24   A    
C29   C31   A    
O17   V3    S    
C30   C32   A    
C27   C28   A    
C48   C50   A    
C21   C58   S    
C44   C50   A    
C39   C41   A    
C46   C47   A    
C43   C49   A    
C15   C19   A    
C1    O11   A    
C33   C39   A    
O15   V3    S    
C26   C32   A    
C35   C37   A    
C13   C14   T    
C1    C33   S    
C52   C54   T    
C58   H18   S    
C16   C20   A    
C62   H32   S    
O10   V2    S    
O1    V3    S    
C61   H28   S    
C36   C44   A    
C19   H4    S    
C18   C26   A    
C40   C42   A    
C58   H19   S    
O18   V4    S    
C50   H10   S    
O15   C5    A    
O8    C4    A    
C60   H26   S    
O16   C6    A    
O1    C3    A    
C41   C43   A    
C12   C14   S    
C28   C29   A    
C47   C49   A    
V2    O20   S    
C45   C48   A    
C35   C61   S    
O16   V4    S    
C3    C51   S    
C23   C27   A    
C57   H16   S    
O5    V1    S    
C40   C59   S    
O17   C7    A    
O6    V2    S    
O10   C6    A    
O18   C8    A    
O2    V4    S    
C27   C30   A    
C31   H1    S    
C48   H14   S    
C25   C31   A    
V4    O20   S    
C29   H7    S    
C54   C56   S    
C60   H25   S    
C30   H8    S    
C5    C15   S    
O9    C5    A    
O13   V1    S    
C32   H2    S    
C59   H23   S    
O14   V2    S    
O2    C4    A    
C36   C62   S    
O4    V2    S    
O6    C8    A    
C24   C28   A    
C58   H20   S    
C35   C43   A    
V3    O19   S    
C42   C46   A    
C59   H21   S    
C36   C38   A    
C41   C45   A    
C38   H11   S    
C37   H12   S    
