data_mof_unit_12453.cif
_audit_creation_date              2012-12-11T17:01:24-0500
_audit_creation_method            fapswitch 2.2
_symmetry_space_group_name_H-M    P1
_symmetry_Int_Tables_number       1
_space_group_crystal_system       triclinic
_cell_length_a                    19.420413
_cell_length_b                    7.104797
_cell_length_c                    17.595776
_cell_angle_alpha                 90.035773
_cell_angle_beta                  108.649865
_cell_angle_gamma                 89.970025
_cell_volume                      2300.34669261

loop_
_atom_site_label
_atom_site_type_symbol
_atom_type_description
_atom_site_fract_x
_atom_site_fract_y
_atom_site_fract_z
_atom_type_partial_charge
O1    O     O_R   0.413720 0.494330 0.415730 -0.536404
O2    O     O_R   0.586280 0.994330 0.584270 -0.539495
O3    O     O_R   0.560210 0.819300 0.430070 -0.531762
O4    O     O_R   0.439790 0.319300 0.569930 -0.542172
C1    C     C_R   0.584094 0.655920 0.417706 0.714441
C2    C     C_R   0.416375 0.155526 0.582916 0.721837
O5    O     O_R   0.412670 0.823730 0.406310 -0.545652
O6    O     O_R   0.587330 0.323730 0.593690 -0.544650
O7    O     O_R   0.437690 0.998790 0.560340 -0.524654
O8    O     O_R   0.562310 0.498790 0.439660 -0.538689
C3    C     C_R   0.385365 0.655224 0.383460 0.704132
C4    C     C_R   0.614638 0.155222 0.616541 0.697888
O9    O     O_3   0.508380 0.662350 0.550560 -0.372431
O10   O     O_3   0.491620 0.162350 0.449440 -0.375028
V1    V     V_3+5 0.498450 0.935370 0.490620 1.422280
V2    V     V_3+5 0.501550 0.435370 0.509380 1.414933
C5    C     C_R   0.699341 0.989103 0.736866 0.108997
C6    C     C_R   0.300774 0.489314 0.262936 0.107885
C7    C     C_R   0.681935 0.146991 0.686671 -0.112074
C8    C     C_R   0.318062 0.647005 0.313336 -0.109955
C9    C     C_R   0.730289 0.300543 0.706738 -0.178093
C10   C     C_R   0.269601 0.800452 0.293451 -0.182903
H1    H     H_    0.719279 0.425608 0.669964 0.139258
H2    H     H_    0.280538 0.925424 0.330349 0.134082
C11   C     C_R   0.795985 0.289016 0.770950 -0.175755
C12   C     C_R   0.203906 0.788937 0.229227 -0.170385
H3    H     H_    0.833162 0.406741 0.782224 0.140759
H4    H     H_    0.166667 0.906575 0.218070 0.143642
C13   C     C_R   0.815600 0.122967 0.816740 -0.102939
C14   C     C_R   0.184395 0.622999 0.183264 -0.103947
C15   C     C_R   0.764346 0.977385 0.800175 0.103272
C16   C     C_R   0.235765 0.477609 0.199640 0.101405
C17   C     C_3   0.773143 0.773902 0.785020 -0.420431
C18   C     C_3   0.227164 0.273918 0.214474 -0.420187
C19   C     C_3   0.702167 0.786697 0.716081 -0.403698
C20   C     C_3   0.298162 0.286658 0.283392 -0.402768
H5    H     H_    0.769302 0.684030 0.835199 0.169071
H6    H     H_    0.231045 0.184470 0.164144 0.169340
H7    H     H_    0.821065 0.746680 0.765024 0.182769
H8    H     H_    0.179294 0.246199 0.234474 0.181155
H9    H     H_    0.657381 0.704308 0.726524 0.175513
H10   H     H_    0.343003 0.204694 0.272771 0.174532
H11   H     H_    0.708972 0.766611 0.656188 0.164615
H12   H     H_    0.291423 0.265939 0.343268 0.168383
C21   C     C_R   0.312046 0.997417 0.616541 0.164736
C22   C     C_R   0.690434 0.795549 0.381683 0.162939
C23   C     C_R   0.363204 0.147048 0.627871 -0.119981
C24   C     C_R   0.638054 0.649789 0.373723 -0.121578
C25   C     C_R   0.362722 0.293348 0.681579 -0.257592
C26   C     C_R   0.636848 0.496669 0.322666 -0.251122
C27   C     C_R   0.314852 0.290652 0.726472 0.089251
C28   C     C_R   0.683875 0.489490 0.276671 0.090533
C29   C     C_R   0.268330 0.135272 0.720662 0.045339
C30   C     C_R   0.731585 0.640753 0.279189 0.041559
C31   C     C_R   0.268081 0.985576 0.667361 0.065874
C32   C     C_R   0.733907 0.796076 0.330292 0.070590
C33   C     C_R   0.313604 0.440287 0.778180 -0.180093
C34   C     C_R   0.683123 0.334155 0.227061 -0.175892
C35   C     C_R   0.266410 0.436888 0.823758 -0.157845
C36   C     C_R   0.729579 0.327655 0.180617 -0.161933
C37   C     C_R   0.220292 0.282579 0.819336 0.094103
C38   C     C_R   0.777078 0.477358 0.182154 0.091841
C39   C     C_R   0.221640 0.130299 0.768184 -0.011660
C40   C     C_R   0.777663 0.635554 0.230921 -0.009112
C41   C     C_R   0.176350 0.973215 0.764488 -0.019533
C42   C     C_R   0.824460 0.788045 0.231705 -0.019351
C43   C     C_R   0.178489 0.822276 0.713989 -0.136313
C44   C     C_R   0.824787 0.943904 0.280685 -0.143711
C45   C     C_R   0.223793 0.827740 0.666479 -0.207456
C46   C     C_R   0.780322 0.947990 0.329236 -0.201270
C47   C     C_R   0.173303 0.277581 0.865634 -0.276936
C48   C     C_R   0.823872 0.471413 0.135672 -0.283287
C49   C     C_R   0.128306 0.120739 0.862834 -0.195501
C50   C     C_R   0.870432 0.623260 0.135629 -0.192261
C51   C     C_R   0.130139 0.968656 0.811734 0.554221
C52   C     C_R   0.870105 0.782150 0.183654 0.553121
H13   H     H_    0.400111 0.410345 0.688721 0.149080
H14   H     H_    0.598416 0.383107 0.318026 0.147624
H15   H     H_    0.348916 0.560868 0.783039 0.132630
H16   H     H_    0.646874 0.216722 0.224579 0.133245
H17   H     H_    0.266170 0.554928 0.862711 0.131012
H18   H     H_    0.728300 0.205288 0.143391 0.131509
H19   H     H_    0.172776 0.394630 0.905017 0.166159
H20   H     H_    0.823267 0.349239 0.098494 0.167367
H21   H     H_    0.145308 0.698315 0.711250 0.189670
H22   H     H_    0.859510 0.063823 0.281696 0.188984
H23   H     H_    0.224644 0.704694 0.630583 0.153210
H24   H     H_    0.781960 0.073076 0.364883 0.160117
O11   O     O_R   0.937800 0.775460 0.060470 -0.504684
O12   O     O_R   0.062200 0.275460 0.939530 -0.543802
O13   O     O_R   0.087350 0.441340 0.093710 -0.543933
O14   O     O_R   0.912650 0.941340 0.906290 -0.539733
C53   C     C_R   0.114672 0.610322 0.116499 0.685205
C54   C     C_R   0.885325 0.110313 0.883501 0.687014
O15   O     O_R   0.939820 0.446010 0.069950 -0.542324
O16   O     O_R   0.060180 0.946010 0.930050 -0.504024
O17   O     O_R   0.913690 0.271230 0.915700 -0.547193
O18   O     O_R   0.086310 0.771230 0.084300 -0.542515
C55   C     C_R   0.918951 0.614583 0.085278 0.753277
C56   C     C_R   0.080647 0.114174 0.914229 0.749571
O19   O     O_3   0.991670 0.603050 0.949510 -0.368551
O20   O     O_3   0.008330 0.103050 0.050490 -0.361368
V3    V     V_3+5 0.001550 0.329940 0.009370 1.466469
V4    V     V_3+5 0.998450 0.829940 0.990630 1.527952
F1    F     F_    0.086029 0.817258 0.806541 -0.693739
F2    F     F_    0.915561 0.928856 0.185492 -0.693905
N1    N     N_3   0.302731 0.863946 0.551905 -0.644249
H25   H     H_    0.309591 0.934039 0.502649 0.211668
H26   H     H_    0.247971 0.826901 0.528577 0.211297
N2    N     N_3   0.702106 0.937958 0.443289 -0.653249
H27   H     H_    0.685369 0.888939 0.490431 0.219326
H28   H     H_    0.758093 0.951091 0.471586 0.213091

loop_
_geom_bond_atom_site_label_1
_geom_bond_atom_site_label_2
_ccdc_geom_bond_type
C49   C56   S    
C42   C44   A    
C39   C41   A    
C44   H22   S    
C33   H15   S    
C20   H10   S    
O1    C3    A    
C46   H24   S    
C2    O7    A    
C23   C25   A    
O5    C3    A    
C17   H7    S    
C50   C52   A    
O11   C55   A    
C18   H8    S    
C7    C9    A    
C14   C53   S    
C13   C54   S    
O15   C55   A    
C33   C35   A    
C34   C36   A    
C36   C38   A    
C21   C23   A    
C37   C39   A    
N2    H27   S    
C38   C40   A    
C17   C19   S    
C36   H18   S    
C28   C30   A    
C41   C43   A    
C26   C28   A    
N1    H25   S    
C15   C17   S    
C27   C33   A    
C19   H11   S    
C18   C20   S    
C45   H23   S    
C34   H16   S    
C37   C47   A    
C24   C26   A    
O2    C4    A    
O19   V3    S    
C49   C51   A    
C26   H14   S    
O12   C56   A    
O15   V3    S    
C47   H19   S    
C29   C31   A    
C11   C13   A    
C1    C24   S    
C22   C24   A    
C3    C8    S    
C43   H21   S    
C35   C37   A    
C2    C23   S    
C48   C50   A    
C47   C49   A    
C54   O17   A    
C25   C27   A    
C17   H5    S    
C27   C29   A    
C40   C42   A    
O4    V2    S    
O13   C53   A    
O6    C4    A    
C42   C52   A    
O14   C54   A    
C38   C48   A    
O1    V2    S    
O17   V3    S    
O20   V4    S    
O2    V1    S    
C48   H20   S    
C28   C34   A    
O4    C2    A    
C8    C10   A    
C12   C14   A    
O19   V4    S    
C32   C46   A    
C22   N2    S    
O11   V4    S    
C5    C15   A    
C10   H2    S    
C20   H12   S    
C6    C16   A    
O3    V1    S    
O16   V4    S    
C9    C11   A    
C52   F2    S    
C18   H6    S    
C35   H17   S    
O13   V3    S    
O3    C1    A    
C30   C32   A    
C51   F1    S    
C50   C55   S    
C11   H3    S    
C12   H4    S    
C41   C51   A    
C31   C45   A    
C9    H1    S    
O7    V1    S    
C1    O8    A    
C13   C15   A    
O8    V2    S    
C14   C16   A    
C29   C39   A    
N1    H26   S    
C30   C40   A    
O18   V4    S    
O16   C56   A    
C4    C7    S    
O5    V1    S    
C5    C7    A    
C25   H13   S    
C6    C8    A    
O20   V3    S    
C19   H9    S    
N2    H28   S    
O12   V3    S    
O14   V4    S    
C21   C31   A    
O6    V2    S    
C10   C12   A    
O9    V2    S    
C22   C32   A    
C44   C46   A    
O10   V1    S    
C5    C19   S    
C43   C45   A    
C6    C20   S    
C53   O18   A    
C21   N1    S    
C16   C18   S    
