data_mof_unit_55865.cif
_audit_creation_date              2012-12-10T20:21:40-0500
_audit_creation_method            fapswitch 2.2
_symmetry_space_group_name_H-M    P1
_symmetry_Int_Tables_number       1
_space_group_crystal_system       triclinic
_cell_length_a                    19.304618
_cell_length_b                    18.476664
_cell_length_c                    8.917858
_cell_angle_alpha                 90.003716
_cell_angle_beta                  90.09773
_cell_angle_gamma                 90.003854
_cell_volume                      3180.86100834

loop_
_atom_site_label
_atom_site_type_symbol
_atom_type_description
_atom_site_fract_x
_atom_site_fract_y
_atom_site_fract_z
_atom_type_partial_charge
C1    C     C_R   0.365553 0.499998 0.499645 0.883589
C2    C     C_R   0.634447 0.500002 0.500354 0.883588
C3    C     C_R   0.548563 0.725981 0.581033 0.025436
C4    C     C_R   0.451436 0.274019 0.418967 0.025438
C5    C     C_R   0.451436 0.725968 0.418965 0.025664
C6    C     C_R   0.548564 0.274031 0.581035 0.025666
C7    C     C_R   0.549490 0.801943 0.582620 -0.279388
C8    C     C_R   0.450509 0.198056 0.417379 -0.279386
C9    C     C_R   0.450509 0.801931 0.417376 -0.279386
C10   C     C_R   0.549492 0.198069 0.582624 -0.279387
C11   C     C_R   0.499999 0.841354 0.499998 0.119456
C12   C     C_R   0.500001 0.158646 0.500001 0.119456
C13   C     C_R   0.482940 0.961987 0.369690 -0.183851
C14   C     C_R   0.517060 0.038012 0.630309 -0.183851
C15   C     C_R   0.517059 0.961997 0.630309 -0.183849
C16   C     C_R   0.482941 0.038003 0.369691 -0.183848
C17   C     C_R   0.500001 0.077300 0.500001 0.123964
C18   C     C_R   0.499999 0.922700 0.499999 0.123964
C19   C     C_R   0.499971 0.499999 0.218433 0.943859
C20   C     C_R   0.500029 0.500001 0.781567 0.943860
C21   C     C_1   0.499989 0.499998 0.065319 -0.203800
C22   C     C_1   0.500011 0.500002 0.934681 -0.203800
C23   C     C_R   0.745738 0.434311 0.504040 -0.194084
C24   C     C_R   0.254262 0.565688 0.495989 -0.194092
C25   C     C_R   0.254253 0.434290 0.500357 -0.194401
C26   C     C_R   0.745747 0.565710 0.499594 -0.194402
C27   C     C_R   0.818046 0.433088 0.504593 0.164541
C28   C     C_R   0.181953 0.566910 0.495428 0.164551
C29   C     C_R   0.181945 0.433064 0.499941 0.164550
C30   C     C_R   0.818056 0.566935 0.500003 0.164549
C31   C     C_R   0.853560 0.500009 0.502172 -0.043948
C32   C     C_R   0.146440 0.499989 0.497805 -0.043946
C33   C     C_R   0.709863 0.500008 0.501268 -0.142684
C34   C     C_R   0.290137 0.499992 0.498726 -0.142686
C35   C     C_R   0.964686 0.501160 0.637078 -0.204217
C36   C     C_R   0.035315 0.498839 0.362897 -0.204211
C37   C     C_R   0.036424 0.501159 0.635943 -0.202628
C38   C     C_R   0.963576 0.498838 0.364032 -0.202621
C39   C     C_R   0.071366 0.499999 0.498862 0.102733
C40   C     C_R   0.928634 0.499999 0.501113 0.102735
H1    H     H_    0.716642 0.384391 0.505687 0.177101
H2    H     H_    0.283357 0.615607 0.494373 0.177104
H3    H     H_    0.283342 0.384370 0.502187 0.177440
H4    H     H_    0.716659 0.615630 0.497733 0.177441
H5    H     H_    0.937201 0.502059 0.742872 0.135676
H6    H     H_    0.062799 0.497941 0.257103 0.135673
H7    H     H_    0.064773 0.502054 0.740872 0.136051
H8    H     H_    0.935228 0.497943 0.259104 0.136047
H9    H     H_    0.586878 0.696117 0.644480 0.122658
H10   H     H_    0.413121 0.303883 0.355519 0.122653
H11   H     H_    0.413121 0.696095 0.355518 0.122369
H12   H     H_    0.586879 0.303905 0.644482 0.122366
H13   H     H_    0.589309 0.829481 0.646384 0.134059
H14   H     H_    0.410690 0.170519 0.353615 0.134058
H15   H     H_    0.410689 0.829458 0.353612 0.134113
H16   H     H_    0.589311 0.170542 0.646389 0.134114
H17   H     H_    0.470684 0.933976 0.266384 0.130209
H18   H     H_    0.529316 0.066024 0.733616 0.130209
H19   H     H_    0.529314 0.933994 0.733615 0.130210
H20   H     H_    0.470686 0.066006 0.266385 0.130210
N1    N     N_R   0.500000 0.689440 0.500000 -0.092122
N2    N     N_R   0.500000 0.310560 0.500000 -0.092121
O1    O     O_R   0.398180 0.560840 0.499960 -0.631327
O2    O     O_R   0.601820 0.439160 0.500040 -0.631327
O3    O     O_R   0.601820 0.560840 0.500040 -0.631437
O4    O     O_R   0.398180 0.439160 0.499960 -0.631436
O5    O     O_R   0.500000 0.560800 0.285330 -0.617408
O6    O     O_R   0.500000 0.439200 0.714670 -0.617407
O7    O     O_R   0.500000 0.560800 0.714670 -0.617231
O8    O     O_R   0.500000 0.439200 0.285330 -0.617231
Zn1   Zn    Zn3+2 0.500000 0.581210 0.500000 0.941689
Zn2   Zn    Zn3+2 0.500000 0.418790 0.500000 0.941690
C41   C     C_3   0.858848 0.362228 0.507541 -0.385831
C42   C     C_3   0.815999 0.292585 0.510876 -0.911422
H21   H     H_    0.783253 0.290706 0.613102 0.257973
H22   H     H_    0.783183 0.288366 0.408820 0.262103
H23   H     H_    0.851384 0.245216 0.513256 0.256133
H24   H     H_    0.892588 0.360033 0.406803 0.212310
H25   H     H_    0.892897 0.362120 0.608147 0.211827
C43   C     C_3   0.141151 0.637770 0.492514 -0.385847
C44   C     C_3   0.184000 0.707413 0.489266 -0.911429
H26   H     H_    0.216808 0.711606 0.591339 0.262110
H27   H     H_    0.216755 0.709315 0.387056 0.257975
H28   H     H_    0.148615 0.754781 0.486917 0.256135
H29   H     H_    0.107114 0.637898 0.391890 0.211827
H30   H     H_    0.107399 0.639946 0.593235 0.212317
C45   C     C_3   0.141133 0.362199 0.501916 -0.386097
C46   C     C_3   0.183972 0.292539 0.503562 -0.910952
H31   H     H_    0.216728 0.288954 0.401546 0.258038
H32   H     H_    0.216777 0.290023 0.605875 0.262061
H33   H     H_    0.148580 0.245161 0.504546 0.256077
H34   H     H_    0.107363 0.361665 0.602704 0.212285
H35   H     H_    0.107114 0.360438 0.401330 0.211883
C47   C     C_3   0.858868 0.637800 0.497984 -0.386099
C48   C     C_3   0.816030 0.707461 0.496322 -0.910944
H36   H     H_    0.783220 0.709969 0.394014 0.262057
H37   H     H_    0.783278 0.711054 0.598345 0.258041
H38   H     H_    0.851422 0.754838 0.495313 0.256075
H39   H     H_    0.892894 0.639572 0.598558 0.211888
H40   H     H_    0.892632 0.638323 0.397184 0.212279

loop_
_geom_bond_atom_site_label_1
_geom_bond_atom_site_label_2
_ccdc_geom_bond_type
C15   C18   A    
C45   C46   S    
C11   C18   S    
C24   H2    S    
C41   C42   S    
C48   H36   S    
C4    C8    A    
C2    O3    A    
C25   H3    S    
C44   H26   S    
C3    H9    S    
C48   H38   S    
C26   H4    S    
C7    C11   A    
C42   H22   S    
C13   C18   A    
C35   C37   A    
C29   C32   A    
C3    C7    A    
C30   C31   A    
C13   H17   S    
C4    N2    A    
C31   C40   S    
C16   H20   S    
C32   C39   S    
O7    Zn1   S    
C43   H30   S    
O4    Zn2   S    
C16   C17   A    
C23   C33   A    
C42   H23   S    
C12   C17   S    
C41   H24   S    
C36   H6    S    
C9    H15   S    
C23   C27   A    
C37   H7    S    
C10   H16   S    
C38   H8    S    
O6    Zn2   S    
C25   C34   A    
N1    Zn1   S    
C21   C22   T    
C14   C17   A    
C1    O1    A    
C44   H27   S    
C2    O2    A    
C1    C34   S    
C3    N1    A    
C25   C29   A    
C14   H18   S    
C42   H21   S    
C27   C31   A    
C28   C32   A    
C8    H14   S    
O3    Zn1   S    
C24   C34   A    
C4    H10   S    
C5    C9    A    
C43   H29   S    
C26   C33   A    
C46   H33   S    
C47   H40   S    
C8    C12   A    
C1    O4    A    
C41   H25   S    
N2    Zn2   S    
C19   O5    A    
C9    C11   A    
C10   C12   A    
C2    C33   S    
C46   H32   S    
C26   C30   A    
C20   O7    A    
C20   C22   S    
C35   H5    S    
C44   H28   S    
C45   H34   S    
C19   C21   S    
C15   H19   S    
C20   O6    A    
C36   C39   A    
C24   C28   A    
O1    Zn1   S    
C43   C44   S    
C6    C10   A    
C48   H37   S    
C23   H1    S    
C6    N2    A    
C36   C38   A    
C35   C40   A    
C30   C47   S    
C38   C40   A    
C47   H39   S    
C45   H35   S    
O5    Zn1   S    
O2    Zn2   S    
C47   C48   S    
C28   C43   S    
C29   C45   S    
C46   H31   S    
C37   C39   A    
C13   C16   A    
C7    H13   S    
C14   C15   A    
C5    H11   S    
C19   O8    A    
O8    Zn2   S    
C6    H12   S    
C27   C41   S    
C5    N1    A    
