data_mof_unit_33697.cif
_audit_creation_date              2012-10-26T19:52:48-0400
_audit_creation_method            fapswitch 2.2
_symmetry_space_group_name_H-M    P1
_symmetry_Int_Tables_number       1
_space_group_crystal_system       triclinic
_cell_length_a                    15.031902
_cell_length_b                    10.815618
_cell_length_c                    9.569017
_cell_angle_alpha                 89.930524
_cell_angle_beta                  90.258843
_cell_angle_gamma                 90.008494
_cell_volume                      1555.7071446

loop_
_atom_site_label
_atom_site_type_symbol
_atom_type_description
_atom_site_fract_x
_atom_site_fract_y
_atom_site_fract_z
_atom_type_partial_charge
C1    C     C_R   0.498652 0.262381 0.500074 0.554213
C2    C     C_R   0.186190 0.438468 0.606101 -0.135064
C3    C     C_R   0.232083 0.499013 0.498900 -0.005883
C4    C     C_R   0.328796 0.499875 0.499706 0.540418
C5    C     C_R   0.185639 0.558169 0.390608 -0.131432
C6    C     C_R   0.491817 0.063316 0.625760 0.070999
C7    C     C_R   0.490296 0.129188 0.500146 -0.015929
C8    C     C_R   0.476344 0.064617 0.374422 -0.136991
C9    C     C_R   0.476206 0.935744 0.374207 -0.148963
C10   C     C_R   0.490235 0.870705 0.499654 -0.008634
C11   C     C_R   0.492215 0.936017 0.625205 -0.011373
C12   C     C_R   0.906399 0.559940 0.390916 0.022915
C13   C     C_3   0.557012 0.928530 0.743645 -0.207987
C14   C     C_3   0.556436 0.069082 0.744890 0.112503
C15   C     C_R   0.564205 0.439445 0.074521 0.217829
C16   C     C_R   0.498586 0.737578 0.499853 0.541133
C17   C     C_R   0.432404 0.554018 0.073721 -0.012776
C18   C     C_R   0.432229 0.553554 0.925090 -0.000389
C19   C     C_R   0.565450 0.442185 0.927330 0.223744
C20   C     C_3   0.663133 0.469796 0.925939 0.132966
C21   C     C_3   0.661448 0.462871 0.084377 0.084500
C22   C     C_R   0.671199 0.499270 0.499886 0.558181
C23   C     C_R   0.954179 0.368889 0.707104 -0.136224
C24   C     C_R   0.813719 0.561457 0.393580 -0.105908
C25   C     C_R   0.767890 0.497359 0.498242 0.016910
C26   C     C_R   0.814432 0.429838 0.599411 -0.125718
C27   C     C_R   0.907093 0.430979 0.601564 0.006103
C28   C     C_R   0.953358 0.495874 0.496528 0.061814
C29   C     C_3   0.771682 0.618347 0.889570 -0.008030
C30   C     C_3   0.793404 0.730918 0.800714 -0.356271
C31   C     C_R   0.046925 0.371907 0.709427 -0.128480
C32   C     C_R   0.093492 0.435374 0.604951 0.011331
C33   C     C_R   0.046607 0.496642 0.497082 0.062062
C34   C     C_R   0.092891 0.558814 0.389890 0.014034
C35   C     C_R   0.045673 0.620715 0.284257 -0.128381
C36   C     C_R   0.952878 0.621930 0.285252 -0.122334
Cl1   Cl    Cl    0.506512 0.131354 0.898422 -0.612934
Cl2   Cl    Cl    0.719719 0.331335 0.150798 -0.615014
Cu1   Cu    Cu3+1 0.500000 0.499980 0.640670 1.017686
Cu2   Cu    Cu3+1 0.500000 0.500020 0.359330 0.987787
H1    H     H_    0.777284 0.613657 0.315416 0.110059
H2    H     H_    0.677260 0.551402 0.137349 0.139010
H3    H     H_    0.919246 0.319160 0.788517 0.126650
H4    H     H_    0.082235 0.324277 0.792496 0.121997
H5    H     H_    0.222740 0.391906 0.688790 0.131759
H6    H     H_    0.221763 0.605475 0.308502 0.113650
H7    H     H_    0.080510 0.668791 0.201508 0.111572
H8    H     H_    0.917479 0.670996 0.203336 0.106026
H9    H     H_    0.469594 0.112981 0.275744 0.191066
H10   H     H_    0.814816 0.540707 0.855145 0.134132
H11   H     H_    0.788204 0.640387 0.000126 0.127035
H12   H     H_    0.469286 0.887755 0.275458 0.155506
H13   H     H_    0.756376 0.812649 0.839667 0.157646
H14   H     H_    0.865839 0.750570 0.806542 0.103969
H15   H     H_    0.774698 0.713753 0.690018 0.161316
H16   H     H_    0.527249 0.885004 0.837816 0.190608
H17   H     H_    0.621921 0.888811 0.711273 0.111210
H18   H     H_    0.621187 0.111843 0.716462 0.124720
H19   H     H_    0.378780 0.599221 0.128623 0.115838
H20   H     H_    0.378367 0.598207 0.869332 0.118855
H21   H     H_    0.701150 0.395143 0.873609 0.131262
H22   H     H_    0.778501 0.376063 0.675849 0.108972
N1    N     N_R   0.500570 0.500930 0.147930 -0.257134
N2    N     N_R   0.500570 0.500890 0.852020 -0.214051
O1    O     O_R   0.500000 0.319640 0.618810 -0.474188
O2    O     O_R   0.500010 0.319680 0.381230 -0.476254
O3    O     O_R   0.370250 0.499950 0.618800 -0.515420
O4    O     O_R   0.370260 0.499990 0.381220 -0.513127
O5    O     O_R   0.499990 0.680320 0.618770 -0.490253
O6    O     O_R   0.500000 0.680360 0.381190 -0.519680
O7    O     O_R   0.629740 0.500010 0.618780 -0.476276
O8    O     O_R   0.629750 0.500050 0.381200 -0.486041
O9    O     O_3   0.680087 0.590700 0.875928 -0.552849

loop_
_geom_bond_atom_site_label_1
_geom_bond_atom_site_label_2
_ccdc_geom_bond_type
C35   C36   A    
C35   H7    S    
C7    C8    A    
C15   C19   A    
Cu1   N2    S    
C30   H14   S    
C26   C27   A    
Cu2   N1    S    
Cu2   O6    S    
C12   C28   A    
C29   O9    S    
C23   H3    S    
C2    C32   A    
C34   C35   A    
C20   H21   S    
C21   Cl2   S    
C19   C20   S    
C8    C9    A    
C22   C25   S    
C1    O1    A    
C23   C27   A    
C12   C36   A    
C9    C10   A    
C13   H16   S    
Cu2   O2    S    
C13   C14   S    
C24   H1    S    
Cu1   O1    S    
C9    H12   S    
C22   O8    A    
C33   C34   A    
C29   H10   S    
C2    H5    S    
C14   H18   S    
C30   H13   S    
C31   H4    S    
C16   O6    A    
C24   C25   A    
C6    C11   A    
C4    O4    A    
C25   C26   A    
C1    O2    A    
C29   C30   S    
C6    C14   S    
C31   C32   A    
C19   N2    A    
C5    C34   A    
C17   C18   A    
Cu1   O5    S    
C5    H6    S    
C17   H19   S    
C18   H20   S    
C28   C33   A    
C3    C4    S    
C22   O7    A    
Cu1   Cu2   S    
C29   H11   S    
Cu1   O7    S    
Cu2   O8    S    
C1    C7    S    
Cu1   O3    S    
C16   O5    A    
C3    C5    A    
C4    O3    A    
C6    C7    A    
C30   H15   S    
C12   C24   A    
C32   C33   A    
C2    C3    A    
C26   H22   S    
C10   C16   S    
C17   N1    A    
C14   Cl1   S    
C11   C13   S    
C18   N2    A    
C20   O9    S    
C36   H8    S    
C10   C11   A    
C21   H2    S    
C15   C21   S    
C13   H17   S    
C20   C21   S    
Cu2   O4    S    
C27   C28   A    
C15   N1    A    
C8    H9    S    
C23   C31   A    
