data_mof_unit_45131.cif
_audit_creation_date              2013-03-05T16:03:51-0500
_audit_creation_method            fapswitch 2.2
_symmetry_space_group_name_H-M    P1
_symmetry_Int_Tables_number       1
_space_group_crystal_system       triclinic
_cell_length_a                    6.93707
_cell_length_b                    17.564005
_cell_length_c                    19.845461
_cell_angle_alpha                 108.662507
_cell_angle_beta                  90.750933
_cell_angle_gamma                 90.339618
_cell_volume                      2290.55763361

loop_
_atom_site_label
_atom_site_type_symbol
_atom_site_description
_atom_site_fract_x
_atom_site_fract_y
_atom_site_fract_z
_atom_type_partial_charge
O1    O     O_R   0.505700 0.440210 0.561730 -0.597631
O2    O     O_R   0.169350 0.406300 0.412660 -0.580146
O3    O     O_R   0.005650 0.559790 0.438270 -0.573647
C1    C     C_R   0.339429 0.382409 0.384785 1.036312
O4    O     O_R   0.175560 0.430650 0.559600 -0.597557
O5    O     O_R   0.011900 0.584320 0.586250 -0.603613
C2    C     C_R   0.344270 0.419849 0.584464 1.008375
O6    O     O_R   0.499450 0.415680 0.413750 -0.556988
O7    O     O_3   0.341370 0.550390 0.508570 -0.229875
V1    V     V_3+5 0.063940 0.490650 0.498410 1.281351
O8    O     O_R   0.682570 0.593700 0.587340 -0.599887
C3    C     C_R   0.853784 0.619400 0.613083 0.963101
O9    O     O_R   0.676370 0.569350 0.440400 -0.542979
C4    C     C_R   0.842912 0.583609 0.418361 1.112672
V2    V     V_3+5 0.564750 0.509350 0.501590 1.315864
O10   O     O_3   0.837190 0.449610 0.491430 -0.274608
C5    C     C_R   0.009641 0.668878 0.276661 -0.155057
H1    H     H_    0.136292 0.659990 0.244630 0.134305
C6    C     C_R   0.998195 0.623754 0.322805 -0.071652
H2    H     H_    0.109576 0.581088 0.322153 0.195123
C7    C     C_R   0.845590 0.632525 0.369354 -0.248384
C8    C     C_R   0.695161 0.685444 0.366090 0.401919
C9    C     C_R   0.697284 0.725617 0.314662 -0.084659
C10   C     C_R   0.862052 0.722154 0.271890 0.101689
C11   C     C_R   0.775066 0.843206 0.232223 -0.102989
H3    H     H_    0.683845 0.868161 0.277186 0.123324
C12   C     C_R   0.785238 0.885774 0.183938 -0.136561
H4    H     H_    0.688218 0.935132 0.189973 0.134743
C13   C     C_R   0.924253 0.868037 0.130999 -0.247174
C14   C     C_R   0.052662 0.804100 0.126705 0.407629
C15   C     C_R   0.020356 0.753953 0.168243 -0.231899
H5    H     H_    0.110077 0.701764 0.157996 0.155777
C16   C     C_R   0.882953 0.772733 0.222924 0.109123
C17   C     C_R   0.013259 0.904872 0.756000 0.293015
C18   C     C_R   0.127886 0.915517 0.702947 -0.327853
C19   C     C_R   0.147074 0.853891 0.639459 0.279404
C20   C     C_R   0.049485 0.780232 0.629571 0.196468
C21   C     C_R   0.960658 0.763063 0.688033 -0.081123
C22   C     C_R   0.958212 0.826327 0.754545 -0.041923
C23   C     C_R   0.868288 0.687612 0.682133 -0.192422
C24   C     C_R   0.791450 0.675340 0.744082 0.131572
C25   C     C_R   0.813482 0.735075 0.812537 -0.057032
C26   C     C_R   0.897440 0.811967 0.817706 -0.218434
C27   C     C_R   0.697980 0.601640 0.738935 -0.261472
C28   C     C_R   0.626128 0.586123 0.797740 -0.292540
C29   C     C_R   0.655345 0.640540 0.865108 0.353343
C30   C     C_R   0.750030 0.714527 0.873156 0.180001
H6    H     H_    0.178512 0.975236 0.706627 0.217435
H7    H     H_    0.680956 0.553138 0.689595 0.141920
H8    H     H_    0.556728 0.528685 0.790976 0.179469
H9    H     H_    0.192921 0.469208 0.176432 0.168992
C31   C     C_R   0.476213 0.214870 0.378443 0.312468
C32   C     C_R   0.573683 0.143151 0.374696 0.039261
C33   C     C_R   0.631139 0.091565 0.309380 -0.226015
C34   C     C_R   0.582309 0.107018 0.247426 -0.194212
C35   C     C_R   0.481076 0.176595 0.248379 0.115933
C36   C     C_R   0.436357 0.235575 0.315372 -0.051732
C37   C     C_R   0.418833 0.185830 0.183234 -0.246818
C38   C     C_R   0.328302 0.258364 0.184887 0.119217
C39   C     C_R   0.330516 0.324948 0.248981 -0.002795
C40   C     C_R   0.360709 0.312439 0.316185 -0.253415
C41   C     C_R   0.246249 0.268412 0.122731 -0.189186
C42   C     C_R   0.179597 0.343078 0.123114 -0.135904
C43   C     C_R   0.218523 0.410536 0.181542 -0.147003
C44   C     C_R   0.313949 0.402754 0.241851 0.254872
H10   H     H_    0.708288 0.037180 0.306224 0.135701
H11   H     H_    0.625224 0.063171 0.198414 0.133377
H12   H     H_    0.233797 0.219423 0.073252 0.118274
H13   H     H_    0.114699 0.349833 0.075464 0.147592
C45   C     C_R   0.540217 0.328924 0.721964 -0.132355
H14   H     H_    0.676769 0.328889 0.748940 0.104591
C46   C     C_R   0.529121 0.370785 0.672600 -0.119686
H15   H     H_    0.657881 0.400422 0.662663 0.119744
C47   C     C_R   0.354616 0.374926 0.637027 -0.086769
C48   C     C_R   0.191077 0.336080 0.652570 -0.099265
H16   H     H_    0.054136 0.337710 0.626255 0.147125
C49   C     C_R   0.202706 0.293223 0.701323 -0.133256
H17   H     H_    0.074725 0.262302 0.710025 0.112347
C50   C     C_R   0.377759 0.288644 0.736746 0.120686
C51   C     C_R   0.234649 0.232863 0.828927 -0.127775
H18   H     H_    0.101425 0.264074 0.827418 0.105717
C52   C     C_R   0.247178 0.185163 0.873754 -0.068132
H19   H     H_    0.123661 0.181360 0.905373 0.143260
C53   C     C_R   0.416509 0.142924 0.877743 -0.152953
C54   C     C_R   0.576848 0.154611 0.839505 -0.086897
H20   H     H_    0.712180 0.126691 0.843734 0.206185
C55   C     C_R   0.564460 0.201465 0.794230 -0.135581
H21   H     H_    0.689759 0.205317 0.763532 0.119564
C56   C     C_R   0.392262 0.240665 0.787317 0.103674
O11   O     O_R   0.273230 0.084330 0.086440 -0.611359
O12   O     O_R   0.596660 0.069390 0.940470 -0.576620
O13   O     O_R   0.760270 0.915710 0.913690 -0.554808
C57   C     C_R   0.426954 0.087751 0.921737 0.964555
O14   O     O_R   0.603330 0.093680 0.087390 -0.612412
O15   O     O_R   0.766990 0.940160 0.061660 -0.563554
C58   C     C_R   0.434185 0.117589 0.114461 0.895950
O16   O     O_R   0.266510 0.059870 0.938470 -0.577996
O17   O     O_3   0.431050 0.949630 0.991510 -0.219418
V3    V     V_3+5 0.708490 0.009340 0.001580 1.262128
O18   O     O_R   0.096270 0.930570 0.059390 -0.563768
C59   C     C_R   0.929762 0.916866 0.081963 1.035862
O19   O     O_R   0.089600 0.906290 0.912460 -0.578761
C60   C     C_R   0.917519 0.879725 0.887315 1.060073
V4    V     V_3+5 0.207670 0.990600 0.998190 1.281967
O20   O     O_3   0.935250 0.050360 0.008480 -0.298458
N1    N     N_R   0.915647 0.973873 0.800222 0.227217
O21   O     O_R   0.006228 0.042316 0.823881 -0.455639
O22   O     O_R   0.728090 0.972847 0.800489 -0.413524
N2    N     N_R   0.242385 0.871251 0.582082 0.283544
O23   O     O_R   0.401417 0.913463 0.594786 -0.331039
O24   O     O_R   0.153932 0.858768 0.521204 -0.289698
N3    N     N_R   0.023598 0.728623 0.558741 0.222235
O25   O     O_R   0.174215 0.699500 0.521439 -0.295737
O26   O     O_R   0.862218 0.733274 0.526556 -0.403708
N4    N     N_R   0.794357 0.764625 0.943440 0.206559
O27   O     O_R   0.656825 0.787470 0.989245 -0.311517
O28   O     O_R   0.972040 0.768024 0.965578 -0.409964
N5    N     N_R   0.410212 0.262505 0.446533 0.196358
O29   O     O_R   0.225784 0.266827 0.458054 -0.430449
O30   O     O_R   0.529594 0.278619 0.500436 -0.420989
N6    N     N_3   0.609213 0.122098 0.438079 -0.146272
H22   H     H_    0.693056 0.070371 0.427053 0.127343
H23   H     H_    0.476155 0.107866 0.455408 0.161477
N7    N     N_R   0.443376 0.466634 0.280562 0.223974
O31   O     O_R   0.424928 0.537516 0.273911 -0.440469
O32   O     O_R   0.612693 0.447870 0.299022 -0.428974
N8    N     N_R   0.540468 0.700730 0.415540 0.245935
O33   O     O_R   0.392604 0.652322 0.402835 -0.331246
O34   O     O_R   0.527942 0.770907 0.463723 -0.285284
N9    N     N_3   0.524954 0.764213 0.302576 -0.210403
H24   H     H_    0.490429 0.809858 0.349297 0.165929
H25   H     H_    0.413405 0.721797 0.290334 0.156850
N10   N     N_R   0.220106 0.790152 0.082924 0.260431
O35   O     O_R   0.356941 0.844190 0.097748 -0.364479
O36   O     O_R   0.260694 0.717183 0.044097 -0.268324
N11   N     N_R   0.597933 0.617725 0.925461 0.272879
O37   O     O_R   0.442390 0.574633 0.921601 -0.347304
O38   O     O_R   0.715309 0.628189 0.979445 -0.293753

loop_
_geom_bond_atom_site_label_1
_geom_bond_atom_site_label_2
_geom_bond_distance
_ccdc_geom_bond_type
C27   H7    1.077209 S    
C21   C23   1.438466 A    
C34   C35   1.408074 A    
C12   C13   1.396945 A    
C24   C25   1.431842 A    
N9    H25   1.041754 S    
C18   C19   1.382056 A    
C1    O6    1.290261 A    
N3    O26   1.297563 A    
V1    O10   1.711722 S    
C49   H17   1.082275 S    
C31   C32   1.414555 A    
C30   N4    1.419302 S    
C13   C14   1.419318 A    
O14   V3    2.014319 S    
C4    C7    1.489773 S    
C19   C20   1.412185 A    
C6    C7    1.390799 A    
N2    O24   1.301409 A    
C54   H20   1.076392 S    
C14   C15   1.404532 A    
O19   V4    2.023609 S    
O15   V3    1.995762 S    
N1    O21   1.297108 A    
V2    O10   2.147461 S    
O18   V4    2.004619 S    
C35   C36   1.438809 A    
C17   C18   1.386348 A    
C44   N7    1.439969 S    
C51   C56   1.410837 A    
C37   C58   1.506356 S    
N5    O29   1.300995 A    
N3    O25   1.298310 A    
C20   N3    1.416256 S    
O13   C60   1.294141 A    
C29   C30   1.414212 A    
O8    V2    2.023500 S    
C42   H13   1.082711 S    
N4    O28   1.297699 A    
C9    C10   1.422637 A    
C15   C16   1.413046 A    
C45   H14   1.082055 S    
O1    V2    2.000365 S    
O7    V1    2.162410 S    
C25   C30   1.435639 A    
C54   C55   1.401407 A    
C38   C39   1.425881 A    
C7    C8    1.416105 A    
C18   H6    1.083885 S    
V4    O20   2.147370 S    
C2    C47   1.497094 S    
N5    O30   1.300195 A    
C49   C50   1.410778 A    
V3    O20   1.711754 S    
C5    C10   1.413627 A    
C50   C56   1.505692 S    
C47   C48   1.407983 A    
C17   C22   1.420501 A    
C17   N1    1.429039 S    
C53   C54   1.405083 A    
N11   O38   1.301508 A    
O4    C2    1.302535 A    
C51   H18   1.082270 S    
C22   C26   1.423870 A    
C37   C38   1.414850 A    
C32   C33   1.387878 A    
C1    C40   1.523885 S    
C9    N9    1.432606 S    
C39   C40   1.432350 A    
C3    C23   1.505853 S    
O2    C1    1.322331 A    
C48   H16   1.083000 S    
N8    O34   1.300132 A    
C20   C21   1.434269 A    
O12   C57   1.303038 A    
C15   H5    1.076926 S    
N4    O27   1.300540 A    
C14   N10   1.434492 S    
O11   C58   1.290458 A    
C41   C42   1.390907 A    
C5    H1    1.073833 S    
C13   C59   1.489536 S    
O14   C58   1.311392 A    
C48   C49   1.404987 A    
O11   V4    2.027154 S    
N6    H22   1.045927 S    
O3    C4    1.305863 A    
C46   C47   1.407334 A    
C23   C24   1.423874 A    
C39   C44   1.423369 A    
O17   V3    2.162367 S    
O6    V2    2.021332 S    
C52   C53   1.407825 A    
C55   C56   1.409163 A    
N10   O35   1.300655 A    
C24   C27   1.417826 A    
C25   C26   1.440185 A    
N8    O33   1.297804 A    
O2    V1    2.014326 S    
C57   O16   1.302366 A    
C19   N2    1.437435 S    
C27   C28   1.379063 A    
N7    O32   1.301155 A    
C33   C34   1.379788 A    
C38   C41   1.413793 A    
C45   C50   1.410216 A    
O1    C2    1.302795 A    
H9    C43   1.082768 S    
C46   H15   1.082813 S    
O5    V1    2.015929 S    
C34   H11   1.076427 S    
O8    C3    1.305985 A    
C36   C40   1.446696 A    
C33   H10   1.082333 S    
C11   C12   1.393511 A    
C10   C16   1.519595 S    
C41   H12   1.080816 S    
C43   C44   1.405116 A    
C6    H2    1.076880 S    
O9    V2    2.004681 S    
N9    H24   1.045068 S    
C11   H3    1.075429 S    
O4    V1    1.997200 S    
O3    V1    1.995850 S    
C32   N6    1.438858 S    
N2    O23   1.301430 A    
O5    C3    1.296014 A    
C8    N8    1.431476 S    
C21   C22   1.428094 A    
N1    O22   1.301222 A    
C28   H8    1.083264 S    
O17   V4    1.701239 S    
O18   C59   1.293093 A    
C5    C6    1.392368 A    
C51   C52   1.405956 A    
C35   C37   1.415820 A    
C53   C57   1.499094 S    
O7    V2    1.701473 S    
O19   C60   1.311683 A    
C26   C60   1.511586 S    
N6    H23   1.045631 S    
O16   V4    1.995272 S    
C31   C36   1.434846 A    
C29   N11   1.439270 S    
C42   C43   1.389254 A    
C28   C29   1.383772 A    
C55   H21   1.082037 S    
C52   H19   1.082876 S    
C12   H4    1.077711 S    
N10   O36   1.301357 A    
C8    C9    1.414526 A    
N11   O37   1.301558 A    
C45   C46   1.402118 A    
O12   V3    1.997170 S    
O9    C4    1.291776 A    
O15   C59   1.305298 A    
O13   V3    2.015802 S    
C11   C16   1.412348 A    
N7    O31   1.300138 A    
C31   N5    1.425760 S    
