data_mof_unit_10887.cif
_audit_creation_date              2013-03-05T15:45:14-0500
_audit_creation_method            fapswitch 2.2
_symmetry_space_group_name_H-M    P1
_symmetry_Int_Tables_number       1
_space_group_crystal_system       triclinic
_cell_length_a                    16.96893
_cell_length_b                    7.009288
_cell_length_c                    16.768988
_cell_angle_alpha                 89.995466
_cell_angle_beta                  100.896336
_cell_angle_gamma                 90.009162
_cell_volume                      1958.54604374

loop_
_atom_site_label
_atom_site_type_symbol
_atom_site_description
_atom_site_fract_x
_atom_site_fract_y
_atom_site_fract_z
_atom_type_partial_charge
O1    O     O_R   0.579510 0.506290 0.439030 -0.588255
O2    O     O_R   0.420490 0.006290 0.560970 -0.588155
O3    O     O_R   0.412540 0.170090 0.405290 -0.595583
O4    O     O_R   0.587460 0.670090 0.594710 -0.595527
C1    C     C_R   0.385379 0.345691 0.381526 0.930711
C2    C     C_R   0.614624 0.845695 0.618471 0.930673
O5    O     O_R   0.578390 0.176230 0.429330 -0.595945
O6    O     O_R   0.421610 0.676230 0.570670 -0.595873
O7    O     O_R   0.587530 0.011250 0.585190 -0.598878
O8    O     O_R   0.412470 0.511250 0.414810 -0.598853
C3    C     C_R   0.605320 0.346935 0.414019 0.941829
C4    C     C_R   0.394676 0.846900 0.585977 0.941786
O9    O     O_3   0.502800 0.340940 0.551110 -0.281317
O10   O     O_3   0.497200 0.840940 0.448890 -0.281363
V1    V     V_3+5 0.499480 0.064020 0.490520 1.138513
V2    V     V_3+5 0.500520 0.564020 0.509480 1.138586
C5    C     C_R   0.168075 0.894580 0.863488 -0.180145
C6    C     C_R   0.831940 0.394418 0.136524 -0.180670
C7    C     C_R   0.331826 0.872173 0.636825 -0.160562
C8    C     C_R   0.668130 0.372331 0.363131 -0.160582
C9    C     C_R   0.230842 0.081514 0.677475 -0.139906
C10   C     C_R   0.768832 0.582128 0.322192 -0.139231
C11   C     C_R   0.283019 0.036553 0.625051 -0.139820
C12   C     C_R   0.716702 0.537150 0.374660 -0.139947
C13   C     C_R   0.325428 0.750648 0.701914 -0.189820
C14   C     C_R   0.674721 0.250408 0.298242 -0.190130
C15   C     C_R   0.275267 0.798768 0.757843 0.019134
C16   C     C_R   0.724824 0.298539 0.242253 0.019014
C17   C     C_R   0.226749 0.965498 0.744494 0.189950
C18   C     C_R   0.773118 0.465678 0.255371 0.190110
C19   C     C_R   0.173917 0.012781 0.797395 -0.170407
C20   C     C_R   0.825924 0.512964 0.202440 -0.169455
C21   C     C_R   0.217973 0.732634 0.877503 -0.265795
C22   C     C_R   0.782235 0.232091 0.122711 -0.265872
C23   C     C_R   0.271578 0.684372 0.826515 0.335664
C24   C     C_R   0.728674 0.183777 0.173743 0.335535
H1    H     H_    0.135392 0.136976 0.785366 0.134977
H2    H     H_    0.864279 0.637495 0.214302 0.135215
H3    H     H_    0.215473 0.641756 0.929287 0.171185
H4    H     H_    0.784855 0.140931 0.071054 0.171484
H5    H     H_    0.194417 0.209237 0.666136 0.115626
H6    H     H_    0.805063 0.710204 0.333333 0.115578
H7    H     H_    0.285783 0.132963 0.575128 0.127225
H8    H     H_    0.713793 0.633899 0.424423 0.127423
H9    H     H_    0.360728 0.621844 0.709429 0.162731
H10   H     H_    0.639623 0.121267 0.290936 0.162840
C25   C     C_3   0.758341 0.732009 0.825957 -0.491345
C26   C     C_3   0.241688 0.232128 0.174007 -0.491241
H11   H     H_    0.792757 0.597255 0.836459 0.112052
H12   H     H_    0.207283 0.097338 0.163483 0.112040
H13   H     H_    0.735563 0.756333 0.883204 0.197408
H14   H     H_    0.264465 0.256568 0.116766 0.197467
C27   C     C_3   0.686244 0.703347 0.753957 0.528187
C28   C     C_3   0.313786 0.203469 0.246004 0.528190
H15   H     H_    0.693520 0.564229 0.723675 -0.002763
H16   H     H_    0.306524 0.064286 0.276255 -0.002788
H17   H     H_    0.769998 0.713816 0.625837 0.168953
H18   H     H_    0.230020 0.213580 0.374120 0.168936
C29   C     C_3   0.839219 0.887746 0.727632 0.494037
C30   C     C_3   0.160788 0.387576 0.272356 0.494067
C31   C     C_3   0.756242 0.082192 0.806098 -0.472392
C32   C     C_3   0.243750 0.582284 0.193936 -0.472459
C33   C     C_3   0.812236 0.905573 0.811960 -0.094702
C34   C     C_3   0.187772 0.405588 0.188034 -0.094752
H19   H     H_    0.789879 0.214815 0.797807 0.147569
H20   H     H_    0.210098 0.714841 0.202246 0.147554
H21   H     H_    0.733197 0.099927 0.863559 0.188500
H22   H     H_    0.266800 0.600142 0.136482 0.188522
C35   C     C_3   0.686041 0.863309 0.689476 -0.040913
C36   C     C_3   0.313966 0.363313 0.310518 -0.040935
C37   C     C_3   0.765986 0.851861 0.657130 -0.631078
C38   C     C_3   0.234019 0.351681 0.342855 -0.631110
C39   C     C_3   0.684728 0.059907 0.733768 -0.314258
C40   C     C_3   0.315259 0.559997 0.266269 -0.314109
H23   H     H_    0.627674 0.073695 0.756543 0.193148
H24   H     H_    0.372317 0.573935 0.243506 0.193130
H25   H     H_    0.687385 0.178851 0.690406 0.155595
H26   H     H_    0.312584 0.678864 0.309654 0.155576
H27   H     H_    0.860740 0.032962 0.715596 0.068509
H28   H     H_    0.139256 0.532740 0.284422 0.068519
H29   H     H_    0.765686 0.962740 0.609498 0.166207
H30   H     H_    0.234305 0.462479 0.390510 0.166217
O11   O     O_R   0.087500 0.266000 0.085220 -0.598991
O12   O     O_R   0.912500 0.766000 0.914780 -0.599018
O13   O     O_R   0.921600 0.589950 0.070670 -0.587214
O14   O     O_R   0.078400 0.089950 0.929330 -0.587216
C41   C     C_R   0.894853 0.419826 0.086119 0.977625
C42   C     C_R   0.105141 0.919861 0.913873 0.977512
O15   O     O_R   0.087460 0.596020 0.094710 -0.610408
O16   O     O_R   0.912540 0.096020 0.905290 -0.610396
O17   O     O_R   0.079520 0.760970 0.939020 -0.592859
O18   O     O_R   0.920480 0.260970 0.060980 -0.592922
C43   C     C_R   0.116234 0.425711 0.117828 0.950920
C44   C     C_R   0.883771 0.925702 0.882168 0.950886
O19   O     O_3   0.997180 0.425140 0.948910 -0.288239
O20   O     O_3   0.002820 0.925140 0.051090 -0.288268
V3    V     V_3+5 0.000520 0.702080 0.009480 1.146992
V4    V     V_3+5 0.999480 0.202080 0.990520 1.147018
O21   O     O_3   0.907495 0.770826 0.725337 -0.647637
C45   C     C_3   0.896233 0.573278 0.736474 0.302869
H31   H     H_    0.833812 0.522992 0.716116 0.053208
H32   H     H_    0.915681 0.536734 0.801428 0.145348
C46   C     C_3   0.949512 0.462788 0.689333 -0.904048
H33   H     H_    0.013155 0.506273 0.709329 0.261640
H34   H     H_    0.944426 0.307536 0.700295 0.204443
H35   H     H_    0.930850 0.491401 0.623315 0.255254
O22   O     O_3   0.092518 0.270559 0.274620 -0.647633
C47   C     C_3   0.103798 0.073039 0.263464 0.302940
H36   H     H_    0.166222 0.022814 0.283816 0.053156
H37   H     H_    0.084357 0.036538 0.198507 0.145394
C48   C     C_3   0.050523 0.962431 0.310590 -0.904040
H38   H     H_    0.986879 0.005878 0.290605 0.261631
H39   H     H_    0.055609 0.807201 0.299600 0.204435
H40   H     H_    0.069189 0.990971 0.376612 0.255232
N1    N     N_R   0.322236 0.520393 0.846469 0.228935
O23   O     O_R   0.399616 0.537707 0.854041 -0.418512
O24   O     O_R   0.293378 0.365905 0.873079 -0.415159
N2    N     N_R   0.678244 0.019347 0.154007 0.228934
O25   O     O_R   0.600857 0.035965 0.146507 -0.418582
O26   O     O_R   0.707294 0.865058 0.127505 -0.415627
O27   O     O_3   0.612883 0.709404 0.782898 -0.647842
C49   C     C_3   0.595402 0.531480 0.815529 0.243321
H41   H     H_    0.564549 0.559782 0.867071 0.197099
H42   H     H_    0.649700 0.445149 0.840414 0.060688
C50   C     C_3   0.539038 0.417258 0.751717 -0.775434
H43   H     H_    0.570566 0.373593 0.702628 0.230164
H44   H     H_    0.517744 0.288187 0.779671 0.226575
H45   H     H_    0.486765 0.505545 0.724806 0.266913
O28   O     O_3   0.387150 0.209722 0.217069 -0.647898
C51   C     C_3   0.404697 0.031849 0.184462 0.243093
H46   H     H_    0.435622 0.060239 0.132974 0.196968
H47   H     H_    0.350424 0.945469 0.159512 0.060847
C52   C     C_3   0.461015 0.917659 0.248321 -0.775173
H48   H     H_    0.429435 0.873927 0.297369 0.230080
H49   H     H_    0.482343 0.788618 0.220394 0.226778
H50   H     H_    0.513271 0.006000 0.275274 0.266976

loop_
_geom_bond_atom_site_label_1
_geom_bond_atom_site_label_2
_geom_bond_distance
_ccdc_geom_bond_type
C2    C35   1.534937 S    
C15   C17   1.422772 A    
C5    C42   1.492277 S    
C29   O21   1.425683 S    
C51   H47   1.115341 S    
C48   H38   1.111143 S    
O1    C3    1.298073 A    
C27   C35   1.557142 S    
C2    O7    1.331347 A    
O19   V4    1.709516 S    
O18   V4    1.990620 S    
C25   H11   1.107022 S    
C10   H6    1.084073 S    
O5    C3    1.323079 A    
C33   C44   1.529423 S    
C21   H3    1.084183 S    
C40   H24   1.110116 S    
C22   H4    1.084102 S    
O12   V3    2.014145 S    
C34   C43   1.529460 S    
C25   C33   1.565972 S    
O14   C42   1.318761 A    
C26   C34   1.565997 S    
C30   C38   1.565167 S    
N1    O23   1.300714 A    
O11   C43   1.299631 A    
C11   H7    1.083710 S    
C47   H36   1.107198 S    
C31   C33   1.552450 S    
C35   C37   1.555389 S    
N2    O25   1.300555 A    
C32   C34   1.552441 S    
C8    C12   1.410964 A    
N1    O24   1.301483 A    
O11   V4    2.014096 S    
O20   V4    2.186524 S    
C36   C40   1.567682 S    
C50   H45   1.105532 S    
O22   C47   1.414944 S    
C23   N1    1.436484 S    
C20   H2    1.084422 S    
C48   H40   1.110641 S    
C24   N2    1.436250 S    
C25   C27   1.560877 S    
O5    V1    1.995851 S    
O2    C4    1.298116 A    
O6    V2    1.996084 S    
C41   O18   1.294666 A    
C39   H23   1.110108 S    
C5    C21   1.409152 A    
O14   V4    1.995993 S    
O16   C44   1.319911 A    
C27   H15   1.117039 S    
C28   H16   1.117031 S    
C3    C8    1.496543 S    
C32   H20   1.113127 S    
O13   C41   1.318818 A    
C48   H39   1.109661 S    
C29   H27   1.112593 S    
C26   C28   1.560892 S    
C25   H13   1.113698 S    
C15   C23   1.414234 A    
C9    C17   1.399450 A    
C45   C46   1.520715 S    
O17   V3    1.990495 S    
C19   H1    1.084511 S    
O15   V3    1.993690 S    
O4    V2    1.993625 S    
C7    C11   1.410986 A    
C1    C36   1.534948 S    
C52   H50   1.105589 S    
C31   H21   1.113253 S    
O21   C45   1.414947 S    
C28   C36   1.557113 S    
C42   O17   1.294716 A    
O6    C4    1.323042 A    
O20   V3    1.709606 S    
C45   H32   1.106798 S    
C46   H34   1.109674 S    
O1    V2    1.988695 S    
O12   C44   1.299635 A    
H17   C37   1.108989 S    
C35   C39   1.567631 S    
O2    V1    1.988568 S    
C6    C22   1.409086 A    
O27   C49   1.415579 S    
C30   O22   1.425672 S    
C9    H5    1.084147 S    
O4    C2    1.347859 A    
C9    C11   1.396584 A    
C52   H48   1.106403 S    
C12   H8    1.083657 S    
C10   C12   1.396473 A    
C51   C52   1.521128 S    
C6    C20   1.401958 A    
C49   H42   1.115357 S    
C13   H9    1.077678 S    
O3    V1    1.993717 S    
C52   H49   1.110251 S    
O28   C51   1.415574 S    
C28   O28   1.419682 S    
C30   H28   1.112578 S    
C10   C18   1.399301 A    
C14   C16   1.421183 A    
O3    C1    1.347908 A    
C36   C38   1.555370 S    
O19   V3    2.186650 S    
C13   C15   1.421195 A    
C29   C33   1.571537 S    
C6    C41   1.492279 S    
C47   C48   1.520713 S    
C32   H22   1.113250 S    
C30   C34   1.571535 S    
C31   C39   1.552946 S    
C49   C50   1.521108 S    
C16   C18   1.422684 A    
C51   H46   1.109791 S    
O7    V1    1.998187 S    
C1    O8    1.331321 A    
C17   C19   1.414684 A    
C27   O27   1.419672 S    
C18   C20   1.414619 A    
H18   C38   1.108981 S    
C50   H43   1.106390 S    
C8    C14   1.404643 A    
C5    C19   1.402132 A    
C4    C7    1.496566 S    
C26   H12   1.107025 S    
C45   H31   1.107200 S    
C21   C23   1.402520 A    
C47   H37   1.106782 S    
C46   H35   1.110642 S    
C22   C24   1.402489 A    
O15   C43   1.319952 A    
C7    C13   1.404740 A    
N2    O26   1.301194 A    
O13   V3    1.995760 S    
C14   H10   1.077667 S    
C31   H19   1.113133 S    
C26   H14   1.113693 S    
C16   C24   1.414106 A    
C40   H26   1.112714 S    
O9    V2    1.709799 S    
C46   H33   1.111142 S    
C50   H44   1.110245 S    
C39   H25   1.112711 S    
O10   V1    1.709889 S    
C32   C40   1.552959 S    
O8    V2    1.998145 S    
C49   H41   1.109772 S    
O16   V4    1.993600 S    
C38   H30   1.113721 S    
C29   C37   1.565172 S    
C37   H29   1.113724 S    
