data_mof_unit_8624.cif
_audit_creation_date              2012-12-10T17:15:48-0500
_audit_creation_method            fapswitch 2.2
_symmetry_space_group_name_H-M    P1
_symmetry_Int_Tables_number       1
_space_group_crystal_system       triclinic
_cell_length_a                    10.166151
_cell_length_b                    10.638607
_cell_length_c                    10.829206
_cell_angle_alpha                 89.905206
_cell_angle_beta                  95.166125
_cell_angle_gamma                 81.279681
_cell_volume                      1152.83737519

loop_
_atom_site_label
_atom_site_type_symbol
_atom_type_description
_atom_site_fract_x
_atom_site_fract_y
_atom_site_fract_z
_atom_type_partial_charge
C1    C     C_R   0.444102 0.511625 0.267532 0.945727
C2    C     C_2   0.488043 0.539996 0.933968 -0.136343
C3    C     C_2   0.072778 0.500177 0.479758 -0.061743
C4    C     C_R   0.500737 0.260489 0.503770 0.866675
C5    C     C_2   0.928529 0.513758 0.503816 -0.100611
C6    C     C_R   0.555970 0.494912 0.732447 0.916076
C7    C     C_R   0.501175 0.739252 0.503343 0.864830
C8    C     C_R   0.677981 0.104919 0.689061 -0.162722
C9    C     C_R   0.763860 0.026700 0.774619 -0.121498
C10   C     C_R   0.764593 0.895819 0.774023 -0.139925
C11   C     C_R   0.679412 0.842665 0.687906 -0.188665
C12   C     C_R   0.592224 0.052393 0.599845 0.094905
C13   C     C_R   0.592931 0.920463 0.599274 0.098556
C14   C     C_2   0.882554 0.342930 0.372538 0.532143
C15   C     C_R   0.502292 0.127974 0.512737 -0.103018
C16   C     C_R   0.411391 0.077201 0.431137 -0.180137
C17   C     C_R   0.412090 0.948676 0.430564 -0.194229
C18   C     C_R   0.503582 0.871198 0.511676 -0.100854
C19   C     C_2   0.412631 0.528984 0.135685 -0.373540
C20   C     C_2   0.512810 0.535900 0.065951 -0.152408
C21   C     C_2   0.587779 0.502709 0.864211 -0.385390
H1    H     H_    0.341994 0.137132 0.365810 0.167282
H2    H     H_    0.343021 0.909026 0.364950 0.158656
H3    H     H_    0.385176 0.565818 0.894392 0.188612
H4    H     H_    0.615872 0.530096 0.105529 0.183285
H5    H     H_    0.690373 0.476814 0.904237 0.148267
H6    H     H_    0.814268 0.321600 0.295371 0.050970
H7    H     H_    0.309887 0.534484 0.095591 0.149419
H8    H     H_    0.892215 0.585838 0.568561 0.142675
H9    H     H_    0.108937 0.447485 0.400954 0.196442
H10   H     H_    0.121755 0.600752 0.626130 0.160441
H11   H     H_    0.678133 0.206308 0.695068 0.149962
H12   H     H_    0.828992 0.067930 0.842444 0.139014
H13   H     H_    0.830309 0.835387 0.841360 0.134699
H14   H     H_    0.680802 0.741004 0.693010 0.145352
N1    N     N_2   0.157290 0.551390 0.551110 -0.209303
N2    N     N_2   0.842740 0.448550 0.448960 -0.157501
O1    O     O_R   0.568950 0.489660 0.307530 -0.634216
O2    O     O_R   0.348880 0.522640 0.340350 -0.618387
O3    O     O_R   0.610060 0.300270 0.483590 -0.626290
O4    O     O_R   0.389990 0.333260 0.516410 -0.592615
O5    O     O_R   0.651120 0.477360 0.659650 -0.630470
O6    O     O_R   0.431050 0.510340 0.692470 -0.607468
O7    O     O_R   0.610010 0.666740 0.483590 -0.626322
O8    O     O_R   0.389940 0.699730 0.516410 -0.604778
O9    O     O_2   0.986099 0.269476 0.398246 -0.612001
Zn1   Zn    Zn3+2 0.646940 0.477980 0.478090 0.932343
Zn2   Zn    Zn3+2 0.353060 0.522020 0.521910 0.954102

loop_
_geom_bond_atom_site_label_1
_geom_bond_atom_site_label_2
_ccdc_geom_bond_type
O3    Zn1   S    
C21   H5    S    
O7    Zn1   S    
C4    O3    A    
C20   H4    S    
C5    N2    D    
C14   H6    S    
C3    H9    S    
C9    C10   A    
C19   C20   D    
C12   C15   A    
C8    C12   A    
C7    C18   S    
C2    C21   D    
C11   H14   S    
C17   C18   A    
C14   O9    D    
C7    O7    A    
C14   N2    S    
C9    H12   S    
C19   H7    S    
C11   C13   A    
O1    Zn1   S    
C17   H2    S    
C1    O1    A    
C4    C15   S    
C10   H13   S    
C3    N1    D    
O4    Zn2   S    
N1    Zn2   S    
C5    H8    S    
O5    Zn1   S    
C2    H3    S    
C1    C19   S    
N2    Zn1   S    
C10   C11   A    
C1    O2    A    
C2    C20   S    
O6    Zn2   S    
C8    H11   S    
C7    O8    A    
C12   C13   A    
C13   C18   A    
C4    O4    A    
O8    Zn2   S    
C6    O6    A    
C8    C9    A    
C16   H1    S    
H10   N1    S    
C6    C21   S    
C6    O5    A    
C15   C16   A    
C16   C17   A    
O2    Zn2   S    
C3    C5    S    
