data_mof_unit_57013.cif
_audit_creation_date              2012-12-10T18:32:51-0500
_audit_creation_method            fapswitch 2.2
_symmetry_space_group_name_H-M    P1
_symmetry_Int_Tables_number       1
_space_group_crystal_system       triclinic
_cell_length_a                    14.945471
_cell_length_b                    15.582175
_cell_length_c                    15.751356
_cell_angle_alpha                 89.808652
_cell_angle_beta                  103.98024
_cell_angle_gamma                 83.00601
_cell_volume                      3531.03529229

loop_
_atom_site_label
_atom_site_type_symbol
_atom_type_description
_atom_site_fract_x
_atom_site_fract_y
_atom_site_fract_z
_atom_type_partial_charge
C1    C     C_R   0.442433 0.661716 0.484494 0.969090
C2    C     C_3   0.477743 0.591827 0.044451 -0.415134
C3    C     C_3   0.504072 0.498327 0.083996 -0.055773
C4    C     C_3   0.430927 0.442032 0.034033 -0.546878
C5    C     C_3   0.433845 0.437216 0.936136 0.897322
C6    C     C_1   0.501032 0.498287 0.174748 0.083373
C7    C     C_1   0.504056 0.498978 0.826540 0.173378
C8    C     C_1   0.502809 0.499355 0.750937 -0.002994
C9    C     C_R   0.409894 0.753517 0.466625 -0.291538
C10   C     C_R   0.591878 0.246663 0.503227 -0.286236
C11   C     C_R   0.291307 0.876925 0.443818 0.721255
C12   C     C_R   0.500773 0.499879 0.661626 0.896499
C13   C     C_R   0.318300 0.788709 0.463505 -0.336138
C14   C     C_R   0.473516 0.807366 0.452369 0.693543
C15   C     C_R   0.453714 0.896372 0.455521 -0.095683
C16   C     C_R   0.358698 0.930850 0.437708 -0.162185
C17   C     C_R   0.523732 0.952252 0.467073 -0.049697
C18   C     C_R   0.494471 0.040283 0.440250 -0.061698
C19   C     C_R   0.400732 0.065429 0.393935 0.524113
C20   C     C_R   0.332694 0.015144 0.403595 -0.142231
C21   C     C_R   0.620435 0.926673 0.507529 0.482012
C22   C     C_R   0.684532 0.984216 0.504872 -0.165843
C23   C     C_R   0.557667 0.337999 0.509841 0.956583
C24   C     C_R   0.654537 0.072134 0.489083 -0.130591
C25   C     C_R   0.558308 0.100687 0.465779 -0.088295
C26   C     C_R   0.718579 0.132486 0.507993 0.719764
C27   C     C_R   0.686973 0.219711 0.513053 -0.334506
C28   C     C_R   0.528187 0.186484 0.481524 0.672271
C29   C     C_R   0.853441 0.603452 0.655740 -0.232402
C30   C     C_R   0.759821 0.596772 0.622716 0.158441
C31   C     C_R   0.792066 0.514696 0.504607 0.012009
C32   C     C_R   0.888618 0.517702 0.535633 0.036705
C33   C     C_R   0.918440 0.562067 0.613706 0.075426
C34   C     C_R   0.499455 0.499785 0.338448 0.887352
C35   C     C_R   0.956043 0.476950 0.493562 -0.050058
C36   C     C_R   0.052617 0.481134 0.531079 -0.044385
C37   C     C_R   0.079420 0.511772 0.617660 0.378943
C38   C     C_R   0.012693 0.558182 0.653722 -0.222274
C39   C     C_R   0.930213 0.431279 0.415827 -0.241353
C40   C     C_R   0.995808 0.394524 0.373372 0.664211
C41   C     C_R   0.088610 0.407733 0.403099 -0.003470
C42   C     C_R   0.117271 0.454225 0.480127 -0.033338
C43   C     C_R   0.152549 0.378434 0.354480 -0.177542
C44   C     C_R   0.243151 0.397808 0.380734 0.092280
C45   C     C_3   0.471265 0.591989 0.944906 0.264348
C46   C     C_R   0.207606 0.478452 0.498180 0.074947
C47   C     C_3   0.603301 0.466877 0.974777 -0.479111
C48   C     C_3   0.601630 0.458637 0.072413 0.322970
C49   C     C_1   0.499013 0.498765 0.249536 -0.072068
C50   C     C_3   0.504177 0.498486 0.918176 -0.157679
H1    H     H_    0.528439 0.634175 0.078722 0.278126
H2    H     H_    0.396673 0.608708 0.910745 0.182052
H3    H     H_    0.409249 0.619583 0.055270 0.181562
H4    H     H_    0.443295 0.376417 0.066053 0.228964
H5    H     H_    0.260118 0.037992 0.375001 0.237326
H6    H     H_    0.737241 0.265410 0.528189 0.219461
H7    H     H_    0.758079 0.962724 0.529693 0.224043
H8    H     H_    0.267318 0.747756 0.472022 0.217189
H9    H     H_    0.034089 0.585163 0.717785 0.198606
H10   H     H_    0.229823 0.524242 0.547312 0.173296
H11   H     H_    0.293083 0.376135 0.343407 0.178370
H12   H     H_    0.875154 0.637063 0.715939 0.174675
H13   H     H_    0.709539 0.624029 0.657589 0.173552
H14   H     H_    0.762866 0.478949 0.448637 0.149442
H15   H     H_    0.630572 0.403524 0.952744 0.229562
H16   H     H_    0.859487 0.422196 0.385770 0.199480
H17   H     H_    0.132194 0.342635 0.295620 0.211574
H18   H     H_    0.652615 0.511455 0.965381 0.279123
H19   H     H_    0.610830 0.388503 0.090641 0.161080
H20   H     H_    0.360307 0.470308 0.038997 0.236158
N1    N     N_R   0.731690 0.552720 0.548990 -0.113305
N2    N     N_R   0.268300 0.447240 0.450950 -0.124369
O1    O     O_R   0.383120 0.605620 0.475300 -0.640974
O2    O     O_R   0.531890 0.639510 0.506740 -0.521998
O3    O     O_R   0.425580 0.483050 0.607130 -0.589672
O4    O     O_R   0.574360 0.516930 0.638570 -0.635804
O5    O     O_R   0.468110 0.360490 0.493260 -0.528863
O6    O     O_R   0.616880 0.394380 0.524700 -0.643976
O7    O     O_R   0.425640 0.483070 0.361430 -0.642855
O8    O     O_R   0.574420 0.516950 0.392870 -0.583552
Zn1   Zn    Zn3+2 0.400660 0.477370 0.479010 1.027389
Zn2   Zn    Zn3+2 0.599340 0.522630 0.520990 1.038907
F1    F     F_    0.437799 0.209318 0.483063 -0.605901
F2    F     F_    0.200345 0.909356 0.430987 -0.609858
F3    F     F_    0.550037 0.773591 0.425921 -0.596848
S1    S     S_3+6 0.527020 0.679243 0.912395 0.066346
O9    O     O_2   0.486290 0.762496 0.943993 -0.223477
O10   O     O_2   0.630064 0.666407 0.951286 -0.232328
O11   O     O_3   0.506407 0.686951 0.802681 -0.552956
H21   H     H_    0.538980 0.735588 0.790605 0.414481
S2    S     S_3+6 0.369175 0.142584 0.305512 0.080136
O12   O     O_2   0.447134 0.192766 0.299037 -0.282587
O13   O     O_2   0.341361 0.094767 0.222412 -0.253553
O14   O     O_3   0.277043 0.210415 0.316948 -0.535255
H22   H     H_    0.248384 0.235869 0.257458 0.375260
S3    S     S_3+6 0.666208 0.836285 0.581082 0.058869
O15   O     O_2   0.593048 0.801939 0.617610 -0.284765
O16   O     O_2   0.711293 0.766367 0.534042 -0.264979
O17   O     O_3   0.747607 0.866455 0.665706 -0.514451
H23   H     H_    0.808197 0.843908 0.653981 0.371520
F4    F     F_    0.811545 0.106740 0.526140 -0.611816
F5    F     F_    0.967043 0.350367 0.299526 -0.622606
S4    S     S_3+6 0.186463 0.474966 0.693558 0.072988
O18   O     O_2   0.248500 0.545309 0.705444 -0.296593
O19   O     O_2   0.166964 0.454766 0.780250 -0.176750
O20   O     O_3   0.240242 0.384715 0.660332 -0.508885
H24   H     H_    0.303649 0.377108 0.699360 0.425278
S5    S     S_3+6 0.700823 0.499743 0.142467 0.063094
O21   O     O_2   0.695604 0.596031 0.130512 -0.226517
O22   O     O_2   0.706327 0.477446 0.236652 -0.308431
O23   O     O_3   0.797572 0.452307 0.116682 -0.487243
H25   H     H_    0.849573 0.473652 0.159548 0.409123
F6    F     F_    0.345829 0.466851 0.885600 -0.597610
S6    S     S_3+6 0.458192 0.325431 0.908087 0.068547
O24   O     O_2   0.473430 0.319683 0.817303 -0.308332
O25   O     O_2   0.542184 0.280178 0.972160 -0.314141
O26   O     O_3   0.365685 0.275244 0.911712 -0.448864
H26   H     H_    0.381507 0.215244 0.894610 0.406795

loop_
_geom_bond_atom_site_label_1
_geom_bond_atom_site_label_2
_ccdc_geom_bond_type
C10   C27   A    
C5    S6    S    
C41   C42   A    
C36   C42   A    
C19   C20   A    
C48   H19   S    
C9    C14   A    
C3    C6    S    
C22   H7    S    
C4    H20   S    
S6    O24   D    
C45   S1    S    
C7    C8    T    
C25   C28   A    
C26   C27   A    
C29   C30   A    
C1    O2    A    
C11   F2    S    
C36   C37   A    
C24   C26   A    
C26   F4    S    
S1    O10   D    
O20   H24   S    
C15   C16   A    
S3    O17   S    
C29   C33   A    
C3    C48   S    
S5    O21   D    
C18   C19   A    
C42   C46   A    
C9    C13   A    
C34   O8    A    
C35   C36   A    
S3    O16   D    
C46   N2    A    
N2    Zn1   S    
C16   C20   A    
N1    Zn2   S    
C46   H10   S    
C31   N1    A    
C23   O6    A    
C21   C22   A    
C28   F1    S    
C41   C43   A    
C18   C25   A    
O2    Zn2   S    
C20   H5    S    
O1    Zn1   S    
C30   N1    A    
C47   C50   S    
C2    C45   S    
C32   C35   A    
C1    C9    S    
C24   C25   A    
C7    C50   S    
O8    Zn2   S    
O4    Zn2   S    
S2    O12   D    
O7    Zn1   S    
C27   H6    S    
O3    Zn1   S    
C13   H8    S    
C45   H2    S    
C2    H3    S    
C17   C21   A    
C35   C39   A    
C43   C44   A    
C37   C38   A    
C34   O7    A    
S2    O13   D    
C11   C16   A    
O6    Zn2   S    
C5    F6    S    
C47   C48   S    
O5    Zn1   S    
C8    C12   S    
S3    O15   D    
C17   C18   A    
S4    O19   D    
C23   O5    A    
C40   C41   A    
C12   O4    A    
C44   H11   S    
C39   H16   S    
C22   C24   A    
C5    C50   S    
C3    C4    S    
C47   H18   S    
C39   C40   A    
C37   S4    S    
C10   C28   A    
C15   C17   A    
C29   H12   S    
C34   C49   S    
O23   H25   S    
C4    H4    S    
S1    O9    D    
C31   H14   S    
C31   C32   A    
C14   F3    S    
C4    C5    S    
S1    O11   S    
S6    O25   D    
C21   S3    S    
C10   C23   S    
O26   H26   S    
C33   C38   A    
S5    O23   S    
C1    O1    A    
C32   C33   A    
C2    C3    S    
O17   H23   S    
S2    O14   S    
C11   C13   A    
C48   S5    S    
C45   C50   S    
S5    O22   D    
C44   N2    A    
S4    O20   S    
C6    C49   T    
O14   H22   S    
S6    O26   S    
C19   S2    S    
C2    H1    S    
C40   F5    S    
C38   H9    S    
C43   H17   S    
C12   O3    A    
S4    O18   D    
C14   C15   A    
O11   H21   S    
C30   H13   S    
C47   H15   S    
