data_mof_unit_16463.cif
_audit_creation_date              2013-03-05T16:06:17-0500
_audit_creation_method            fapswitch 2.2
_symmetry_space_group_name_H-M    P1
_symmetry_Int_Tables_number       1
_space_group_crystal_system       triclinic
_cell_length_a                    10.823222
_cell_length_b                    9.480755
_cell_length_c                    27.821194
_cell_angle_alpha                 89.998087
_cell_angle_beta                  90.415004
_cell_angle_gamma                 90.004387
_cell_volume                      2854.72225655

loop_
_atom_site_label
_atom_site_type_symbol
_atom_site_description
_atom_site_fract_x
_atom_site_fract_y
_atom_site_fract_z
_atom_type_partial_charge
O1    O     O_R   0.319640 0.618740 0.500000 -0.592426
O2    O     O_R   0.680360 0.381260 0.500000 -0.588462
O3    O     O_R   0.680360 0.618740 0.500000 -0.592382
O4    O     O_R   0.319640 0.381260 0.500000 -0.588445
C1    C     C_R   0.261957 0.499993 0.499968 0.785639
C2    C     C_R   0.738043 0.499999 0.500034 0.785619
O5    O     O_R   0.500020 0.618770 0.430260 -0.587153
O6    O     O_R   0.499980 0.381230 0.569740 -0.566487
O7    O     O_R   0.499980 0.618770 0.569740 -0.587175
O8    O     O_R   0.500020 0.381230 0.430260 -0.566515
C3    C     C_R   0.502791 0.499788 0.407371 0.805343
C4    C     C_R   0.497188 0.499782 0.592632 0.805400
Cu1   Cu    Cu3+1 0.500000 0.640660 0.500000 0.927488
Cu2   Cu    Cu3+1 0.500000 0.359340 0.500000 0.957712
C5    C     C_R   0.390703 0.512255 0.177423 0.516991
C6    C     C_R   0.609247 0.513536 0.822597 0.516728
O9    O     O_2   0.284358 0.496673 0.201901 -0.553577
O10   O     O_2   0.715730 0.499214 0.798124 -0.553496
N1    N     N_R   0.500658 0.519993 0.201790 -0.458591
N2    N     N_R   0.499225 0.519927 0.798227 -0.458586
C7    C     C_R   0.609940 0.537406 0.178133 0.543091
C8    C     C_R   0.389792 0.536030 0.821887 0.543057
C9    C     C_R   0.546807 0.387857 0.276555 -0.007594
C10   C     C_R   0.453646 0.387544 0.723455 -0.007180
C11   C     C_R   0.551659 0.383359 0.327424 -0.084441
C12   C     C_R   0.448618 0.383157 0.672584 -0.084357
C13   C     C_R   0.460855 0.618921 0.329974 -0.245228
C14   C     C_R   0.538792 0.619037 0.670039 -0.245049
C15   C     C_R   0.459296 0.624113 0.280144 -0.118642
C16   C     C_R   0.540256 0.624254 0.719868 -0.118576
C17   C     C_R   0.501389 0.509772 0.253272 0.315548
C18   C     C_R   0.498574 0.509698 0.746742 0.315027
C19   C     C_R   0.499940 0.532213 0.101803 -0.044819
C20   C     C_R   0.499835 0.532194 0.898217 -0.044860
C21   C     C_R   0.388200 0.519083 0.127036 -0.017526
C22   C     C_R   0.611688 0.520423 0.872984 -0.017506
C23   C     C_R   0.276828 0.510953 0.101553 -0.156183
C24   C     C_R   0.723130 0.513668 0.898467 -0.156158
C25   C     C_R   0.611826 0.541803 0.127742 -0.021788
C26   C     C_R   0.387868 0.540411 0.872278 -0.021926
C27   C     C_R   0.506290 0.499862 0.354265 -0.091931
C28   C     C_R   0.493659 0.499841 0.645743 -0.092104
H1    H     H_    0.424807 0.717651 0.262161 0.143867
H2    H     H_    0.574422 0.717948 0.737850 0.144214
H3    H     H_    0.189742 0.499137 0.120094 0.184234
H4    H     H_    0.810320 0.502917 0.879926 0.184238
C29   C     C_R   0.385844 0.539781 0.974178 0.043234
C30   C     C_R   0.613856 0.541179 0.025841 0.043242
C31   C     C_R   0.613984 0.532919 0.974852 0.042204
C32   C     C_R   0.385793 0.531525 0.025167 0.042197
C33   C     C_R   0.499909 0.535254 0.949281 0.065484
C34   C     C_R   0.499840 0.535260 0.050738 0.065491
C35   C     C_R   0.275410 0.552543 0.946970 -0.208897
C36   C     C_R   0.724166 0.555292 0.053049 -0.208957
C37   C     C_R   0.276688 0.552939 0.897050 -0.159184
C38   C     C_R   0.722884 0.555684 0.102969 -0.159493
O11   O     O_2   0.283266 0.547538 0.796669 -0.554977
O12   O     O_2   0.716351 0.550182 0.203354 -0.555098
C39   C     C_R   0.275352 0.517216 0.051669 -0.210129
C40   C     C_R   0.724550 0.519962 0.948351 -0.210117
H5    H     H_    0.189501 0.562077 0.877916 0.183768
H6    H     H_    0.809979 0.565894 0.122103 0.183699
H7    H     H_    0.186010 0.565216 0.963158 0.134726
H8    H     H_    0.813444 0.569048 0.036860 0.134811
H9    H     H_    0.185844 0.506448 0.034914 0.135308
H10   H     H_    0.814154 0.510297 0.965106 0.135212
C41   C     C_R   0.063853 0.371823 0.499940 -0.200076
C42   C     C_R   0.936129 0.628251 0.499888 -0.188253
C43   C     C_R   0.936132 0.371829 0.500259 -0.200120
C44   C     C_R   0.063885 0.628247 0.499931 -0.188205
H11   H     H_    0.111933 0.271647 0.499692 0.141061
H12   H     H_    0.888028 0.728465 0.499765 0.140803
H13   H     H_    0.888040 0.271658 0.500662 0.141014
H14   H     H_    0.111998 0.728461 0.499900 0.140788
C45   C     C_R   0.871813 0.500021 0.500063 -0.011551
C46   C     C_R   0.128186 0.500013 0.499943 -0.011520
C47   C     C_R   0.415658 0.074556 0.473152 0.000056
C48   C     C_R   0.584345 0.925481 0.526849 -0.044508
C49   C     C_R   0.584365 0.074566 0.526837 0.000188
C50   C     C_R   0.415678 0.925472 0.473140 -0.044368
N3    N     N_R   0.500000 0.852070 0.500000 -0.155355
N4    N     N_R   0.500000 0.147930 0.500000 -0.146982
H15   H     H_    0.424739 0.708253 0.349632 0.150649
H16   H     H_    0.574743 0.708470 0.650387 0.150629
H17   H     H_    0.348573 0.130981 0.451504 0.113213
H18   H     H_    0.651443 0.869089 0.548502 0.114221
H19   H     H_    0.651457 0.130997 0.548482 0.113159
H20   H     H_    0.348589 0.869071 0.451482 0.114190
C51   C     C_R   0.393637 0.258575 0.648108 0.133058
C52   C     C_R   0.454426 0.127705 0.649146 -0.132913
C53   C     C_R   0.402193 0.010939 0.625978 -0.124547
C54   C     C_R   0.289572 0.024068 0.601517 -0.096002
C55   C     C_R   0.228412 0.153854 0.600474 -0.132514
C56   C     C_R   0.280045 0.270885 0.623688 -0.115572
H21   H     H_    0.542189 0.116487 0.667698 0.120913
H22   H     H_    0.449373 0.910468 0.626673 0.133000
H23   H     H_    0.249751 0.933672 0.583369 0.126543
H24   H     H_    0.140863 0.163661 0.581767 0.119065
H25   H     H_    0.231911 0.371012 0.622598 0.114348
C57   C     C_R   0.606815 0.258858 0.351895 0.133090
C58   C     C_R   0.546360 0.127772 0.350736 -0.132804
C59   C     C_R   0.598725 0.011086 0.373907 -0.124412
C60   C     C_R   0.711161 0.024502 0.398478 -0.096213
C61   C     C_R   0.771998 0.154493 0.399636 -0.132186
C62   C     C_R   0.720224 0.271446 0.376424 -0.115308
H26   H     H_    0.458751 0.116322 0.332090 0.120868
H27   H     H_    0.551806 0.910438 0.373113 0.133205
H28   H     H_    0.751104 0.934169 0.416623 0.126357
H29   H     H_    0.859407 0.164523 0.418430 0.119152
H30   H     H_    0.768103 0.371732 0.377607 0.114071
C63   C     C_R   0.413173 0.264955 0.752563 0.106386
C64   C     C_R   0.288397 0.224271 0.753072 -0.076024
C65   C     C_R   0.251407 0.106881 0.779783 -0.128313
C66   C     C_R   0.338518 0.029608 0.806163 -0.095570
C67   C     C_R   0.462723 0.069917 0.805996 -0.143136
C68   C     C_R   0.500085 0.187247 0.779338 -0.168505
H31   H     H_    0.220111 0.283354 0.732773 0.144702
H32   H     H_    0.155222 0.075686 0.779976 0.138775
H33   H     H_    0.309818 0.938493 0.826711 0.142178
H34   H     H_    0.530120 0.009910 0.826386 0.138760
H35   H     H_    0.596751 0.216701 0.779130 0.156626
C69   C     C_R   0.588407 0.265818 0.247440 0.106303
C70   C     C_R   0.713591 0.226854 0.246904 -0.076009
C71   C     C_R   0.751798 0.110164 0.220111 -0.128554
C72   C     C_R   0.665484 0.031837 0.193696 -0.094876
C73   C     C_R   0.540853 0.070381 0.193916 -0.142629
C74   C     C_R   0.502281 0.187048 0.220643 -0.168604
H36   H     H_    0.781263 0.286787 0.267227 0.144753
H37   H     H_    0.848313 0.080350 0.219876 0.138684
H38   H     H_    0.695137 0.941274 0.173076 0.142257
H39   H     H_    0.474078 0.009539 0.173500 0.138549
H40   H     H_    0.405317 0.215176 0.220874 0.156460

loop_
_geom_bond_atom_site_label_1
_geom_bond_atom_site_label_2
_geom_bond_distance
_ccdc_geom_bond_type
C62   H30   1.083190 S    
C55   C56   1.398292 A    
C14   H16   1.082705 S    
C63   C64   1.404616 A    
O3    C2    1.287315 A    
N1    C17   1.435512 S    
C8    O11   1.349723 S    
C49   H19   1.081570 S    
C66   C67   1.397577 A    
C52   C53   1.398295 A    
C70   C71   1.398265 A    
C19   C34   1.420980 A    
C5    N1    1.367308 A    
C20   C33   1.420967 A    
C19   C25   1.408129 A    
C31   C40   1.415469 A    
C20   C26   1.408107 A    
C32   C39   1.415481 A    
C73   H39   1.082441 S    
C21   C23   1.396129 A    
C10   C12   1.416559 A    
C61   H29   1.081794 S    
C13   C15   1.387180 A    
C67   C68   1.398282 A    
Cu1   N3    2.004326 S    
C69   C74   1.404393 A    
C14   C28   1.402772 A    
C51   C56   1.405213 A    
O7    Cu1   1.951312 S    
C74   H40   1.082894 S    
C61   C62   1.398311 A    
C4    C28   1.478373 S    
C53   H22   1.080924 S    
C72   H38   1.082600 S    
C14   C16   1.387165 A    
C31   C33   1.420649 A    
C44   H14   1.083417 S    
C32   C34   1.420650 A    
C43   H13   1.083045 S    
C60   H28   1.082623 S    
C9    C69   1.484226 S    
C41   H11   1.083039 S    
C66   H33   1.082586 S    
O3    Cu1   1.963123 S    
O6    C4    1.292348 A    
C29   C35   1.415335 A    
C48   H18   1.081594 S    
C47   N4    1.365728 A    
C40   H10   1.076883 S    
Cu1   Cu2   2.667126 S    
C15   H1    1.083240 S    
C16   H2    1.083226 S    
O2    C2    1.287223 A    
C10   C63   1.484411 S    
C5    C21   1.403389 A    
C64   C65   1.398348 A    
C54   H23   1.082567 S    
O5    C3    1.295854 A    
C29   C32   1.420726 A    
C35   C37   1.389008 A    
C36   C38   1.389020 A    
C68   H35   1.082894 S    
C58   C59   1.398350 A    
C52   H21   1.082997 S    
O8    Cu2   1.951312 S    
C11   C27   1.422745 A    
C53   C54   1.397293 A    
C48   C49   1.413432 A    
C50   N3    1.365945 A    
C29   C33   1.420607 A    
C42   H12   1.083419 S    
C42   C45   1.400879 A    
C9    C17   1.411610 A    
C30   C36   1.415345 A    
C10   C18   1.411676 A    
C13   C27   1.402815 A    
C11   C57   1.485692 S    
C25   C38   1.396113 A    
C7    C25   1.402852 A    
C30   C34   1.420603 A    
C6    N2    1.367358 A    
C26   C37   1.396119 A    
C8    C26   1.402860 A    
C57   C62   1.405149 A    
C59   H27   1.081041 S    
C23   C39   1.389074 A    
C24   C40   1.389079 A    
C6    O10   1.349688 S    
C30   C31   1.420745 A    
N2    C8    1.367765 A    
C44   C46   1.400903 A    
C72   C73   1.397611 A    
C38   H6    1.083533 S    
O1    Cu1   1.963091 S    
Cu2   N4    2.004327 S    
C23   H3    1.083536 S    
O1    C1    1.287286 A    
C12   C28   1.422752 A    
C65   C66   1.397972 A    
N2    C18   1.435620 S    
C47   C50   1.413430 A    
C58   H26   1.082980 S    
C5    O9    1.349692 S    
O6    Cu2   1.951326 S    
N1    C7    1.367717 A    
O4    C1    1.287255 A    
C49   N4    1.365723 A    
C50   H20   1.081594 S    
C63   C68   1.404444 A    
C1    C46   1.447824 S    
C22   C24   1.396133 A    
C69   C70   1.404562 A    
C12   C51   1.485589 S    
C7    O12   1.349724 S    
C15   C17   1.395233 A    
C6    C22   1.403400 A    
C16   C18   1.395291 A    
C35   H7    1.076952 S    
C48   N3    1.365940 A    
C70   H36   1.083041 S    
C64   H31   1.083011 S    
C36   H8    1.076950 S    
C56   H25   1.083183 S    
C73   C74   1.398307 A    
C37   H5    1.083545 S    
C13   H15   1.082764 S    
C54   C55   1.397468 A    
C19   C21   1.408265 A    
C71   H37   1.082254 S    
C43   C45   1.400646 A    
C20   C22   1.408247 A    
C9    C11   1.416496 A    
O4    Cu2   1.963123 S    
C59   C60   1.397257 A    
O2    Cu2   1.963091 S    
O7    C4    1.295897 A    
C24   H4    1.083543 S    
O8    C3    1.292311 A    
C47   H17   1.081569 S    
C65   H32   1.082252 S    
O5    Cu1   1.951326 S    
C42   C44   1.382722 A    
C67   H34   1.082396 S    
C3    C27   1.478207 S    
C60   C61   1.397495 A    
C57   C58   1.404731 A    
C41   C46   1.400622 A    
C41   C43   1.382449 A    
C51   C52   1.404638 A    
C55   H24   1.081787 S    
C39   H9    1.076882 S    
C71   C72   1.397942 A    
C2    C45   1.447823 S    
