data_mof_unit_56657.cif
_audit_creation_date              2012-12-10T18:09:45-0500
_audit_creation_method            fapswitch 2.2
_symmetry_space_group_name_H-M    P1
_symmetry_Int_Tables_number       1
_space_group_crystal_system       triclinic
_cell_length_a                    10.710257
_cell_length_b                    12.781664
_cell_length_c                    13.138184
_cell_angle_alpha                 82.082867
_cell_angle_beta                  92.358651
_cell_angle_gamma                 101.720223
_cell_volume                      1744.10604939

loop_
_atom_site_label
_atom_site_type_symbol
_atom_type_description
_atom_site_fract_x
_atom_site_fract_y
_atom_site_fract_z
_atom_type_partial_charge
C1    C     C_R   0.474167 0.440495 0.690569 0.934307
C2    C     C_3   0.120541 0.496186 0.496677 -0.077217
C3    C     C_3   0.094199 0.600448 0.429018 0.061557
C4    C     C_3   0.077371 0.498797 0.608315 -0.221268
C5    C     C_R   0.500935 0.733188 0.056507 0.158442
C6    C     C_R   0.522440 0.597361 0.199606 -0.072094
C7    C     C_R   0.420482 0.297255 0.841596 0.419090
C8    C     C_R   0.395997 0.268027 0.946467 -0.295523
C9    C     C_R   0.400752 0.346271 0.011787 0.088273
C10   C     C_R   0.432497 0.457558 0.971105 0.024006
C11   C     C_R   0.424311 0.485634 0.864208 -0.066832
C12   C     C_R   0.741110 0.501131 0.496819 0.968620
C13   C     C_R   0.467478 0.541960 0.032662 -0.021251
C14   C     C_R   0.466473 0.650934 0.991857 0.080554
C15   C     C_R   0.426383 0.673777 0.889761 0.350039
C16   C     C_R   0.399262 0.589811 0.827601 0.007503
C17   C     C_R   0.509731 0.520466 0.133300 -0.210907
C18   C     C_R   0.524959 0.704837 0.160716 -0.286559
C19   C     C_R   0.436114 0.406889 0.799268 -0.120687
C20   C     C_R   0.273956 0.082684 0.387786 0.410085
C21   C     C_R   0.646589 0.796039 0.635957 0.173121
C22   C     C_R   0.654358 0.890337 0.681538 -0.065402
C23   C     C_R   0.518195 0.560413 0.309285 0.878634
C24   C     C_R   0.584148 0.967516 0.639270 0.197390
C25   C     C_R   0.516821 0.956062 0.544829 -0.034564
C26   C     C_R   0.498544 0.853987 0.508792 0.035240
C27   C     C_R   0.456947 0.038291 0.490164 -0.122684
C28   C     C_R   0.351870 0.008879 0.424140 -0.118440
C29   C     C_R   0.331539 0.909111 0.389346 0.025126
C30   C     C_R   0.408128 0.834851 0.426995 0.359379
C31   C     C_R   0.500333 0.149546 0.494231 0.501748
C32   C     C_R   0.320163 0.190907 0.394960 0.371186
C33   C     C_R   0.258539 0.499439 0.498014 1.014383
C34   C     C_3   0.899512 0.398544 0.447581 -0.288904
C35   C     C_3   0.042807 0.395036 0.450375 0.219467
C36   C     C_3   0.950078 0.602848 0.426794 0.113887
C37   C     C_3   0.929450 0.492421 0.610957 0.466280
C38   C     C_3   0.877673 0.500082 0.495879 -0.035250
H1    H     H_    0.124353 0.579423 0.626466 0.151439
H2    H     H_    0.144919 0.671236 0.465301 0.209861
H3    H     H_    0.543689 0.766892 0.210889 0.165039
H4    H     H_    0.530986 0.442728 0.162282 0.199562
H5    H     H_    0.374317 0.183502 0.977768 0.142497
H6    H     H_    0.848447 0.324315 0.494325 0.250797
H7    H     H_    0.077473 0.396910 0.371224 0.149160
H8    H     H_    0.911185 0.601771 0.346933 0.130318
N1    N     N_R   0.433240 0.222190 0.444680 -0.218294
N2    N     N_R   0.566070 0.776970 0.554790 -0.114166
O1    O     O_R   0.468120 0.366740 0.627160 -0.570623
O2    O     O_R   0.510770 0.544830 0.662520 -0.619510
O3    O     O_R   0.663880 0.410950 0.482330 -0.635065
O4    O     O_R   0.706530 0.589040 0.517700 -0.518179
O5    O     O_R   0.489230 0.455170 0.337480 -0.658408
O6    O     O_R   0.531880 0.633260 0.372840 -0.554050
O7    O     O_R   0.293470 0.410960 0.482300 -0.564144
O8    O     O_R   0.336120 0.589050 0.517670 -0.591276
Zn1   Zn    Zn3+2 0.471520 0.381090 0.476390 0.996273
Zn2   Zn    Zn3+2 0.528480 0.618910 0.523610 1.012677
N3    N     N_3   0.844355 0.394319 0.343239 -0.447574
H9    H     H_    0.903003 0.445819 0.288350 0.154984
H10   H     H_    0.838277 0.316386 0.324722 0.210036
O9    O     O_3   0.931298 0.698851 0.459262 -0.758926
H11   H     H_    0.958170 0.757724 0.402179 0.353428
O10   O     O_3   0.404483 0.775862 0.855152 -0.764062
H12   H     H_    0.404441 0.788883 0.779374 0.321412
N4    N     N_3   0.509442 0.844987 0.018244 -0.385646
H13   H     H_    0.601820 0.886107 0.032938 0.173063
H14   H     H_    0.446055 0.875116 0.059308 0.182709
O11   O     O_3   0.425406 0.219443 0.779329 -0.746864
H15   H     H_    0.410295 0.147413 0.821146 0.331272
N5    N     N_3   0.359158 0.312686 0.116086 -0.465344
H16   H     H_    0.272162 0.336269 0.122345 0.207515
H17   H     H_    0.341940 0.228742 0.133829 0.199023
N6    N     N_3   0.320798 0.603089 0.738035 -0.429419
H18   H     H_    0.368403 0.664879 0.684708 0.212494
H19   H     H_    0.239792 0.627296 0.760792 0.186295
O12   O     O_3   0.249340 0.263986 0.350911 -0.795168
H20   H     H_    0.308466 0.331154 0.326764 0.382373
N7    N     N_3   0.239958 0.887249 0.307721 -0.371160
H21   H     H_    0.286698 0.885239 0.239919 0.166478
H22   H     H_    0.176306 0.814930 0.328649 0.243581
O13   O     O_3   0.154477 0.047265 0.345663 -0.738079
H23   H     H_    0.107562 0.106934 0.330705 0.367790
O14   O     O_3   0.616106 0.185567 0.538938 -0.765291
H24   H     H_    0.604191 0.243387 0.577960 0.384675
N8    N     N_3   0.715829 0.715525 0.678685 -0.323586
H25   H     H_    0.812605 0.751203 0.679268 0.200793
H26   H     H_    0.687313 0.688633 0.754527 0.172271
N9    N     N_3   0.565076 0.047286 0.700781 -0.390429
H27   H     H_    0.654163 0.090856 0.720890 0.232264
H28   H     H_    0.520338 0.007406 0.768573 0.207871
N10   N     N_3   0.726933 0.906151 0.774412 -0.467348
H29   H     H_    0.691671 0.843068 0.831735 0.203605
H30   H     H_    0.822092 0.904823 0.761156 0.194071
O15   O     O_3   0.387368 0.740657 0.387302 -0.691265
H31   H     H_    0.363830 0.750787 0.313665 0.339342
O16   O     O_3   0.061971 0.298130 0.507840 -0.733760
H32   H     H_    0.028103 0.239485 0.465742 0.359414
O17   O     O_3   0.144459 0.613059 0.329491 -0.798020
H33   H     H_    0.089601 0.562225 0.288283 0.324269
O18   O     O_3   0.902967 0.577699 0.659251 -0.749210
H34   H     H_    0.962030 0.646086 0.635469 0.362838
N11   N     N_3   0.861661 0.392090 0.670882 -0.443935
H35   H     H_    0.878693 0.395808 0.749391 0.207598
H36   H     H_    0.890757 0.323498 0.654088 0.181200
N12   N     N_3   0.127051 0.422386 0.686061 -0.438652
H37   H     H_    0.101590 0.433469 0.759217 0.194377
H38   H     H_    0.092988 0.342197 0.676231 0.262060

loop_
_geom_bond_atom_site_label_1
_geom_bond_atom_site_label_2
_ccdc_geom_bond_type
C2    C35   S    
C33   O7    A    
N4    H14   S    
O18   H34   S    
C20   O13   S    
O15   H31   S    
C8    H5    S    
C24   N9    S    
O16   H32   S    
C7    C8    A    
O12   H20   S    
C11   C19   A    
C29   C30   A    
N6    H19   S    
C16   N6    S    
C28   C29   A    
C37   C38   S    
O6    Zn2   S    
N8    H26   S    
N12   H37   S    
C15   C16   A    
O1    Zn1   S    
C30   O15   S    
C34   C35   S    
C17   H4    S    
C32   O12   S    
C8    C9    A    
C15   O10   S    
C36   H8    S    
O3    Zn1   S    
N9    H28   S    
C1    O2    A    
C26   N2    A    
C21   N2    A    
C33   O8    A    
N4    H13   S    
N3    H9    S    
C31   N1    A    
C21   C22   A    
C36   O9    S    
C12   O4    A    
C20   C32   A    
C23   O5    A    
C6    C18   A    
N3    H10   S    
C1    C19   S    
N6    H18   S    
C27   C31   A    
O2    Zn2   S    
C34   H6    S    
C24   C25   A    
C18   H3    S    
C37   N11   S    
O5    Zn1   S    
N8    H25   S    
C5    C18   A    
C20   C28   A    
C25   C26   A    
C4    N12   S    
C31   O14   S    
C2    C4    S    
O9    H11   S    
N1    Zn1   S    
C11   C16   A    
O17   H33   S    
C29   N7    S    
C4    H1    S    
N10   H30   S    
N11   H36   S    
O14   H24   S    
C5    C14   A    
O4    Zn2   S    
C2    C33   S    
C3    H2    S    
C26   C30   A    
C7    C19   A    
O7    Zn1   S    
C34   N3    S    
C32   N1    A    
C22   C24   A    
C35   H7    S    
N11   H35   S    
C12   O3    A    
C23   O6    A    
N7    H22   S    
C9    C10   A    
C6    C17   A    
C21   N8    S    
C34   C38   S    
C9    N5    S    
C5    N4    S    
C10   C13   A    
C7    O11   S    
N2    Zn2   S    
C25   C27   A    
C13   C17   A    
O10   H12   S    
C36   C38   S    
C2    C3    S    
N5    H16   S    
C35   O16   S    
C37   O18   S    
N12   H38   S    
C3    C36   S    
C6    C23   S    
N10   H29   S    
O8    Zn2   S    
C12   C38   S    
O11   H15   S    
C10   C11   A    
N7    H21   S    
C3    O17   S    
C4    C37   S    
O13   H23   S    
N5    H17   S    
C27   C28   A    
C22   N10   S    
C14   C15   A    
N9    H27   S    
C13   C14   A    
C1    O1    A    
