data_mof_unit_12466.cif
_audit_creation_date              2012-12-11T14:17:51-0500
_audit_creation_method            fapswitch 2.2
_symmetry_space_group_name_H-M    P1
_symmetry_Int_Tables_number       1
_space_group_crystal_system       triclinic
_cell_length_a                    11.082307
_cell_length_b                    11.008732
_cell_length_c                    18.920519
_cell_angle_alpha                 89.938492
_cell_angle_beta                  90.417337
_cell_angle_gamma                 120.852407
_cell_volume                      1981.63084082

loop_
_atom_site_label
_atom_site_type_symbol
_atom_type_description
_atom_site_fract_x
_atom_site_fract_y
_atom_site_fract_z
_atom_type_partial_charge
C1    C     C_R   0.535406 0.434758 0.139711 0.555275
C2    C     C_R   0.065865 0.448173 0.530464 -0.147079
C3    C     C_R   0.372273 0.918509 0.528221 -0.142004
C4    C     C_R   0.535146 0.622095 0.522726 -0.164256
C5    C     C_R   0.746730 0.125404 0.585821 -0.079139
C6    C     C_R   0.872779 0.626149 0.587334 -0.074976
C7    C     C_R   0.236633 0.253367 0.568004 -0.092467
C8    C     C_R   0.941036 0.714551 0.448438 -0.098252
C9    C     C_R   0.767013 0.052777 0.447996 -0.084929
C10   C     C_R   0.347878 0.197937 0.454221 -0.093751
C11   C     C_R   0.871969 0.143277 0.561994 -0.115332
C12   C     C_R   0.545434 0.066717 0.145645 0.532183
C13   C     C_R   0.852603 0.732506 0.561560 -0.113935
C14   C     C_R   0.176086 0.116147 0.544144 -0.146445
C15   C     C_R   0.891764 0.780029 0.492899 -0.156357
C16   C     C_R   0.882556 0.106848 0.493063 -0.151006
C17   C     C_R   0.229124 0.089164 0.485539 -0.132131
C18   C     C_R   0.542013 0.425930 0.362474 0.548598
C19   C     C_R   0.544400 0.059064 0.353514 0.530892
C20   C     C_R   0.936984 0.484103 0.354681 0.542114
C21   C     C_R   0.419825 0.542865 0.637923 0.553160
C22   C     C_R   0.060854 0.541771 0.646463 0.520041
C23   C     C_R   0.933100 0.479462 0.145661 0.531796
C24   C     C_R   0.478744 0.934873 0.645334 0.526332
C25   C     C_R   0.498642 0.004179 0.922960 -0.002541
C26   C     C_R   0.997993 0.493035 0.923418 -0.003269
C27   C     C_R   0.511830 0.497629 0.919970 -0.003477
C28   C     C_R   0.973373 0.493749 0.071172 0.004653
C29   C     C_R   0.519568 0.026923 0.070853 0.002751
C30   C     C_R   0.519172 0.465599 0.066428 0.000993
C31   C     C_R   0.380635 0.982386 0.963503 0.028958
C32   C     C_R   0.023035 0.400339 0.965763 0.027840
C33   C     C_R   0.608886 0.615056 0.962269 0.024885
C34   C     C_R   0.460983 0.518713 0.851693 0.560305
C35   C     C_R   0.024909 0.412663 0.040434 0.017669
C36   C     C_R   0.387856 0.978900 0.038223 0.013971
C37   C     C_R   0.599011 0.602444 0.036665 0.019306
C38   C     C_R   0.639066 0.070078 0.028805 -0.136230
C39   C     C_R   0.927673 0.565781 0.027418 -0.138301
C40   C     C_R   0.442790 0.347662 0.022405 -0.149565
C41   C     C_R   0.943194 0.568476 0.955027 -0.144976
C42   C     C_R   0.628157 0.055562 0.956331 -0.147222
C43   C     C_R   0.435940 0.363779 0.950403 -0.144430
C44   C     C_R   0.255405 0.963184 0.932513 -0.086717
C45   C     C_R   0.061159 0.540203 0.852870 0.547653
C46   C     C_R   0.046886 0.296209 0.936727 -0.089166
C47   C     C_R   0.712893 0.745568 0.933298 -0.089353
C48   C     C_R   0.076427 0.341958 0.082061 -0.095576
C49   C     C_R   0.263819 0.930465 0.077919 -0.098706
C50   C     C_R   0.669026 0.727193 0.078247 -0.094295
C51   C     C_R   0.136126 0.921019 0.972876 -0.136946
C52   C     C_R   0.091776 0.223405 0.979030 -0.135080
C53   C     C_R   0.787508 0.864808 0.975759 -0.135958
C54   C     C_R   0.109343 0.248051 0.051305 -0.122801
C55   C     C_R   0.139536 0.903049 0.045288 -0.128340
C56   C     C_R   0.480650 0.939573 0.852571 0.547555
C57   C     C_R   0.763577 0.856541 0.047892 -0.132423
C58   C     C_R   0.491804 0.984880 0.572757 0.004597
C59   C     C_R   0.005847 0.504779 0.574761 -0.002584
C60   C     C_R   0.437735 0.511457 0.564895 0.001292
C61   C     C_R   0.987761 0.514788 0.427887 0.002543
C62   C     C_R   0.520205 0.999536 0.425568 -0.005167
C63   C     C_R   0.513431 0.454414 0.434046 0.008754
C64   C     C_R   0.625543 0.055529 0.543069 0.019789
C65   C     C_R   0.938064 0.570779 0.544978 0.023861
C66   C     C_R   0.360461 0.369477 0.536937 0.041241
C67   C     C_R   0.386745 0.930526 0.454851 -0.182935
C68   C     C_R   0.953974 0.599288 0.472258 0.032780
C69   C     C_R   0.638263 0.037272 0.470828 0.041349
C70   C     C_R   0.409805 0.340691 0.475269 0.018384
C71   C     C_R   0.045959 0.441624 0.458071 -0.148144
C72   C     C_R   0.569409 0.594047 0.456846 -0.132144
Cr1   Cr    Cr6+3 0.768550 0.541320 0.250660 0.994731
Cr2   Cr    Cr6+3 0.458680 0.227230 0.250660 0.991756
Cr3   Cr    Cr6+3 0.772770 0.231450 0.250660 0.997834
Cr4   Cr    Cr6+3 0.541320 0.768550 0.749340 0.995424
Cr5   Cr    Cr6+3 0.227230 0.458680 0.749340 0.982977
Cr6   Cr    Cr6+3 0.231450 0.772770 0.749340 1.001237
H1    H     H_    0.248562 0.986137 0.877677 0.133411
H2    H     H_    0.146220 0.192453 0.083807 0.126863
H3    H     H_    0.046145 0.869534 0.076419 0.121296
H4    H     H_    0.819458 0.950296 0.080576 0.119374
H5    H     H_    0.742206 0.155202 0.639873 0.121860
H6    H     H_    0.845968 0.594019 0.641852 0.126663
H7    H     H_    0.175409 0.261619 0.608863 0.143108
H8    H     H_    0.977776 0.763748 0.397588 0.138795
H9    H     H_    0.778954 0.015177 0.397367 0.138634
H10   H     H_    0.388796 0.168129 0.412927 0.175293
H11   H     H_    0.958702 0.183677 0.598258 0.100895
H12   H     H_    0.025689 0.264353 0.882008 0.134202
H13   H     H_    0.811334 0.781452 0.595571 0.127455
H14   H     H_    0.083562 0.031948 0.569457 0.118792
H15   H     H_    0.881943 0.866447 0.473271 0.105360
H16   H     H_    0.980105 0.121458 0.473460 0.119280
H17   H     H_    0.177275 0.983626 0.464145 0.112936
H18   H     H_    0.743212 0.116244 0.051875 0.151861
H19   H     H_    0.879254 0.621326 0.049197 0.148644
H20   H     H_    0.385928 0.241817 0.044070 0.143554
H21   H     H_    0.916418 0.633947 0.923758 0.131512
H22   H     H_    0.720962 0.080306 0.926404 0.130367
H23   H     H_    0.741953 0.756851 0.878329 0.131474
H24   H     H_    0.366614 0.271825 0.918659 0.128952
H25   H     H_    0.294908 0.886621 0.420807 0.112600
H26   H     H_    0.080539 0.384326 0.425616 0.132812
H27   H     H_    0.640188 0.681908 0.423720 0.138203
H28   H     H_    0.129958 0.410405 0.551912 0.126381
H29   H     H_    0.267767 0.855801 0.549997 0.157276
H30   H     H_    0.585068 0.730731 0.540949 0.136643
H31   H     H_    0.093150 0.359376 0.138399 0.135336
H32   H     H_    0.260978 0.912147 0.134166 0.134006
H33   H     H_    0.649417 0.728131 0.133914 0.146663
H34   H     H_    0.040725 0.902102 0.947339 0.101877
H35   H     H_    0.113640 0.148078 0.955134 0.104569
H36   H     H_    0.862670 0.964370 0.952115 0.101690
O1    O     O_R   0.910960 0.572410 0.171010 -0.531259
O2    O     O_R   0.528530 0.639750 0.824400 -0.506587
O3    O     O_R   0.111220 0.471470 0.824400 -0.513644
O4    O     O_R   0.360250 0.888780 0.824400 -0.509156
O5    O     O_R   0.909330 0.572400 0.331540 -0.544569
O6    O     O_R   0.427600 0.336930 0.331540 -0.523518
O7    O     O_R   0.663070 0.090670 0.331540 -0.526264
O8    O     O_R   0.572400 0.909330 0.668460 -0.536442
O9    O     O_R   0.336930 0.427600 0.668460 -0.541121
O10   O     O_R   0.090670 0.663070 0.668460 -0.523331
O11   O     O_R   0.638240 0.528520 0.324410 -0.497198
O12   O     O_R   0.427590 0.338550 0.171010 -0.517153
O13   O     O_R   0.471480 0.109720 0.324410 -0.536095
O14   O     O_R   0.890280 0.361760 0.324410 -0.491793
O15   O     O_R   0.528520 0.638240 0.675590 -0.500911
O16   O     O_R   0.109720 0.471480 0.675590 -0.536193
O17   O     O_R   0.361760 0.890280 0.675590 -0.502871
O18   O     O_3   0.666667 0.333333 0.250630 -0.262648
O19   O     O_3   0.333333 0.666667 0.749370 -0.252941
O20   O     O_R   0.661450 0.089040 0.171010 -0.524547
O21   O     O_R   0.572410 0.910960 0.828990 -0.519469
O22   O     O_R   0.338550 0.427590 0.828990 -0.515297
O23   O     O_R   0.089040 0.661450 0.828990 -0.517363
O24   O     O_R   0.639750 0.528530 0.175600 -0.514164
O25   O     O_R   0.471470 0.111220 0.175600 -0.520105
O26   O     O_R   0.888780 0.360250 0.175600 -0.511072

loop_
_geom_bond_atom_site_label_1
_geom_bond_atom_site_label_2
_ccdc_geom_bond_type
C25   C31   A    
C71   H26   S    
C26   C32   A    
C51   H34   S    
C47   H23   S    
Cr2   O18   S    
C12   C29   S    
C61   C68   A    
C25   C56   S    
Cr3   O20   S    
C67   H25   S    
C39   C41   A    
C66   C70   A    
C52   H35   S    
C27   C33   A    
C48   C54   A    
C4    H30   S    
C29   C36   A    
C10   H10   S    
C62   C67   A    
Cr1   O5    S    
Cr6   O4    S    
C9    C16   A    
C9    C69   A    
C20   O14   A    
Cr5   O3    S    
Cr3   O26   S    
C31   C36   A    
C18   O11   A    
C40   H20   S    
C5    H5    S    
C18   C63   S    
C39   H19   S    
Cr1   O24   S    
C19   C62   S    
C34   O2    A    
C46   C52   A    
C22   O16   A    
C62   C69   A    
Cr3   O14   S    
C11   C16   A    
C20   C61   S    
Cr3   O18   S    
C1    C30   S    
C26   C45   S    
C7    C14   A    
C28   C35   A    
C29   C38   A    
C41   H21   S    
C17   H17   S    
Cr5   O22   S    
C55   H3    S    
Cr6   O10   S    
C8    H8    S    
C47   C53   A    
C61   C71   A    
C48   H31   S    
Cr1   O18   S    
C60   C66   A    
C12   O20   A    
C13   H13   S    
C14   C17   A    
Cr5   O19   S    
C35   C48   A    
C24   O8    A    
Cr4   O21   S    
C52   C54   A    
C54   H2    S    
C6    C65   A    
C27   C34   S    
C58   C64   A    
C6    H6    S    
C31   C44   A    
C32   C35   A    
C23   O26   A    
C1    O12   A    
C21   C60   S    
C22   C59   S    
C53   C57   A    
C2    C59   A    
C28   C39   A    
C3    H29   S    
C49   C55   A    
C2    H28   S    
C33   C37   A    
C30   C37   A    
C21   O9    A    
Cr6   O17   S    
C3    C58   A    
Cr5   O9    S    
C42   H22   S    
Cr4   O15   S    
C11   H11   S    
Cr2   O13   S    
C63   C70   A    
C34   O22   A    
C65   C68   A    
C21   O15   A    
C4    C60   A    
C45   O23   A    
C12   O25   A    
C30   C40   A    
Cr2   O12   S    
C23   C28   S    
C72   H27   S    
C14   H14   S    
C10   C70   A    
C44   C51   A    
C8    C68   A    
C8    C15   A    
C13   C15   A    
C5    C11   A    
C33   C47   A    
C2    C71   A    
Cr6   O23   S    
C18   O6    A    
C4    C72   A    
C56   O21   A    
Cr2   O6    S    
C53   H36   S    
C45   O3    A    
C19   O7    A    
Cr3   O7    S    
C50   C57   A    
C32   C46   A    
C44   H1    S    
C3    C67   A    
C25   C42   A    
C15   H15   S    
Cr4   O19   S    
C22   O10   A    
C46   H12   S    
C64   C69   A    
Cr2   O25   S    
C16   H16   S    
Cr1   O1    S    
Cr4   O8    S    
C40   C43   A    
C43   H24   S    
C59   C65   A    
C7    C66   A    
C56   O4    A    
C37   C50   A    
C24   O17   A    
C7    H7    S    
Cr1   O11   S    
C19   O13   A    
C50   H33   S    
Cr4   O2    S    
C51   C55   A    
Cr5   O16   S    
Cr6   O19   S    
C36   C49   A    
C23   O1    A    
C38   C42   A    
C27   C43   A    
C63   C72   A    
C5    C64   A    
C24   C58   S    
C38   H18   S    
C57   H4    S    
C10   C17   A    
C20   O5    A    
C9    H9    S    
C1    O24   A    
C26   C41   A    
C49   H32   S    
C6    C13   A    
