data_mof_unit_43218.cif
_audit_creation_date              2012-10-26T20:19:53-0400
_audit_creation_method            fapswitch 2.2
_symmetry_space_group_name_H-M    P1
_symmetry_Int_Tables_number       1
_space_group_crystal_system       triclinic
_cell_length_a                    15.07169
_cell_length_b                    13.860027
_cell_length_c                    27.773729
_cell_angle_alpha                 89.982042
_cell_angle_beta                  86.385452
_cell_angle_gamma                 90.087668
_cell_volume                      5790.21777641

loop_
_atom_site_label
_atom_site_type_symbol
_atom_type_description
_atom_site_fract_x
_atom_site_fract_y
_atom_site_fract_z
_atom_type_partial_charge
C1    C     C_R   0.328843 0.499881 0.499457 0.544358
C2    C     C_R   0.426169 0.538644 0.873693 0.038394
C3    C     C_R   0.491588 0.500380 0.355256 0.017678
C4    C     C_R   0.508754 0.500441 0.644759 0.018811
C5    C     C_R   0.421056 0.531213 0.976071 0.002647
C6    C     C_R   0.579748 0.531595 0.023933 0.002606
C7    C     C_R   0.582454 0.519305 0.972992 0.002251
C8    C     C_R   0.418355 0.519051 0.027022 0.002116
C9    C     C_R   0.502966 0.524134 0.948929 0.031343
C10   C     C_R   0.497839 0.524266 0.051080 0.031222
C11   C     C_R   0.344133 0.551188 0.951870 -0.114908
C12   C     C_R   0.671167 0.500066 0.499834 0.547411
C13   C     C_R   0.656660 0.551932 0.048118 -0.114983
C14   C     C_R   0.344137 0.554431 0.901357 0.019516
C15   C     C_R   0.656648 0.555307 0.098631 0.019622
C16   C     C_R   0.497405 0.500086 0.407804 0.550210
C17   C     C_R   0.502761 0.500098 0.592198 0.553817
C18   C     C_R   0.338461 0.499787 0.054137 -0.113537
C19   C     C_R   0.662353 0.500282 0.945893 -0.113322
C20   C     C_R   0.815306 0.416721 0.487191 -0.120536
C21   C     C_R   0.184180 0.582348 0.511942 -0.107050
C22   C     C_R   0.767875 0.500135 0.500156 -0.015495
C23   C     C_R   0.495545 0.521428 0.102181 -0.043855
C24   C     C_R   0.232030 0.499492 0.498659 -0.036407
C25   C     C_R   0.812666 0.583539 0.513449 -0.084756
C26   C     C_R   0.187549 0.416187 0.484804 -0.120350
C27   C     C_R   0.905416 0.583975 0.515461 0.030092
C28   C     C_R   0.094256 0.413130 0.485918 0.030670
C29   C     C_R   0.953155 0.499311 0.501031 0.037722
C30   C     C_R   0.046413 0.497925 0.500185 0.038755
C31   C     C_R   0.907577 0.416160 0.486861 0.007266
C32   C     C_R   0.091935 0.582178 0.512970 -0.000349
C33   C     C_R   0.952345 0.666889 0.529958 0.014780
C34   C     C_R   0.505257 0.521175 0.897830 -0.043636
C35   C     C_R   0.046961 0.329597 0.472172 0.019525
C36   C     C_R   0.045114 0.665315 0.527326 -0.141996
C37   C     C_R   0.954307 0.333164 0.472337 -0.142587
C38   C     C_R   0.441950 0.795007 0.530979 0.154208
C39   C     C_R   0.558031 0.205475 0.469121 0.131713
C40   C     C_R   0.558573 0.795196 0.469313 0.152760
C41   C     C_R   0.442539 0.205528 0.531311 0.133967
C42   C     C_R   0.417381 0.486573 0.179432 0.410127
C43   C     C_R   0.583440 0.486517 0.820598 0.410584
C44   C     C_R   0.568233 0.897386 0.474458 -0.046363
C45   C     C_R   0.414210 0.500345 0.129047 0.024191
C46   C     C_R   0.432814 0.103007 0.526857 -0.019586
C47   C     C_R   0.432459 0.897097 0.525977 -0.046492
C48   C     C_R   0.567938 0.103200 0.474129 -0.021202
C49   C     C_R   0.500276 0.948835 0.500231 -0.013241
C50   C     C_R   0.500211 0.051571 0.500320 0.006077
C51   C     C_R   0.644142 0.949135 0.455120 -0.003916
C52   C     C_R   0.357854 0.050927 0.547479 0.012447
C53   C     C_R   0.357145 0.948421 0.546039 0.002978
C54   C     C_R   0.643920 0.051764 0.454690 0.019964
C55   C     C_R   0.567711 0.540686 0.177417 0.433027
C56   C     C_R   0.586603 0.500362 0.870979 0.024241
C57   C     C_R   0.433068 0.539986 0.822585 0.432977
C58   C     C_R   0.546600 0.436576 0.277166 0.059461
C59   C     C_R   0.454116 0.436085 0.722876 0.059393
C60   C     C_R   0.548031 0.439021 0.327461 -0.164345
C61   C     C_R   0.452439 0.438804 0.672596 -0.161271
C62   C     C_R   0.430750 0.560055 0.332388 -0.016002
C63   C     C_R   0.569477 0.560508 0.667623 -0.021507
C64   C     C_R   0.433303 0.561949 0.281923 -0.066739
C65   C     C_R   0.567251 0.561970 0.718091 -0.066123
C66   C     C_R   0.490764 0.501671 0.254052 0.244990
C67   C     C_R   0.333864 0.491952 0.104593 0.015895
C68   C     C_R   0.510031 0.501255 0.745972 0.245391
C69   C     C_3   0.357714 0.615993 0.360035 -0.266444
C70   C     C_3   0.376905 0.724038 0.359832 -0.405191
C71   C     C_3   0.641520 0.618213 0.639999 -0.257234
C72   C     C_3   0.621192 0.725954 0.641307 -0.393812
C73   C     C_2   0.909215 0.756482 0.548973 0.266620
C74   C     C_2   0.088855 0.236588 0.456995 0.229261
C75   C     C_2   0.401059 0.750782 0.575700 0.295473
C76   C     C_2   0.602708 0.254701 0.426966 0.261898
C77   C     C_2   0.600430 0.750448 0.425067 0.301811
C78   C     C_R   0.666951 0.492320 0.895443 0.015586
C79   C     C_2   0.398944 0.255310 0.573450 0.260348
C80   C     C_2   0.728854 0.897170 0.442863 0.260948
C81   C     C_2   0.275154 0.103667 0.563645 0.274353
C82   C     C_2   0.272282 0.896146 0.557909 0.255984
C83   C     C_2   0.728012 0.105394 0.441963 0.250973
C84   C     C_3   0.243230 0.478363 0.132045 -0.237862
C85   C     C_3   0.160547 0.490989 0.103240 -0.470367
C86   C     C_3   0.757585 0.478960 0.868005 -0.237075
C87   C     C_3   0.840272 0.491799 0.896810 -0.469398
C88   C     C_2   0.397806 0.363085 0.749356 0.289250
C89   C     C_R   0.574621 0.539268 0.126307 0.038319
C90   C     C_2   0.603005 0.363866 0.250695 0.287433
C91   C     C_3   0.256416 0.570364 0.877386 -0.234365
C92   C     C_3   0.171073 0.573553 0.910405 -0.470282
C93   C     C_3   0.744357 0.571640 0.122593 -0.234773
C94   C     C_3   0.829704 0.575085 0.089574 -0.470866
Cu1   Cu    Cu3+1 0.500000 0.597420 0.500000 1.039829
Cu2   Cu    Cu3+1 0.500000 0.402580 0.500000 0.953311
H1    H     H_    0.774184 0.647687 0.521678 0.216672
H2    H     H_    0.716838 0.569666 0.027204 0.113100
H3    H     H_    0.279458 0.485455 0.035573 0.116376
H4    H     H_    0.721360 0.486242 0.964473 0.116275
H5    H     H_    0.780456 0.352469 0.476474 0.112797
H6    H     H_    0.218669 0.647070 0.522032 0.215653
H7    H     H_    0.438911 0.738863 0.377861 0.161014
H8    H     H_    0.383550 0.752135 0.322327 0.152646
H9    H     H_    0.321437 0.762503 0.379772 0.162843
H10   H     H_    0.293701 0.603100 0.343252 0.149365
H11   H     H_    0.347196 0.590748 0.397854 0.165134
H12   H     H_    0.227149 0.355464 0.472274 0.190333
H13   H     H_    0.557925 0.740291 0.624490 0.154065
H14   H     H_    0.616335 0.752880 0.679031 0.150885
H15   H     H_    0.675051 0.765972 0.620803 0.205034
H16   H     H_    0.706055 0.605628 0.656256 0.165367
H17   H     H_    0.651486 0.594467 0.601934 0.166607
H18   H     H_    0.941847 0.825505 0.542256 0.136375
H19   H     H_    0.056449 0.190860 0.431634 0.130740
H20   H     H_    0.410776 0.785494 0.609982 0.063255
H21   H     H_    0.637238 0.322209 0.430395 0.132258
H22   H     H_    0.588193 0.781918 0.390345 0.059158
H23   H     H_    0.081236 0.728931 0.537844 0.150009
H24   H     H_    0.361575 0.320846 0.569620 0.140164
H25   H     H_    0.766455 0.910484 0.408969 0.167765
H26   H     H_    0.254800 0.165931 0.543512 0.153001
H27   H     H_    0.235199 0.907252 0.592140 0.168299
H28   H     H_    0.746612 0.165653 0.464184 0.078929
H29   H     H_    0.162172 0.561782 0.084424 0.151401
H30   H     H_    0.155129 0.431319 0.076900 0.151312
H31   H     H_    0.100162 0.488775 0.128303 0.152186
H32   H     H_    0.239950 0.404883 0.148051 0.206375
H33   H     H_    0.236980 0.532948 0.161371 0.185194
H34   H     H_    0.917939 0.269820 0.461629 0.114439
H35   H     H_    0.838724 0.562618 0.915574 0.151552
H36   H     H_    0.845611 0.432180 0.923195 0.151219
H37   H     H_    0.900663 0.489672 0.871755 0.153773
H38   H     H_    0.760820 0.405480 0.852033 0.207270
H39   H     H_    0.763878 0.533550 0.838656 0.186845
H40   H     H_    0.346007 0.326071 0.731095 0.124159
H41   H     H_    0.654744 0.326970 0.268990 0.121641
H42   H     H_    0.163508 0.506348 0.932102 0.153792
H43   H     H_    0.170908 0.637672 0.934392 0.150394
H44   H     H_    0.112816 0.579487 0.888005 0.151223
H45   H     H_    0.388794 0.609339 0.263921 0.129596
H46   H     H_    0.260395 0.639770 0.857340 0.198394
H47   H     H_    0.247276 0.510179 0.851718 0.205399
H48   H     H_    0.837301 0.507856 0.067938 0.153754
H49   H     H_    0.829848 0.639147 0.065530 0.150484
H50   H     H_    0.887956 0.581300 0.111971 0.150202
H51   H     H_    0.740346 0.641075 0.142578 0.197819
H52   H     H_    0.753515 0.511550 0.148314 0.204856
H53   H     H_    0.611650 0.609606 0.736096 0.131231
H54   H     H_    0.406847 0.392277 0.654881 0.146200
H55   H     H_    0.593368 0.392354 0.345232 0.142688
H56   H     H_    0.283954 0.568749 0.972770 0.112993
N1    N     N_R   0.492263 0.508934 0.202218 -0.359621
N2    N     N_R   0.508531 0.508501 0.797803 -0.359888
N3    N     N_R   0.500000 0.743810 0.500000 -0.256680
N4    N     N_R   0.500000 0.256190 0.500000 -0.281726
O1    O     O_R   0.370260 0.582280 0.500010 -0.452416
O2    O     O_2   0.653360 0.449553 0.794178 -0.515778
O3    O     O_2   0.365812 0.572206 0.797199 -0.524910
O4    O     O_2   0.634948 0.573214 0.202784 -0.525806
O5    O     O_2   0.840754 0.754143 0.574852 -0.519177
O6    O     O_2   0.155763 0.206731 0.474436 -0.536905
O7    O     O_2   0.350127 0.682702 0.575114 -0.472465
O8    O     O_2   0.601342 0.218560 0.386915 -0.503392
O9    O     O_2   0.654677 0.685706 0.426492 -0.449011
O10   O     O_2   0.404193 0.221716 0.613830 -0.506983
O11   O     O_2   0.757631 0.839460 0.471209 -0.477171
O12   O     O_R   0.629740 0.417720 0.499990 -0.543524
O13   O     O_2   0.231864 0.081440 0.600611 -0.488143
O14   O     O_2   0.242913 0.840395 0.528815 -0.519151
O15   O     O_2   0.774794 0.085913 0.405817 -0.500028
O16   O     O_2   0.410088 0.340703 0.790917 -0.475540
O17   O     O_2   0.590868 0.341580 0.209106 -0.476424
O18   O     O_R   0.629740 0.582280 0.499990 -0.452282
O19   O     O_R   0.370260 0.417720 0.500010 -0.540487
O20   O     O_R   0.500020 0.582260 0.430260 -0.485628
O21   O     O_R   0.499980 0.417740 0.569740 -0.507582
O22   O     O_R   0.499980 0.582260 0.569740 -0.479550
O23   O     O_R   0.500020 0.417740 0.430260 -0.510178
O24   O     O_2   0.347502 0.449281 0.205862 -0.518440

loop_
_geom_bond_atom_site_label_1
_geom_bond_atom_site_label_2
_ccdc_geom_bond_type
C17   O22   A    
C84   H32   S    
C63   C65   A    
C35   C74   S    
C94   H50   S    
C93   C94   S    
C23   C45   A    
Cu2   O19   S    
C12   C22   S    
C27   C29   A    
C87   H37   S    
C85   H29   S    
Cu1   Cu2   S    
C43   O2    S    
C92   H42   S    
C78   C86   S    
C82   O14   D    
C69   H11   S    
C2    C57   A    
C47   C49   A    
C27   C33   A    
C34   C56   A    
C90   O17   D    
C88   O16   D    
C32   C36   A    
C35   C37   A    
Cu1   O18   S    
C24   C26   A    
C5    C11   A    
C68   N2    S    
C11   C14   A    
C70   H8    S    
C64   H45   S    
C77   O9    D    
C46   C52   A    
C84   H33   S    
C33   C36   A    
C56   C78   A    
C37   H34   S    
C71   H17   S    
C93   H52   S    
C75   O7    D    
C87   H35   S    
C13   H2    S    
C36   H23   S    
C51   C80   S    
C73   O5    D    
C59   C88   S    
C58   C66   A    
C28   C35   A    
C42   O24   S    
C22   C25   A    
C83   O15   D    
C45   C67   A    
C62   C64   A    
C41   C46   A    
Cu2   O12   S    
C40   N3    A    
C81   O13   D    
Cu2   O21   S    
C43   N2    A    
C61   H54   S    
C80   O11   D    
C16   O23   A    
C47   C53   A    
C91   H46   S    
C3    C60   A    
C16   O20   A    
C94   H49   S    
C48   C50   A    
C57   O3    S    
C72   H15   S    
C67   C84   S    
C79   O10   D    
C71   H16   S    
C85   H30   S    
C52   C81   S    
C38   N3    A    
C54   C83   S    
C86   H38   S    
C91   H47   S    
C38   C75   S    
C21   C32   A    
C72   H14   S    
C59   C61   A    
C42   N1    A    
C84   C85   S    
C88   H40   S    
C77   H22   S    
C26   H12   S    
C91   C92   S    
C74   O6    D    
C86   C87   S    
C20   H5    S    
C18   C67   A    
C4    C61   A    
C44   C49   A    
C8    C18   A    
C73   H18   S    
C31   C37   A    
C62   C69   S    
C53   C82   S    
C60   H55   S    
C64   C66   A    
C87   H36   S    
C19   C78   A    
C48   C54   A    
Cu1   O20   S    
C5    C9    A    
C29   C30   A    
C59   C68   A    
C15   C89   A    
C11   H56   S    
Cu1   O22   S    
C4    C63   A    
C19   H4    S    
C65   C68   A    
C79   H24   S    
C23   C89   A    
C39   C76   S    
C58   C90   S    
C38   C47   A    
C4    C17   S    
C44   C51   A    
C25   H1    S    
C55   O4    S    
C20   C22   A    
C7    C19   A    
C80   H25   S    
C13   C15   A    
C9    C34   A    
C83   H28   S    
C85   H31   S    
C15   C93   S    
C21   H6    S    
C92   H44   S    
C82   H27   S    
C90   H41   S    
C52   C53   A    
C12   O18   A    
C41   C79   S    
C3    C62   A    
C33   C73   S    
C55   N1    A    
C72   H13   S    
C1    O19   A    
Cu1   O1    S    
C8    C10   A    
C63   C71   S    
C70   H9    S    
C12   O12   A    
C5    C8    A    
C69   H10   S    
C6    C7    A    
C10   C23   A    
C25   C27   A    
C66   N1    S    
C57   N2    A    
C46   C50   A    
C26   C28   A    
C76   H21   S    
C81   H26   S    
C51   C54   A    
C94   H48   S    
C41   N4    A    
C1    O1    A    
C71   C72   S    
C29   C31   A    
C6    C13   A    
C30   C32   A    
C2    C34   A    
Cu2   N4    S    
C74   H19   S    
C28   C30   A    
C93   H51   S    
Cu1   N3    S    
Cu2   O23   S    
C65   H53   S    
C69   C70   S    
C2    C14   A    
C14   C91   S    
C76   O8    D    
C6    C10   A    
C39   N4    A    
C7    C9    A    
C43   C56   A    
C40   C44   A    
C1    C24   S    
C55   C89   A    
C49   C50   A    
C18   H3    S    
C21   C24   A    
C40   C77   S    
C17   O21   A    
C75   H20   S    
C92   H43   S    
C58   C60   A    
C86   H39   S    
C42   C45   A    
C3    C16   S    
C39   C48   A    
C70   H7    S    
C20   C31   A    
