data_mof_unit_26007.cif
_audit_creation_date              2012-12-10T18:44:20-0500
_audit_creation_method            fapswitch 2.2
_symmetry_space_group_name_H-M    P1
_symmetry_Int_Tables_number       1
_space_group_crystal_system       triclinic
_cell_length_a                    12.725176
_cell_length_b                    10.794472
_cell_length_c                    10.029997
_cell_angle_alpha                 89.106402
_cell_angle_beta                  95.703827
_cell_angle_gamma                 99.563413
_cell_volume                      1351.86162063

loop_
_atom_site_label
_atom_site_type_symbol
_atom_type_description
_atom_site_fract_x
_atom_site_fract_y
_atom_site_fract_z
_atom_type_partial_charge
C1    C     C_R   0.502828 0.260861 0.499973 0.976086
C2    C     C_R   0.698738 0.483506 0.524821 0.965383
C3    C     C_R   0.807061 0.452547 0.536999 -0.377488
C4    C     C_R   0.192795 0.545783 0.462967 -0.335227
C5    C     C_R   0.028450 0.535394 0.320637 0.389172
C6    C     C_R   0.972302 0.463100 0.678146 0.409874
C7    C     C_R   0.139919 0.570317 0.338609 0.291660
C8    C     C_R   0.860866 0.429431 0.661659 0.321144
C9    C     C_R   0.138714 0.544240 0.577357 0.430146
C10   C     C_R   0.861103 0.454561 0.422021 0.432232
C11   C     C_R   0.027851 0.504659 0.565225 -0.215152
C12   C     C_R   0.497697 0.739262 0.500062 0.981373
C13   C     C_R   0.972170 0.494240 0.433590 -0.201312
C14   C     C_R   0.517769 0.065553 0.379562 0.428578
C15   C     C_R   0.485869 0.935232 0.620986 0.427258
C16   C     C_R   0.509728 0.937501 0.382935 -0.146818
C17   C     C_R   0.494484 0.063275 0.617695 -0.154614
C18   C     C_R   0.496136 0.871737 0.502135 -0.218773
C19   C     C_R   0.506838 0.128898 0.498272 -0.220021
C20   C     C_R   0.574130 0.585920 0.079767 0.315347
C21   C     C_R   0.425951 0.414072 0.920062 0.308801
C22   C     C_R   0.574912 0.585255 0.934377 0.329170
C23   C     C_R   0.425135 0.414624 0.065092 0.345015
C24   C     C_R   0.301177 0.515816 0.475206 0.975791
Cl1   Cl    Cl    0.791392 0.375680 0.277198 -0.388152
Cl2   Cl    Cl    0.207640 0.625304 0.721352 -0.433656
Cl3   Cl    Cl    0.963748 0.552338 0.158319 -0.306593
Cl4   Cl    Cl    0.038847 0.440888 0.838289 -0.332043
Cl5   Cl    Cl    0.546171 0.137392 0.224531 -0.385360
Cl6   Cl    Cl    0.456692 0.863643 0.775918 -0.384303
H1    H     H_    0.513475 0.889308 0.290968 0.266907
H2    H     H_    0.491069 0.111417 0.709699 0.267910
H3    H     H_    0.831390 0.160523 0.888865 0.415044
H4    H     H_    0.194949 0.601872 0.029824 0.435451
H5    H     H_    0.827066 0.807360 0.163820 0.401995
H6    H     H_    0.175295 0.187728 0.834789 0.402055
H7    H     H_    0.755562 0.766152 0.683068 0.374352
H8    H     H_    0.231058 0.119716 0.104434 0.401684
N1    N     N_R   0.499970 0.499970 0.857200 -0.226170
N2    N     N_R   0.500030 0.500030 0.142800 -0.223306
O1    O     O_R   0.499990 0.316750 0.614620 -0.566215
O2    O     O_2   0.688412 0.261068 0.718827 -0.331167
O3    O     O_3   0.870458 0.213081 0.821861 -0.468510
O4    O     O_2   0.134307 0.767557 0.169055 -0.209828
O5    O     O_2   0.300886 0.759916 0.305918 -0.299139
O6    O     O_3   0.252984 0.608921 0.104060 -0.463418
O7    O     O_2   0.624770 0.832301 0.135138 -0.246155
O8    O     O_2   0.677535 0.708396 0.321955 -0.289883
O9    O     O_3   0.790625 0.722842 0.133155 -0.409512
O10   O     O_2   0.322424 0.291803 0.678294 -0.276046
O11   O     O_2   0.379587 0.168298 0.863349 -0.234320
O12   O     O_R   0.500010 0.683250 0.385380 -0.569285
O13   O     O_3   0.210777 0.271647 0.868469 -0.423779
O14   O     O_2   0.695416 0.820724 0.913898 -0.190700
O15   O     O_2   0.785143 0.639745 0.899033 -0.185057
O16   O     O_3   0.684144 0.716847 0.694952 -0.530145
O17   O     O_2   0.322018 0.290659 0.286494 -0.270806
O18   O     O_2   0.213973 0.357975 0.100809 -0.203404
O19   O     O_3   0.302834 0.160935 0.082581 -0.422001
O20   O     O_R   0.499990 0.316780 0.385290 -0.551566
O21   O     O_R   0.500010 0.683220 0.614710 -0.537605
O22   O     O_R   0.346360 0.499970 0.595710 -0.544386
O23   O     O_R   0.653640 0.500030 0.404290 -0.540653
O24   O     O_R   0.346360 0.499990 0.366380 -0.537135
O25   O     O_R   0.653640 0.500010 0.633620 -0.538214
O26   O     O_2   0.782432 0.394092 0.903178 -0.154417
S1    S     S_3+6 0.795709 0.324919 0.778970 0.133738
S2    S     S_3+6 0.207523 0.680804 0.228464 0.133748
S3    S     S_3+6 0.664463 0.711891 0.173064 0.143921
S4    S     S_3+6 0.336816 0.287099 0.827107 0.143091
S5    S     S_3+6 0.683495 0.690135 0.859341 0.169280
S6    S     S_3+6 0.316587 0.309005 0.138944 0.168558
Zn1   Zn    Zn3+2 0.500000 0.499980 0.653120 1.175012
Zn2   Zn    Zn3+2 0.500000 0.500020 0.346880 1.182556

loop_
_geom_bond_atom_site_label_1
_geom_bond_atom_site_label_2
_ccdc_geom_bond_type
H5    O9    S    
C15   C18   A    
C24   O22   A    
C12   O12   A    
C5    C7    A    
O22   Zn1   S    
O6    S2    S    
H4    O6    S    
O11   S4    D    
C6    Cl4   S    
C11   C13   A    
C4    C9    A    
O19   S6    S    
C5    C13   A    
C21   N1    A    
O8    S3    D    
O16   S5    S    
C2    O25   A    
O5    S2    D    
N1    Zn1   S    
C2    C3    S    
O10   S4    D    
C24   O24   A    
C3    C10   A    
O9    S3    S    
C16   H1    S    
C12   O21   A    
C9    C11   A    
O18   S6    D    
C8    S1    S    
C4    C7    A    
C4    C24   S    
O13   S4    S    
C14   C19   A    
C10   Cl1   S    
O20   Zn2   S    
C17   C19   A    
N2    Zn2   S    
C9    Cl2   S    
O26   S1    D    
O12   Zn2   S    
C21   C23   A    
O17   S6    D    
O2    S1    D    
C20   N2    A    
C1    O1    A    
C14   C16   A    
C20   S3    S    
O4    S2    D    
C1    C19   S    
C22   N1    A    
C21   S4    S    
O1    Zn1   S    
H8    O19   S    
H3    O3    S    
C22   S5    S    
O25   Zn1   S    
C2    O23   A    
C15   Cl6   S    
C16   C18   A    
C3    C8    A    
C1    O20   A    
C12   C18   S    
C6    C11   A    
C15   C17   A    
C17   H2    S    
O24   Zn2   S    
O7    S3    D    
O3    S1    S    
C6    C8    A    
H6    O13   S    
C14   Cl5   S    
O21   Zn1   S    
C7    S2    S    
C5    Cl3   S    
H7    O16   S    
C23   S6    S    
C10   C13   A    
O15   S5    D    
O14   S5    D    
C23   N2    A    
C20   C22   A    
O23   Zn2   S    
