data_mof_unit_67370.cif
_audit_creation_date              2013-03-05T16:08:39-0500
_audit_creation_method            fapswitch 2.2
_symmetry_space_group_name_H-M    P1
_symmetry_Int_Tables_number       1
_space_group_crystal_system       triclinic
_cell_length_a                    8.279674
_cell_length_b                    15.452904
_cell_length_c                    16.575632
_cell_angle_alpha                 111.483427
_cell_angle_beta                  97.605712
_cell_angle_gamma                 79.646672
_cell_volume                      1936.15960278

loop_
_atom_site_label
_atom_site_type_symbol
_atom_site_description
_atom_site_fract_x
_atom_site_fract_y
_atom_site_fract_z
_atom_type_partial_charge
P1    P     P_3+3 0.592580 0.619750 0.703570 0.570619
O1    O     O_2   0.428380 0.595300 0.716110 -0.313161
O2    O     O_3   0.649320 0.571650 0.606870 -0.403038
O3    O     O_3   0.202060 0.415880 0.655570 -0.306028
O4    O     O_2   0.352163 0.517901 0.802877 -0.324703
O5    O     O_3   0.541577 0.740459 0.722814 -0.497549
O6    O     O_3   0.313633 0.356610 0.800173 -0.495151
C1    C     C_3   0.221898 0.278603 0.882060 -0.727013
H1    H     H_    0.352904 0.257438 0.899379 0.296297
H2    H     H_    0.176196 0.343109 0.934531 0.228283
P2    P     P_3+3 0.156510 0.273300 0.422380 0.597988
P3    P     P_3+3 0.659674 0.242209 0.603864 0.605174
O7    O     O_2   0.338790 0.265210 0.448200 -0.345022
O8    O     O_3   0.612600 0.359140 0.609510 -0.248673
O9    O     O_2   0.516892 0.196795 0.545179 -0.303081
O10   O     O_3   0.123838 0.214005 0.307685 -0.598166
O11   O     O_3   0.621380 0.234359 0.703053 -0.505157
C2    C     C_3   0.759058 0.248452 0.763528 0.812790
H3    H     H_    0.869308 0.247883 0.732497 -0.081338
C3    C     C_3   0.799820 0.168237 0.800537 -0.087731
H4    H     H_    0.757278 0.104187 0.751369 0.132447
C4    C     C_3   0.716358 0.234444 0.337683 0.361855
H5    H     H_    0.821095 0.273828 0.366539 0.107167
H6    H     H_    0.627735 0.248885 0.387375 0.126490
C5    C     C_3   0.782675 0.130347 0.305072 -0.703894
H7    H     H_    0.879422 0.116356 0.259886 0.286061
H8    H     H_    0.834532 0.106950 0.359824 0.168492
H9    H     H_    0.683101 0.088880 0.269933 0.319759
Ba1   Ba    Ba6+2 0.364200 0.465260 0.540900 1.785771
C6    C     C_3   0.490447 0.755916 0.644549 0.383095
H10   H     H_    0.379868 0.722300 0.614193 0.094206
H11   H     H_    0.588479 0.727685 0.598588 0.124699
C7    C     C_3   0.451784 0.861192 0.663544 -0.836336
H12   H     H_    0.354081 0.892583 0.709645 0.321781
H13   H     H_    0.410438 0.875988 0.603045 0.197152
H14   H     H_    0.563653 0.894491 0.692349 0.273283
C8    C     C_3   0.202758 0.238752 0.250574 0.412374
H15   H     H_    0.333604 0.244949 0.273224 0.077221
C9    C     C_3   0.190887 0.161051 0.156565 0.564513
H16   H     H_    0.059140 0.163434 0.132171 0.094420
P4    P     P_3+3 0.597130 0.380170 0.296420 0.549244
O12   O     O_2   0.761310 0.404660 0.283830 -0.291194
O13   O     O_3   0.540390 0.428270 0.393120 -0.398711
O14   O     O_3   0.987650 0.584040 0.344420 -0.346410
O15   O     O_3   0.638096 0.258041 0.267020 -0.510872
P5    P     P_3+3 0.531981 0.753116 0.387500 0.428686
O16   O     O_3   0.122130 0.620580 0.549200 -0.367554
O17   O     O_3   0.577110 0.640790 0.390470 -0.392261
O18   O     O_2   0.663838 0.809028 0.449428 -0.396584
O19   O     O_3   0.568459 0.747615 0.284127 -0.529191
Ba2   Ba    Ba6+2 0.825630 0.534670 0.459090 1.682044
P6    P     P_3+3 0.219450 0.452492 0.769697 0.581488
C10   C     C_3   0.202466 0.296166 0.796432 0.949401
H17   H     H_    0.073439 0.325312 0.784938 -0.037844
H18   H     H_    0.151296 0.222853 0.878593 0.253910
O20   O     O_3   0.067580 0.379340 0.450790 -0.296870
C11   C     C_3   0.003748 0.774766 0.736732 0.052018
H19   H     H_    0.868743 0.779590 0.719934 0.117683
H20   H     H_    0.054342 0.701144 0.730679 0.082928
C12   C     C_3   0.039144 0.842529 0.831050 0.749818
P7    P     P_3+3 0.040396 0.739580 0.571034 0.448196
O21   O     O_2   0.850900 0.734750 0.551740 -0.393532
O22   O     O_3   0.080367 0.802804 0.681557 -0.579724
H21   H     H_    0.934566 0.152227 0.810003 0.144943
C13   C     C_3   0.476303 0.682539 0.221808 0.431039
H22   H     H_    0.522933 0.610477 0.221741 0.102273
H23   H     H_    0.344004 0.700576 0.234289 0.048574
C14   C     C_3   0.493236 0.684643 0.132250 -0.822928
H24   H     H_    0.621126 0.657001 0.113275 0.269945
H25   H     H_    0.409158 0.640297 0.083247 0.215215
H26   H     H_    0.461381 0.757713 0.132545 0.272904
P8    P     P_3+3 0.978710 0.567487 0.234651 0.540123
C15   C     C_3   0.955809 0.747481 0.284061 0.300423
H27   H     H_    0.091632 0.737570 0.284169 -0.006996
O23   O     O_2   0.851007 0.499292 0.189955 -0.322662
O24   O     O_3   0.890571 0.672256 0.218471 -0.508592
H28   H     H_    0.920833 0.753336 0.348371 0.093246
H29   H     H_    0.938421 0.898692 0.321797 0.042440
C16   C     C_3   0.885474 0.839913 0.270138 0.115317
H30   H     H_    0.750210 0.854181 0.274027 0.139809
C17   C     C_2   0.305478 0.493701 0.251310 -0.425993
C18   C     C_R   0.906680 0.550761 0.759151 -0.330093
C19   C     C_2   0.490271 0.401168 0.137029 -0.117354
C20   C     C_2   0.457258 0.428654 0.220673 0.216315
C21   C     C_2   0.187120 0.516752 0.195506 0.272052
C22   C     C_3   0.236667 0.512292 0.109216 -0.193460
C23   C     C_3   0.372610 0.430287 0.070728 0.138916
C24   C     C_2   0.097429 0.521967 0.042889 0.000642
C25   C     C_2   0.126790 0.532954 0.969604 -0.160633
C26   C     C_R   0.836977 0.593212 0.930057 0.249024
C27   C     C_R   0.994398 0.547083 0.903954 0.055815
C28   C     C_R   0.715029 0.615844 0.870946 -0.100017
C29   C     C_R   0.749205 0.592669 0.784307 0.312737
C30   C     C_R   0.026303 0.522351 0.816131 0.142908
H31   H     H_    0.599947 0.351977 0.114198 0.213769
H32   H     H_    0.594784 0.650501 0.892623 0.179609
H33   H     H_    0.284729 0.515155 0.319431 0.188852
H34   H     H_    0.935155 0.538226 0.693599 0.176544
H35   H     H_    0.972364 0.519684 0.053950 0.187657
H36   H     H_    0.253192 0.531237 0.957552 0.151190
C31   C     C_R   0.324018 0.807329 0.424504 0.195534
C32   C     C_R   0.256269 0.899554 0.429594 -0.101448
C33   C     C_R   0.145375 0.095355 0.454776 -0.185300
C34   C     C_R   0.290615 0.043351 0.409522 0.466028
C35   C     C_R   0.330150 0.947150 0.391906 -0.215094
C36   C     C_R   0.084483 0.195305 0.473555 0.144389
H37   H     H_    0.432918 0.911299 0.352842 0.202841
C37   C     C_R   0.948601 0.235415 0.525345 0.024552
C38   C     C_R   0.105896 0.801605 0.506034 0.228320
C39   C     C_R   0.038901 0.895746 0.513302 -0.021910
C40   C     C_R   0.116662 0.945789 0.475860 0.028286
C41   C     C_R   0.896843 0.941284 0.556764 -0.132632
C42   C     C_R   0.832051 0.032548 0.562932 -0.100241
C43   C     C_R   0.912343 0.085311 0.531328 0.082720
C44   C     C_R   0.057372 0.042365 0.486467 0.045210
C45   C     C_R   0.856507 0.181423 0.549340 0.010617
C46   C     C_R   0.244207 0.758347 0.459423 -0.538263
H38   H     H_    0.720537 0.062108 0.596153 0.139581
H39   H     H_    0.833183 0.907347 0.586952 0.178947
H40   H     H_    0.297911 0.688140 0.456503 0.165218
S1    S     S_3+6 0.251689 0.186635 0.711208 -0.012639
O25   O     O_2   0.117366 0.127508 0.693307 -0.408083
O26   O     O_2   0.270104 0.206968 0.631812 -0.272633
O27   O     O_3   0.427341 0.126175 0.737006 -0.465656
H41   H     H_    0.451057 0.071466 0.683282 0.364738
N1    N     N_R   0.117374 0.328695 0.247237 0.192684
O28   O     O_R   0.123544 0.403075 0.316155 -0.371567
O29   O     O_R   0.008636 0.332404 0.183899 -0.343039
S2    S     S_3+6 0.253469 0.040664 0.148924 0.105825
O30   O     O_2   0.174245 0.019646 0.214816 -0.265871
O31   O     O_2   0.199592 0.977679 0.060103 -0.130989
O32   O     O_3   0.459464 0.016872 0.161598 -0.460118
H42   H     H_    0.481573 0.951222 0.160322 0.366655
S3    S     S_3+6 0.299524 0.181582 0.079569 0.035808
O33   O     O_2   0.226590 0.272702 0.068082 -0.318791
O34   O     O_2   0.478247 0.183510 0.109976 -0.246248
O35   O     O_3   0.283775 0.095187 0.982502 -0.381473
H43   H     H_    0.364836 0.103147 0.947677 0.410723
S4    S     S_3+6 0.969083 0.961293 0.835139 0.039439
O36   O     O_2   0.795481 0.966199 0.795377 -0.375922
O37   O     O_2   0.972191 0.029460 0.927042 -0.120731
O38   O     O_3   0.091294 0.991846 0.779700 -0.491134
H44   H     H_    0.031981 0.983420 0.722159 0.360498
S5    S     S_3+6 0.929096 0.821470 0.907011 0.027065
O39   O     O_2   0.015223 0.735620 0.924453 -0.285425
O40   O     O_2   0.924364 0.902276 0.991813 -0.115936
O41   O     O_3   0.734496 0.807122 0.868036 -0.554822
H45   H     H_    0.674111 0.871479 0.880203 0.417173
N2    N     N_R   0.217047 0.829167 0.855819 0.247990
O42   O     O_R   0.289957 0.747854 0.857466 -0.367806
O43   O     O_R   0.305056 0.896938 0.875942 -0.262119
S6    S     S_3+6 0.720116 0.361308 0.845235 -0.003414
O44   O     O_2   0.873807 0.384026 0.902323 -0.399351
O45   O     O_2   0.667915 0.429164 0.798542 -0.296587
O46   O     O_3   0.572017 0.369209 0.908464 -0.481283
H46   H     H_    0.549693 0.437043 0.943204 0.353006
S7    S     S_3+6 0.930507 0.839145 0.167758 0.072272
O47   O     O_2   0.876050 0.935478 0.163470 -0.208091
O48   O     O_2   0.112259 0.813120 0.157319 -0.217751
O49   O     O_3   0.829171 0.761575 0.087202 -0.475067
H47   H     H_    0.718645 0.796272 0.079913 0.359539
N3    N     N_R   0.419894 0.082549 0.391261 0.253842
O50   O     O_R   0.399417 0.109875 0.325511 -0.378342
O51   O     O_R   0.571123 0.052606 0.412422 -0.455571
N4    N     N_R   0.913730 0.334513 0.564015 0.237841
O52   O     O_R   0.817022 0.381629 0.521412 -0.376091
O53   O     O_R   0.921818 0.368564 0.648216 -0.449111
N5    N     N_R   0.731659 0.188697 0.883756 0.329511
O54   O     O_R   0.813619 0.232185 0.955627 -0.257048
O55   O     O_R   0.617511 0.142879 0.887611 -0.277363

loop_
_geom_bond_atom_site_label_1
_geom_bond_atom_site_label_2
_geom_bond_distance
_ccdc_geom_bond_type
C1    H1    1.106682 S    
C19   C23   1.510150 S    
C37   N4    1.417868 S    
S7    O47   1.500706 D    
C18   C30   1.401974 A    
C18   H34   1.082114 S    
P4    O12   1.533775 D    
O41   H45   0.990319 S    
P8    O24   1.751340 S    
P7    C38   1.863196 S    
S3    O35   1.679808 S    
S2    O30   1.501583 D    
P8    C21   1.857631 S    
C11   H19   1.111501 S    
C38   C46   1.391382 A    
C21   C22   1.513853 S    
C5    H9    1.104068 S    
C35   H37   1.078815 S    
P5    O18   1.544290 D    
N4    O52   1.298951 A    
C36   C37   1.414977 A    
O3    P6    1.758608 S    
O1    Ba1   2.907843 S    
O7    Ba1   2.937805 S    
O6    P6    1.757062 S    
Ba2   O20   2.810017 S    
N2    O43   1.301195 A    
C34   N3    1.434343 S    
C6    H10   1.103999 S    
S4    O38   1.681325 S    
C22   C24   1.510975 S    
C11   H20   1.111784 S    
C28   H32   1.081303 S    
C7    H14   1.106781 S    
C32   C35   1.380149 A    
P7    O22   1.750695 S    
P1    O1    1.533367 D    
C15   H27   1.107199 S    
O2    Ba1   2.977645 S    
C39   C40   1.426162 A    
C41   C42   1.387133 A    
S1    O27   1.676448 S    
C14   H24   1.108963 S    
O17   Ba2   2.784004 S    
O32   H42   0.990809 S    
C13   H23   1.108323 S    
C4    C5    1.518380 S    
P3    O11   1.765284 S    
P3    O9    1.526457 D    
O4    P6    1.537396 D    
P6    C30   1.847130 S    
C25   C27   1.485143 S    
O3    Ba1   2.846622 S    
O12   Ba2   2.908479 S    
S2    O32   1.680662 S    
S4    O37   1.501625 D    
N5    O55   1.299322 A    
N4    O53   1.295893 A    
C18   C29   1.391358 A    
Ba1   O13   2.841780 S    
P4    O13   1.594841 S    
C32   C40   1.403981 A    
Ba2   O21   2.937882 S    
S5    O41   1.676458 S    
C2    S6    1.778501 S    
C1    H18   1.105912 S    
C34   C35   1.390974 A    
C11   O22   1.403277 S    
N3    O51   1.303578 A    
C4    H5    1.103572 S    
C3    N5    1.464153 S    
P5    C31   1.851374 S    
P5    O17   1.726124 S    
C25   H36   1.085078 S    
P1    O5    1.753892 S    
C31   C32   1.410647 A    
S5    O40   1.499313 D    
C46   H40   1.082089 S    
C9    H16   1.111062 S    
O2    Ba2   2.842401 S    
H29   C16   1.106560 S    
C2    H3    1.102719 S    
C11   C12   1.554490 S    
O16   Ba2   2.961148 S    
C9    S2    1.801011 S    
C5    H7    1.107843 S    
C10   H17   1.102921 S    
P4    C20   1.863106 S    
C16   H30   1.107692 S    
C43   C45   1.404867 A    
P1    O2    1.594841 S    
C3    H21   1.101541 S    
C33   C44   1.451960 A    
O16   P7    1.760839 S    
C8    H15   1.107743 S    
P2    O10   1.790000 S    
C26   C28   1.401425 A    
C19   C20   1.343361 D    
S6    O46   1.676177 S    
C13   C14   1.521993 S    
C19   H31   1.085261 S    
C3    H4    1.107419 S    
P2    C36   1.915439 S    
P1    Ba1   3.478964 S    
O11   C2    1.406619 S    
C15   C16   1.529528 S    
C14   H26   1.110758 S    
P4    O15   1.747648 S    
S6    O44   1.495479 D    
S1    O25   1.496346 D    
C42   C43   1.407492 A    
O14   Ba2   2.845924 S    
P1    C29   1.844859 S    
N5    O54   1.301860 A    
O5    C6    1.401598 S    
Ba1   O16   2.810470 S    
S7    O49   1.678194 S    
C15   O24   1.403418 S    
C4    H6    1.110474 S    
C5    H8    1.104590 S    
O6    C10   1.405318 S    
O8    Ba1   2.783342 S    
S7    O48   1.502223 D    
O46   H46   0.990431 S    
C17   C20   1.479365 S    
C8    N1    1.458557 S    
Ba1   Ba2   4.636283 S    
P5    O19   1.747998 S    
N1    O29   1.300532 A    
C6    C7    1.520675 S    
C22   C23   1.537846 S    
S6    O45   1.492753 D    
S5    O39   1.496120 D    
C1    C10   1.523183 S    
C16   S7    1.780497 S    
C41   H39   1.079168 S    
S3    O34   1.500682 D    
S4    O36   1.500936 D    
C43   C44   1.422582 A    
S3    O33   1.497968 D    
Ba1   O20   2.962049 S    
N3    O50   1.287348 A    
O35   H43   0.991488 S    
O10   C8    1.409991 S    
C31   C46   1.395169 A    
O49   H47   0.990630 S    
C37   C45   1.409869 A    
P3    O8    1.748804 S    
C8    C9    1.584599 S    
C10   S1    1.783139 S    
N2    O42   1.300816 A    
C12   S5    1.797740 S    
C27   C30   1.411739 A    
C6    H11   1.105660 S    
P2    O7    1.508950 D    
P8    O23   1.548753 D    
C26   C27   1.408397 A    
C17   H33   1.082166 S    
O13   Ba2   2.978570 S    
N1    O28   1.293294 A    
C28   C29   1.401838 A    
C7    H13   1.106365 S    
C7    H12   1.106668 S    
O14   P8    1.735421 S    
C33   C36   1.464959 A    
C2    C3    1.542235 S    
C12   N2    1.474296 S    
P7    O21   1.568851 D    
O19   C13   1.402431 S    
C39   C41   1.397527 A    
S1    O26   1.492358 D    
C24   H35   1.084078 S    
C12   S4    1.801626 S    
C42   H38   1.078477 S    
C4    O15   1.397035 S    
C24   C25   1.344473 D    
P2    Ba1   3.505197 S    
C1    H2    1.099903 S    
C13   H22   1.110749 S    
C33   C34   1.450683 A    
C14   H25   1.108183 S    
C15   H28   1.109058 S    
O38   H44   0.987848 S    
C40   C44   1.437515 A    
P3    C45   1.890220 S    
C38   C39   1.427518 A    
P4    Ba2   3.479602 S    
C17   C21   1.348600 D    
P2    O20   1.594338 S    
O27   H41   0.990697 S    
S2    O31   1.498824 D    
C9    S3    1.800444 S    
