data_mof_unit_46506.cif
_audit_creation_date              2012-12-11T15:14:42-0500
_audit_creation_method            fapswitch 2.2
_symmetry_space_group_name_H-M    P1
_symmetry_Int_Tables_number       1
_space_group_crystal_system       triclinic
_cell_length_a                    22.288346
_cell_length_b                    7.231296
_cell_length_c                    19.240395
_cell_angle_alpha                 90.003452
_cell_angle_beta                  99.084432
_cell_angle_gamma                 90.000992
_cell_volume                      3062.1470534

loop_
_atom_site_label
_atom_site_type_symbol
_atom_type_description
_atom_site_fract_x
_atom_site_fract_y
_atom_site_fract_z
_atom_type_partial_charge
O1    O     O_R   0.448470 0.506130 0.415700 -0.533956
O2    O     O_R   0.551530 0.006130 0.584300 -0.533953
O3    O     O_R   0.436320 0.174490 0.555800 -0.529671
O4    O     O_R   0.563680 0.674490 0.444200 -0.529671
C1    C     C_R   0.421188 0.344393 0.575198 0.698236
C2    C     C_R   0.578812 0.844388 0.424803 0.698223
O5    O     O_R   0.441350 0.176340 0.414480 -0.533758
O6    O     O_R   0.558650 0.676340 0.585520 -0.533759
O7    O     O_R   0.556600 0.007100 0.441970 -0.533795
O8    O     O_R   0.443400 0.507100 0.558030 -0.533806
C3    C     C_R   0.427213 0.344691 0.389042 0.671704
C4    C     C_R   0.572785 0.844703 0.610958 0.671700
O9    O     O_3   0.537810 0.339550 0.509190 -0.371049
O10   O     O_3   0.462190 0.839550 0.490810 -0.371055
V1    V     V_3+5 0.492990 0.064280 0.498300 1.448589
V2    V     V_3+5 0.507010 0.564280 0.501700 1.448575
C5    C     C_R   0.866873 0.981707 0.695324 -0.141148
C6    C     C_R   0.133150 0.482136 0.304661 -0.141137
H1    H     H_    0.954142 0.009094 0.759627 0.118073
H2    H     H_    0.045884 0.509547 0.240359 0.118080
H3    H     H_    0.784369 0.979318 0.580018 0.147968
H4    H     H_    0.215663 0.479918 0.419960 0.147990
H5    H     H_    0.885118 0.010846 0.647495 0.132759
H6    H     H_    0.114917 0.511472 0.352483 0.132770
C7    C     C_R   0.884656 0.942433 0.821816 -0.038139
C8    C     C_R   0.115347 0.442493 0.178184 -0.038157
C9    C     C_R   0.590043 0.814285 0.739878 -0.160330
C10   C     C_R   0.409940 0.313984 0.260131 -0.160310
C11   C     C_R   0.626821 0.811282 0.805318 -0.123014
C12   C     C_R   0.373156 0.310873 0.194695 -0.123019
C13   C     C_R   0.689107 0.842871 0.811345 -0.155669
C14   C     C_R   0.310876 0.342576 0.188665 -0.155670
C15   C     C_R   0.716601 0.879120 0.751331 0.078943
C16   C     C_R   0.283395 0.379055 0.248671 0.078947
C17   C     C_R   0.678266 0.883888 0.684043 0.063014
C18   C     C_R   0.321737 0.383950 0.315953 0.063010
C19   C     C_R   0.780746 0.910477 0.755869 0.073161
C20   C     C_R   0.219256 0.410518 0.244131 0.073155
C21   C     C_R   0.804569 0.947633 0.692987 0.124419
C22   C     C_R   0.195447 0.447925 0.307003 0.124416
C23   C     C_R   0.766207 0.951424 0.628011 -0.171959
C24   C     C_R   0.233815 0.451837 0.371974 -0.171923
C25   C     C_R   0.704204 0.919730 0.623483 -0.181742
C26   C     C_R   0.295812 0.420027 0.376505 -0.181754
C27   C     C_R   0.822333 0.907175 0.820334 -0.211772
C28   C     C_R   0.177661 0.407089 0.179671 -0.211779
C29   C     C_R   0.906365 0.980320 0.759125 -0.159033
C30   C     C_R   0.093653 0.480645 0.240865 -0.159016
C31   C     C_R   0.614701 0.850781 0.678866 -0.076324
C32   C     C_R   0.385295 0.350720 0.321134 -0.076344
H7    H     H_    0.807857 0.880098 0.870206 0.092980
H8    H     H_    0.192127 0.379818 0.129806 0.092998
H9    H     H_    0.541843 0.787553 0.736749 0.105300
H10   H     H_    0.458133 0.287143 0.263262 0.105315
H11   H     H_    0.714445 0.837766 0.863813 0.106551
H12   H     H_    0.285534 0.337375 0.136200 0.106550
H13   H     H_    0.606860 0.783257 0.852008 0.116370
H14   H     H_    0.393108 0.282668 0.148010 0.116371
H15   H     H_    0.676615 0.923929 0.571867 0.117502
H16   H     H_    0.323406 0.424324 0.428118 0.117543
C33   C     C_3   0.767117 0.766101 0.297491 0.435728
C34   C     C_3   0.232842 0.266281 0.702440 0.435706
C35   C     C_3   0.804413 0.941722 0.288068 -0.143375
C36   C     C_3   0.195607 0.441984 0.711947 -0.143357
H17   H     H_    0.849169 0.977363 0.319239 0.154157
H18   H     H_    0.150866 0.477825 0.680790 0.154167
H19   H     H_    0.741321 0.192354 0.310770 0.187040
H20   H     H_    0.258791 0.692537 0.689400 0.186820
C37   C     C_1   0.875229 0.940225 0.121160 -0.179957
C38   C     C_1   0.124771 0.440210 0.878839 -0.179965
C39   C     C_1   0.624850 0.854172 0.379226 -0.159773
C40   C     C_1   0.375151 0.354187 0.620775 -0.159774
C41   C     C_3   0.754934 0.735171 0.217101 -0.175803
C42   C     C_3   0.245002 0.235081 0.782812 -0.175799
C43   C     C_3   0.791295 0.912459 0.207697 0.100746
C44   C     C_3   0.208704 0.412448 0.792302 0.100766
C45   C     C_3   0.696125 0.852809 0.212610 -0.203656
C46   C     C_3   0.303855 0.352549 0.787375 -0.203619
C47   C     C_3   0.709024 0.881954 0.292993 0.083008
C48   C     C_3   0.290977 0.381967 0.707009 0.083085
C49   C     C_3   0.733086 0.030098 0.202475 -0.125621
C50   C     C_3   0.266956 0.529914 0.797597 -0.125756
C51   C     C_3   0.745496 0.058915 0.283435 -0.170544
C52   C     C_3   0.254569 0.559008 0.716653 -0.170639
C53   C     C_1   0.837280 0.928865 0.159979 -0.022350
C54   C     C_1   0.162719 0.428849 0.840020 -0.022379
C55   C     C_1   0.662922 0.865580 0.340583 0.020565
C56   C     C_1   0.337079 0.365597 0.659419 0.020537
H21   H     H_    0.719175 0.139944 0.162904 0.121260
H22   H     H_    0.280901 0.639605 0.837230 0.121227
H23   H     H_    0.651362 0.816407 0.181630 0.128000
H24   H     H_    0.348603 0.315944 0.818341 0.127989
H25   H     H_    0.759112 0.601134 0.190126 0.132242
H26   H     H_    0.240773 0.100966 0.809709 0.132263
O11   O     O_R   0.056650 0.288730 0.942060 -0.532584
O12   O     O_R   0.943350 0.788730 0.057940 -0.532580
O13   O     O_R   0.058660 0.616870 0.085540 -0.535764
O14   O     O_R   0.941340 0.116870 0.914460 -0.535756
C57   C     C_R   0.072809 0.448770 0.111031 0.682596
C58   C     C_R   0.927192 0.948757 0.888969 0.682594
O15   O     O_R   0.063700 0.618520 0.944220 -0.534512
O16   O     O_R   0.936300 0.118520 0.055780 -0.534511
O17   O     O_R   0.948460 0.787610 0.915680 -0.532483
O18   O     O_R   0.051540 0.287610 0.084320 -0.532479
C59   C     C_R   0.078889 0.450009 0.924645 0.712008
C60   C     C_R   0.921111 0.950013 0.075354 0.712002
O19   O     O_3   0.962230 0.453430 0.990860 -0.373609
O20   O     O_3   0.037770 0.953430 0.009140 -0.373614
V3    V     V_3+5 0.007010 0.728750 0.001700 1.432090
V4    V     V_3+5 0.992990 0.228750 0.998300 1.432095
Cl1   Cl    Cl    0.789982 0.589727 0.360681 -0.673561
Cl2   Cl    Cl    0.209930 0.090126 0.639162 -0.673369

loop_
_geom_bond_atom_site_label_1
_geom_bond_atom_site_label_2
_ccdc_geom_bond_type
C47   C51   S    
C35   H17   S    
H19   C51   S    
O14   V4    S    
C7    C27   A    
C9    C11   A    
C23   C25   A    
C42   H26   S    
O1    C3    A    
C41   H25   S    
C48   C52   S    
O2    C4    A    
C2    O7    A    
C47   C55   S    
C4    C31   S    
O3    V1    S    
C21   C23   A    
O5    C3    A    
C5    H5    S    
C42   C44   S    
C6    H6    S    
C34   C48   S    
C26   H16   S    
C1    C40   S    
C46   C48   S    
C27   H7    S    
O15   V3    S    
C28   H8    S    
O20   V3    S    
C5    C21   A    
C33   C35   S    
C6    C22   A    
C36   C52   S    
C34   C36   S    
O11   C59   A    
O13   C57   A    
C10   C32   A    
C43   C53   S    
C17   C31   A    
C13   C15   A    
C12   C14   A    
C17   C25   A    
C7    C29   A    
C8    C30   A    
C8    C57   S    
C49   H21   S    
O5    V1    S    
C57   O18   A    
C40   C56   T    
O6    V2    S    
C11   C13   A    
C41   C43   S    
C24   C26   A    
C49   C51   S    
C45   C47   S    
O15   C59   A    
C2    C39   S    
H20   C52   S    
O4    C2    A    
C44   C50   S    
C10   H10   S    
C43   C49   S    
C46   H24   S    
C38   C59   S    
C58   O17   A    
C15   C19   A    
C35   C51   S    
C14   C16   A    
O4    V2    S    
C37   C53   T    
O13   V3    S    
C46   C50   S    
C7    C58   S    
C45   C49   S    
O6    C4    A    
C36   C44   S    
H1    C29   S    
O1    V2    S    
O2    V1    S    
H2    C30   S    
C39   C55   T    
C11   H13   S    
C50   C52   S    
O19   V4    S    
H3    C23   S    
O16   V4    S    
C19   C27   A    
C33   Cl1   S    
C44   C54   S    
C18   C32   A    
O18   V4    S    
O12   C60   A    
C45   H23   S    
C16   C20   A    
C5    C29   A    
O3    C1    A    
O11   V4    S    
C6    C30   A    
C37   C60   S    
C9    H9    S    
C25   H15   S    
O12   V3    S    
O14   C58   A    
C50   H22   S    
O17   V3    S    
C33   C41   S    
C10   C12   A    
O7    V1    S    
C1    O8    A    
C19   C21   A    
C3    C32   S    
O8    V2    S    
C20   C22   A    
H4    C24   S    
C35   C43   S    
C33   C47   S    
C12   H14   S    
C22   C24   A    
C15   C17   A    
O16   C60   A    
C16   C18   A    
C20   C28   A    
C18   C26   A    
C8    C28   A    
C34   Cl2   S    
C48   C56   S    
C42   C46   S    
O9    V2    S    
C41   C45   S    
O10   V1    S    
C34   C42   S    
C13   H11   S    
C14   H12   S    
C9    C31   A    
C36   H18   S    
C38   C54   T    
