data_mof_unit_39956.cif
_audit_creation_date              2012-10-26T20:13:55-0400
_audit_creation_method            fapswitch 2.2
_symmetry_space_group_name_H-M    P1
_symmetry_Int_Tables_number       1
_space_group_crystal_system       triclinic
_cell_length_a                    8.760265
_cell_length_b                    10.880488
_cell_length_c                    9.530604
_cell_angle_alpha                 90.725467
_cell_angle_beta                  97.797844
_cell_angle_gamma                 90.533117
_cell_volume                      899.890607333

loop_
_atom_site_label
_atom_site_type_symbol
_atom_type_description
_atom_site_fract_x
_atom_site_fract_y
_atom_site_fract_z
_atom_type_partial_charge
C1    C     C_R   0.495983 0.262472 0.498181 0.570186
C2    C     C_R   0.628465 0.536235 0.942582 0.126426
C3    C     C_3   0.708534 0.657464 0.944525 -0.274993
C4    C     C_R   0.203991 0.500405 0.464497 0.552599
C5    C     C_3   0.701816 0.662743 0.103477 -0.049474
C6    C     C_R   0.492467 0.737405 0.499354 0.559167
C7    C     C_R   0.795681 0.503356 0.536337 0.550887
C8    C     C_2   0.038548 0.495164 0.448015 -0.091622
C9    C     C_2   0.960530 0.516264 0.557930 0.065221
C10   C     C_R   0.521815 0.065412 0.619912 -0.021545
C11   C     C_R   0.492733 0.129201 0.493567 -0.018046
C12   C     C_R   0.453302 0.933482 0.366041 0.235693
C13   C     C_R   0.463244 0.062274 0.364297 0.065618
C14   C     C_3   0.262520 0.843254 0.210484 -0.002346
C15   C     C_3   0.225053 0.796915 0.058270 -0.371473
C16   C     C_3   0.695402 0.136201 0.871823 0.000501
C17   C     C_3   0.777186 0.183313 0.013572 -0.376511
C18   C     C_R   0.483225 0.870647 0.496469 -0.021020
C19   C     C_R   0.518462 0.938643 0.622028 -0.111251
C20   C     C_3   0.442788 0.936062 0.754388 -0.214504
C21   C     C_3   0.447052 0.076140 0.753388 0.388903
C22   C     C_R   0.627636 0.538031 0.090126 0.193951
C23   C     C_R   0.381372 0.448981 0.058918 -0.013794
C24   C     C_R   0.381329 0.449069 0.909997 0.022637
Cu1   Cu    Cu3+1 0.499990 0.499980 0.640670 0.961227
Cu2   Cu    Cu3+1 0.500010 0.500020 0.359330 0.971735
H1    H     H_    0.979646 0.467889 0.344516 0.103088
H2    H     H_    0.926771 0.601773 0.145356 0.218831
H3    H     H_    0.989861 0.641958 0.718423 0.217332
H4    H     H_    0.008792 0.493954 0.770501 0.219217
H5    H     H_    0.513248 0.088954 0.165410 0.279801
H6    H     H_    0.325087 0.106066 0.183377 0.229291
H7    H     H_    0.190718 0.925550 0.223576 0.102386
H8    H     H_    0.230781 0.770272 0.282296 0.153219
H9    H     H_    0.294489 0.714499 0.041414 0.168367
H10   H     H_    0.100999 0.772290 0.034499 0.081721
H11   H     H_    0.251699 0.869871 0.984634 0.146431
H12   H     H_    0.284467 0.409125 0.841830 0.149447
H13   H     H_    0.237978 0.113157 0.817319 0.219549
H14   H     H_    0.226874 0.086873 0.641872 0.186331
H15   H     H_    0.720560 0.201879 0.789268 0.157944
H16   H     H_    0.742510 0.044258 0.850320 0.113284
H17   H     H_    0.765426 0.115307 0.097374 0.145535
H18   H     H_    0.901635 0.197607 0.006699 0.082456
H19   H     H_    0.727084 0.272034 0.042332 0.174666
H20   H     H_    0.826279 0.649119 0.914641 0.116368
H21   H     H_    0.636855 0.726808 0.884380 0.135544
H22   H     H_    0.625520 0.735336 0.136864 0.209138
H23   H     H_    0.325286 0.894236 0.735920 0.100770
H24   H     H_    0.517735 0.898868 0.846411 0.135290
H25   H     H_    0.284239 0.409400 0.101810 0.120929
H26   H     H_    0.900817 0.750280 0.187555 0.218743
N1    N     N_R   0.500980 0.500930 0.148050 -0.242771
N2    N     N_R   0.500990 0.500890 0.852140 -0.234098
N3    N     N_3   0.853289 0.661976 0.189573 -0.627321
N4    N     N_3   0.035115 0.556732 0.694903 -0.615535
N5    N     N_3   0.437612 0.124276 0.231158 -0.575674
N6    N     N_3   0.293041 0.130117 0.728637 -0.576291
O1    O     O_R   0.500000 0.319640 0.618810 -0.476466
O2    O     O_3   0.534799 0.129252 0.877276 -0.530367
O3    O     O_R   0.500020 0.319680 0.381230 -0.468939
O4    O     O_R   0.274830 0.499980 0.591380 -0.461373
O5    O     O_R   0.274850 0.500020 0.353800 -0.536550
O6    O     O_R   0.499980 0.680320 0.618770 -0.513932
O7    O     O_R   0.500000 0.680360 0.381190 -0.457373
O8    O     O_R   0.725150 0.499980 0.646200 -0.516509
O9    O     O_R   0.725170 0.500020 0.408620 -0.488663
O10   O     O_3   0.421865 0.870766 0.237927 -0.561988

loop_
_geom_bond_atom_site_label_1
_geom_bond_atom_site_label_2
_ccdc_geom_bond_type
C2    C22   A    
C24   H12   S    
C23   C24   A    
C17   H17   S    
C14   H8    S    
C20   H23   S    
H3    N4    S    
C16   H16   S    
C11   C13   A    
C3    H20   S    
C23   H25   S    
C19   C20   S    
C1    C11   S    
H26   N3    S    
C4    C8    S    
C10   C19   A    
Cu2   O5    S    
H5    N5    S    
C14   H7    S    
C2    C3    S    
Cu1   Cu2   S    
C17   H18   S    
C21   N6    S    
C9    N4    S    
Cu1   N2    S    
C7    O8    A    
C12   O10   S    
C4    O5    A    
C16   C17   S    
H6    N5    S    
C5    N3    S    
Cu2   O9    S    
H13   N6    S    
C3    H21   S    
Cu2   O3    S    
C17   H19   S    
C7    O9    A    
C23   N1    A    
C22   N1    A    
Cu1   O4    S    
C1    O1    A    
C10   C21   S    
C2    N2    A    
C6    C18   S    
C5    H22   S    
C13   N5    S    
C10   C11   A    
C5    C22   S    
C24   N2    A    
Cu2   N1    S    
C4    O4    A    
C15   H10   S    
H14   N6    S    
C12   C13   A    
C21   O2    S    
C7    C9    S    
C18   C19   A    
C16   O2    S    
C12   C18   A    
C15   H9    S    
C8    H1    S    
C14   O10   S    
C14   C15   S    
C15   H11   S    
C20   H24   S    
Cu1   O1    S    
C20   C21   S    
Cu2   O7    S    
H4    N4    S    
C16   H15   S    
H2    N3    S    
C6    O7    A    
Cu1   O8    S    
C6    O6    A    
C8    C9    D    
C3    C5    S    
Cu1   O6    S    
C1    O3    A    
