data_mof_unit_45571.cif
_audit_creation_date              2012-12-11T16:56:11-0500
_audit_creation_method            fapswitch 2.2
_symmetry_space_group_name_H-M    P1
_symmetry_Int_Tables_number       1
_space_group_crystal_system       triclinic
_cell_length_a                    7.026367
_cell_length_b                    14.494475
_cell_length_c                    16.224829
_cell_angle_alpha                 90.387005
_cell_angle_beta                  89.885889
_cell_angle_gamma                 89.977602
_cell_volume                      1652.35227967

loop_
_atom_site_label
_atom_site_type_symbol
_atom_type_description
_atom_site_fract_x
_atom_site_fract_y
_atom_site_fract_z
_atom_type_partial_charge
O1    O     O_R   0.505830 0.583360 0.413880 -0.516799
O2    O     O_R   0.175830 0.595460 0.585520 -0.527041
O3    O     O_R   0.005520 0.416640 0.586120 -0.555831
C1    C     C_R   0.344356 0.617426 0.614073 0.734855
O4    O     O_R   0.176120 0.594390 0.414490 -0.510646
O5    O     O_R   0.005810 0.415570 0.413870 -0.511748
C2    C     C_R   0.344859 0.615796 0.385861 0.861019
O6    O     O_R   0.505540 0.584430 0.586130 -0.560255
O7    O     O_3   0.339200 0.441330 0.500000 -0.371569
V1    V     V_3+5 0.064350 0.510880 0.500000 1.662473
O8    O     O_R   0.676100 0.404540 0.414480 -0.537531
C3    C     C_R   0.845230 0.383126 0.385716 0.855850
O9    O     O_R   0.675810 0.405610 0.585510 -0.521874
C4    C     C_R   0.844258 0.386266 0.615199 0.690713
V2    V     V_3+5 0.564340 0.489120 0.500000 1.638220
O10   O     O_3   0.839360 0.558670 0.500000 -0.363045
C5    C     C_2   0.726427 0.202276 0.779508 0.603977
C6    C     C_2   0.887566 0.173429 0.816662 -0.397250
H1    H     H_    0.024952 0.191776 0.790956 0.183842
C7    C     C_2   0.727629 0.260406 0.704216 0.540824
C8    C     C_2   0.855327 0.328552 0.690518 0.007229
C9    C     C_R   0.753263 0.174525 0.248406 -0.026420
C10   C     C_R   0.881339 0.186148 0.182868 -0.264929
C11   C     C_R   0.009926 0.262232 0.188017 0.342382
C12   C     C_R   0.002176 0.323345 0.256252 0.647382
C13   C     C_R   0.859887 0.314994 0.317488 -0.270656
C14   C     C_R   0.741622 0.237663 0.313294 -0.220044
C15   C     C_3   0.529504 0.229155 0.319096 0.136804
C16   C     C_3   0.542632 0.159495 0.248300 1.093187
H2    H     H_    0.452938 0.293836 0.303460 0.167965
C17   C     C_R   0.526830 0.716166 0.713512 -0.094923
C18   C     C_R   0.354254 0.684895 0.683338 -0.229686
C19   C     C_R   0.192797 0.721938 0.721579 0.520467
C20   C     C_R   0.209708 0.769999 0.797728 0.659232
C21   C     C_R   0.379553 0.812471 0.819301 -0.304704
C22   C     C_R   0.537325 0.785159 0.774169 -0.032539
C23   C     C_3   0.711801 0.746181 0.807630 1.015761
C24   C     C_3   0.684553 0.662498 0.750372 0.049963
H3    H     H_    0.795033 0.643328 0.705526 0.182103
C25   C     C_R   0.486342 0.756347 0.318537 -0.097811
C26   C     C_R   0.352486 0.684620 0.318482 -0.314795
C27   C     C_R   0.220309 0.682286 0.253001 0.603762
C28   C     C_R   0.230408 0.746703 0.188086 0.529807
C29   C     C_R   0.377022 0.813440 0.185448 -0.319856
C30   C     C_R   0.499196 0.818550 0.253449 -0.056258
C31   C     C_3   0.711347 0.821642 0.257179 0.436498
C32   C     C_3   0.697317 0.753705 0.328286 0.811778
H4    H     H_    0.781863 0.793781 0.200934 0.114387
O11   O     O_R   0.229930 0.912420 0.917160 -0.516903
O12   O     O_R   0.559420 0.902500 0.088780 -0.546680
O13   O     O_R   0.729660 0.081330 0.089380 -0.516870
C33   C     C_R   0.390333 0.880372 0.116805 0.859177
O14   O     O_R   0.559650 0.901420 0.917750 -0.525456
O15   O     O_R   0.729880 0.080250 0.917130 -0.509545
C34   C     C_R   0.390886 0.878301 0.890046 0.822871
O16   O     O_R   0.229700 0.913500 0.089410 -0.516821
O17   O     O_3   0.396250 0.055540 0.003280 -0.364185
V3    V     V_3+5 0.671130 0.986010 0.003260 1.733068
O18   O     O_R   0.059600 0.091310 0.917720 -0.550086
C35   C     C_R   0.891264 0.111260 0.888476 0.771163
O19   O     O_R   0.059370 0.092380 0.088750 -0.533999
C36   C     C_R   0.890241 0.116183 0.115644 0.753441
V4    V     V_3+5 0.171120 0.007820 0.003230 1.721027
O20   O     O_3   0.896130 0.938240 0.003240 -0.356080
F1    F     F_    0.553775 0.172378 0.806451 -0.632889
F2    F     F_    0.492985 0.070125 0.268989 -0.632980
F3    F     F_    0.033700 0.730123 0.676379 -0.670829
F4    F     F_    0.092602 0.749579 0.861174 -0.646260
O21   O     O_3   0.700322 0.727288 0.892384 -0.607241
H5    H     H_    0.798232 0.679961 0.904068 0.363524
F5    F     F_    0.844854 0.811500 0.787034 -0.630068
O22   O     O_3   0.615002 0.585483 0.793166 -0.630748
H6    H     H_    0.603787 0.534717 0.752092 0.297561
F6    F     F_    0.092328 0.612492 0.247721 -0.546060
F7    F     F_    0.105453 0.739077 0.124686 -0.618869
F8    F     F_    0.775661 0.908048 0.281106 -0.621090
O23   O     O_3   0.755545 0.789907 0.404431 -0.593623
H7    H     H_    0.896669 0.787487 0.403867 0.320201
F9    F     F_    0.773355 0.667625 0.311092 -0.647517
F10   F     F_    0.585328 0.245050 0.648988 -0.633841
O24   O     O_3   0.990965 0.348354 0.749841 -0.650057
H8    H     H_    0.061575 0.404602 0.733693 0.316816
O25   O     O_3   0.135823 0.283822 0.125645 -0.549066
H9    H     H_    0.088804 0.257393 0.073152 0.304038
F11   F     F_    0.123656 0.396235 0.258078 -0.606195
O26   O     O_3   0.467162 0.190837 0.394009 -0.588283
H10   H     H_    0.555449 0.140415 0.409753 0.363917
F12   F     F_    0.456535 0.189535 0.176774 -0.668830

loop_
_geom_bond_atom_site_label_1
_geom_bond_atom_site_label_2
_ccdc_geom_bond_type
C25   C32   S    
O11   V4    S    
C9    C16   S    
C23   O21   S    
C26   C27   A    
C21   C22   A    
C32   F9    S    
C1    O6    A    
C31   F8    S    
O24   H8    S    
O15   C35   A    
C30   C31   S    
C13   C14   A    
C4    C8    S    
C22   C23   S    
C11   O25   S    
C6    H1    S    
C17   C22   A    
O5    C3    A    
C24   H3    S    
V2    O10   S    
C5    C7    S    
C5    C6    D    
C20   C21   A    
O19   V4    S    
C16   F12   S    
O8    V2    S    
C10   C36   S    
C17   C18   A    
O12   C33   A    
C10   C11   A    
O1    V2    S    
O7    V1    S    
O23   H7    S    
C29   C33   S    
O18   C35   A    
O9    C4    A    
V3    O20   S    
O21   H5    S    
O13   C36   A    
O17   V4    S    
C31   H4    S    
O14   C34   A    
C28   F7    S    
C25   C30   A    
C24   O22   S    
C27   F6    S    
C7    F10   S    
C21   C34   S    
O12   V3    S    
C11   C12   A    
C20   F4    S    
O4    C2    A    
O26   H10   S    
C12   C13   A    
O11   C34   A    
C16   F2    S    
C3    C13   S    
O2    C1    A    
C28   C29   A    
C23   C24   S    
O25   H9    S    
O14   V3    S    
C12   F11   S    
C19   C20   A    
O16   V4    S    
O13   V3    S    
C1    C18   S    
O3    C4    A    
C6    C35   S    
C25   C26   A    
C8    O24   S    
O6    V2    S    
C9    C14   A    
O9    V2    S    
C15   O26   S    
C27   C28   A    
C32   O23   S    
O2    V1    S    
C29   C30   A    
C19   F3    S    
O15   V3    S    
C31   C32   S    
C15   C16   S    
O1    C2    A    
C5    F1    S    
O22   H6    S    
O5    V1    S    
O8    C3    A    
O18   V4    S    
C17   C24   S    
C18   C19   A    
C23   F5    S    
O7    V2    S    
O4    V1    S    
O3    V1    S    
V1    O10   S    
O17   V3    S    
C15   H2    S    
C2    C26   S    
O19   C36   A    
V4    O20   S    
C7    C8    D    
C14   C15   S    
C9    C10   A    
C33   O16   A    
