data_mof_unit_40127.cif
_audit_creation_date              2012-12-11T14:19:37-0500
_audit_creation_method            fapswitch 2.2
_symmetry_space_group_name_H-M    P1
_symmetry_Int_Tables_number       1
_space_group_crystal_system       triclinic
_cell_length_a                    19.405768
_cell_length_b                    7.245498
_cell_length_c                    17.716166
_cell_angle_alpha                 89.992623
_cell_angle_beta                  107.713538
_cell_angle_gamma                 90.006135
_cell_volume                      2372.87387922

loop_
_atom_site_label
_atom_site_type_symbol
_atom_type_description
_atom_site_fract_x
_atom_site_fract_y
_atom_site_fract_z
_atom_type_partial_charge
O1    O     O_R   0.414820 0.494320 0.416790 -0.540622
O2    O     O_R   0.585180 0.994320 0.583210 -0.540572
O3    O     O_R   0.560270 0.819500 0.430140 -0.544371
O4    O     O_R   0.439730 0.319500 0.569860 -0.544741
C1    C     C_R   0.581610 0.655593 0.415222 0.707382
C2    C     C_R   0.418406 0.155584 0.584781 0.706874
O5    O     O_R   0.413840 0.823740 0.407440 -0.537919
O6    O     O_R   0.586160 0.323740 0.592560 -0.537985
O7    O     O_R   0.437710 0.998590 0.560350 -0.537373
O8    O     O_R   0.562290 0.498590 0.439650 -0.537066
C3    C     C_R   0.387536 0.654943 0.385328 0.733429
C4    C     C_R   0.612460 0.154941 0.614678 0.735517
O9    O     O_3   0.508000 0.662290 0.550200 -0.380119
O10   O     O_3   0.492000 0.162290 0.449800 -0.379808
V1    V     V_3+5 0.498520 0.935380 0.490690 1.398708
V2    V     V_3+5 0.501480 0.435380 0.509310 1.398184
C5    C     C_2   0.785552 0.271862 0.788167 -0.132831
C6    C     C_2   0.214431 0.771867 0.211854 -0.132645
C7    C     C_2   0.820510 0.113499 0.816949 -0.307690
C8    C     C_2   0.179486 0.613496 0.183057 -0.307765
C9    C     C_2   0.717686 0.284642 0.720074 -0.138425
C10   C     C_2   0.282298 0.784646 0.279945 -0.138188
C11   C     C_2   0.679447 0.138515 0.682420 -0.305161
C12   C     C_2   0.320541 0.638520 0.317595 -0.306833
H1    H     H_    0.697163 0.999441 0.700875 0.131398
H2    H     H_    0.302823 0.499446 0.299145 0.131883
C13   C     C_R   0.320783 0.297644 0.631036 -0.179685
C14   C     C_R   0.679411 0.797636 0.369104 -0.186854
C15   C     C_R   0.367666 0.148703 0.632670 -0.100416
C16   C     C_R   0.632618 0.648533 0.367626 -0.100275
C17   C     C_R   0.365278 0.994004 0.679398 -0.195969
C18   C     C_R   0.635639 0.492909 0.321683 -0.194653
C19   C     C_R   0.318066 0.989492 0.725633 0.124709
C20   C     C_R   0.683280 0.487735 0.275977 0.125132
C21   C     C_R   0.270421 0.139052 0.723158 -0.013345
C22   C     C_R   0.731065 0.637102 0.278599 -0.012859
C23   C     C_R   0.270524 0.292838 0.674193 -0.005237
C24   C     C_R   0.730718 0.791313 0.327244 -0.000529
C25   C     C_R   0.317895 0.837356 0.774459 -0.183326
C26   C     C_R   0.683636 0.335249 0.227419 -0.181918
C27   C     C_R   0.271000 0.832105 0.820478 -0.187498
C28   C     C_R   0.730512 0.329985 0.181394 -0.191739
C29   C     C_R   0.223506 0.979065 0.818711 0.136941
C30   C     C_R   0.777840 0.477216 0.182943 0.134778
C31   C     C_R   0.223068 0.134117 0.769995 0.011468
C32   C     C_R   0.778451 0.632048 0.231821 0.011674
C33   C     C_R   0.175529 0.283232 0.768402 -0.017334
C34   C     C_R   0.825882 0.781293 0.233254 -0.013577
C35   C     C_R   0.174193 0.435359 0.717441 0.209502
C36   C     C_R   0.828029 0.932295 0.285048 0.205373
C37   C     C_R   0.220991 0.439061 0.669821 0.258054
C38   C     C_R   0.780927 0.936513 0.332483 0.256970
C39   C     C_R   0.176559 0.972736 0.865089 -0.221330
C40   C     C_R   0.824381 0.471463 0.136096 -0.221846
C41   C     C_R   0.129636 0.120176 0.864872 -0.075359
C42   C     C_R   0.870695 0.619822 0.135553 -0.075520
C43   C     C_R   0.129565 0.274437 0.816775 -0.197291
C44   C     C_R   0.870701 0.774181 0.183562 -0.197807
H3    H     H_    0.323243 0.416535 0.594969 0.165160
H4    H     H_    0.676154 0.917773 0.404169 0.165253
H5    H     H_    0.353812 0.721561 0.776698 0.130140
H6    H     H_    0.647702 0.219474 0.225188 0.130373
H7    H     H_    0.092155 0.385074 0.816514 0.137505
H8    H     H_    0.907001 0.886578 0.182530 0.138308
O11   O     O_R   0.937810 0.773680 0.060480 -0.538282
O12   O     O_R   0.062190 0.273680 0.939520 -0.538114
O13   O     O_R   0.086190 0.439740 0.092580 -0.541579
O14   O     O_R   0.913810 0.939740 0.907420 -0.541610
C45   C     C_R   0.112436 0.608318 0.114808 0.732644
C46   C     C_R   0.887562 0.108319 0.885195 0.732644
O15   O     O_R   0.939760 0.444210 0.069890 -0.541899
O16   O     O_R   0.060240 0.944210 0.930110 -0.541999
O17   O     O_R   0.914790 0.269640 0.916760 -0.536201
O18   O     O_R   0.085210 0.769640 0.083240 -0.536240
C47   C     C_R   0.919310 0.612429 0.085123 0.694133
C48   C     C_R   0.080706 0.112467 0.914912 0.694184
O19   O     O_3   0.992050 0.601530 0.949880 -0.379166
O20   O     O_3   0.007950 0.101530 0.050120 -0.379213
V3    V     V_3+5 0.001480 0.328340 0.009300 1.392523
V4    V     V_3+5 0.998520 0.828340 0.990700 1.392204
H9    H     H_    0.807607 0.402110 0.815260 0.141125
H10   H     H_    0.192366 0.902122 0.184771 0.141086
N1    N     N_2   0.125917 0.586198 0.712677 -0.516997
H11   H     H_    0.124862 0.637820 0.766490 0.256191
C49   C     C_3   0.054775 0.561237 0.656582 -0.541368
H12   H     H_    0.025480 0.448228 0.676163 0.186463
H13   H     H_    0.058916 0.527820 0.596976 0.211581
H14   H     H_    0.023268 0.690830 0.652174 0.194458
N2    N     N_2   0.876708 0.082407 0.289962 -0.517093
H15   H     H_    0.874716 0.139597 0.236095 0.256630
C50   C     C_3   0.949782 0.050986 0.340667 -0.539057
H16   H     H_    0.977181 0.944980 0.314755 0.184658
H17   H     H_    0.949775 0.004340 0.400231 0.202394
H18   H     H_    0.980981 0.181608 0.347378 0.195884
N3    N     N_2   0.218986 0.592523 0.618521 -0.510340
H19   H     H_    0.205219 0.718215 0.637098 0.297690
C51   C     C_3   0.186135 0.559558 0.534491 -0.569735
H20   H     H_    0.132460 0.628041 0.513661 0.192802
H21   H     H_    0.178853 0.409790 0.520535 0.197312
H22   H     H_    0.221278 0.618822 0.501566 0.201340
N4    N     N_2   0.782190 0.090461 0.383341 -0.510896
H23   H     H_    0.797263 0.214237 0.364368 0.297652
C52   C     C_3   0.817904 0.058285 0.466824 -0.560872
H24   H     H_    0.877198 0.047599 0.478582 0.194941
H25   H     H_    0.798094 0.929900 0.487454 0.196293
H26   H     H_    0.806711 0.175658 0.501645 0.198928
H27   H     H_    0.800223 0.981841 0.790541 0.129290
H28   H     H_    0.199782 0.481830 0.209454 0.129332
H29   H     H_    0.698538 0.422876 0.700956 0.138299
H30   H     H_    0.301446 0.922880 0.299062 0.138541
H31   H     H_    0.401330 0.878659 0.681133 0.127614
H32   H     H_    0.599631 0.377468 0.319995 0.127800
H33   H     H_    0.271686 0.712327 0.857351 0.122047
H34   H     H_    0.729802 0.210213 0.144522 0.122282
H35   H     H_    0.177293 0.853524 0.902345 0.119497
H36   H     H_    0.823638 0.352172 0.098892 0.119965

loop_
_geom_bond_atom_site_label_1
_geom_bond_atom_site_label_2
_ccdc_geom_bond_type
O14   V4    S    
C16   C18   A    
N4    H23   S    
C13   C15   A    
N3    H19   S    
O1    C3    A    
O16   C48   A    
O2    C4    A    
C2    O7    A    
O15   V3    S    
C51   H20   S    
C33   C35   A    
C49   H12   S    
O5    C3    A    
O12   V3    S    
C4    C11   S    
C19   C25   A    
C20   C26   A    
C21   C23   A    
C12   H2    S    
C23   C37   A    
O19   V4    S    
C33   C43   A    
C3    C12   S    
C26   H6    S    
C31   C33   A    
C19   C21   A    
C28   H34   S    
C30   C32   A    
C35   C37   A    
C40   H36   S    
C36   C38   A    
C17   C19   A    
C22   C32   A    
N2    C50   S    
C5    H9    S    
C6    C8    D    
C34   C36   A    
O6    V2    S    
C42   C47   S    
O18   V4    S    
C27   C29   A    
C28   C30   A    
C6    H10   S    
C51   H21   S    
C29   C39   A    
C43   H7    S    
C32   C34   A    
C39   C41   A    
C44   H8    S    
C25   H5    S    
C40   C42   A    
C38   N4    S    
C49   H13   S    
O13   V3    S    
C25   C27   A    
C50   H16   S    
O20   V3    S    
C10   H30   S    
C5    C9    S    
O13   C45   A    
C18   C20   A    
O4    V2    S    
C50   H17   S    
C36   N2    S    
N1    H11   S    
C14   C24   A    
O6    C4    A    
O12   C48   A    
C46   O17   A    
O17   V3    S    
C45   O18   A    
C52   H25   S    
O1    V2    S    
O2    V1    S    
C29   C31   A    
C14   H4    S    
C41   C48   S    
O4    C2    A    
N1    C49   S    
C41   C43   A    
C10   C12   D    
C8    C45   S    
C22   C24   A    
C21   C31   A    
C51   H22   S    
O3    V1    S    
C1    C16   S    
N4    C52   S    
C49   H14   S    
C18   H32   S    
C6    C10   S    
C27   H33   S    
C26   C28   A    
O3    C1    A    
C9    H29   S    
N3    C51   S    
C34   C44   A    
O11   C47   A    
C35   N1    S    
C9    C11   D    
O7    V1    S    
C14   C16   A    
C15   C17   A    
O8    V2    S    
C50   H18   S    
O15   C47   A    
C13   C23   A    
O5    V1    S    
C5    C7    D    
C42   C44   A    
C52   H26   S    
C20   C22   A    
C11   H1    S    
C30   C40   A    
C1    O8    A    
C2    C15   S    
C24   C38   A    
O16   V4    S    
O9    V2    S    
C52   H24   S    
O11   V4    S    
O14   C46   A    
C17   H31   S    
O10   V1    S    
C7    C46   S    
C13   H3    S    
N2    H15   S    
C39   H35   S    
C37   N3    S    
C8    H28   S    
C7    H27   S    
