data_mof_unit_50519.cif
_audit_creation_date              2012-12-11T14:21:07-0500
_audit_creation_method            fapswitch 2.2
_symmetry_space_group_name_H-M    P1
_symmetry_Int_Tables_number       1
_space_group_crystal_system       triclinic
_cell_length_a                    21.978276
_cell_length_b                    7.208455
_cell_length_c                    14.908328
_cell_angle_alpha                 89.983947
_cell_angle_beta                  106.946273
_cell_angle_gamma                 90.12287
_cell_volume                      2259.354303

loop_
_atom_site_label
_atom_site_type_symbol
_atom_type_description
_atom_site_fract_x
_atom_site_fract_y
_atom_site_fract_z
_atom_type_partial_charge
O1    O     O_R   0.584770 0.505770 0.002090 -0.541342
O2    O     O_R   0.415230 0.005770 0.997910 -0.540390
O3    O     O_R   0.467060 0.173340 0.861950 -0.536007
O4    O     O_R   0.532940 0.673340 0.138050 -0.535875
C1    C     C_R   0.455244 0.344147 0.825934 0.696716
C2    C     C_R   0.544841 0.844202 0.174070 0.696883
O5    O     O_R   0.587510 0.175890 0.993210 -0.542385
O6    O     O_R   0.412490 0.675890 0.006790 -0.541618
O7    O     O_R   0.536540 0.008150 0.130100 -0.534621
O8    O     O_R   0.463460 0.508150 0.869900 -0.534830
C3    C     C_R   0.612838 0.345338 0.997536 0.742571
C4    C     C_R   0.386801 0.844938 0.001396 0.741070
O9    O     O_3   0.483140 0.340040 0.044760 -0.377495
O10   O     O_3   0.516860 0.840040 0.955240 -0.378025
V1    V     V_3+5 0.503130 0.064190 0.991700 1.455213
V2    V     V_3+5 0.496870 0.564190 0.008300 1.455345
C5    C     C_2   0.207615 0.733348 0.965192 0.008067
C6    C     C_2   0.784549 0.219721 0.998291 0.026971
C7    C     C_2   0.180362 0.881675 0.995527 -0.332709
C8    C     C_2   0.819257 0.379577 0.003855 -0.364167
H1    H     H_    0.209535 0.998119 0.028715 0.144290
H2    H     H_    0.798344 0.510872 0.014021 0.164480
C9    C     C_2   0.278205 0.717272 0.981662 -0.180997
C10   C     C_2   0.718163 0.215011 0.005392 -0.181171
C11   C     C_2   0.318693 0.862055 0.996930 -0.315744
C12   C     C_2   0.679326 0.362015 0.994833 -0.308054
H3    H     H_    0.296848 0.580637 0.973944 0.168729
H4    H     H_    0.699380 0.079575 0.015713 0.155079
H5    H     H_    0.300923 0.001705 0.998893 0.154834
H6    H     H_    0.695667 0.499244 0.982986 0.145484
C13   C     C_R   0.927587 0.887861 0.723645 -0.093573
C14   C     C_R   0.072762 0.388488 0.276249 -0.087593
C15   C     C_R   0.573280 0.850788 0.275647 -0.086066
C16   C     C_R   0.426931 0.350644 0.724355 -0.086289
C17   C     C_R   0.938120 0.919895 0.567478 0.344894
C18   C     C_R   0.062356 0.419986 0.432499 0.347775
C19   C     C_R   0.965434 0.915206 0.664396 -0.152646
C20   C     C_R   0.034964 0.414552 0.335631 -0.152706
C21   C     C_R   0.861984 0.865977 0.686498 -0.196698
C22   C     C_R   0.138448 0.368885 0.313143 -0.205973
C23   C     C_R   0.831964 0.876898 0.588816 0.046170
C24   C     C_R   0.168475 0.378523 0.410941 0.047454
C25   C     C_R   0.871354 0.902170 0.528973 0.061053
C26   C     C_R   0.129114 0.403130 0.470876 0.060548
C27   C     C_R   0.764253 0.865317 0.549147 0.082030
C28   C     C_R   0.236152 0.366449 0.450681 0.083273
C29   C     C_R   0.736841 0.875099 0.449796 0.079441
C30   C     C_R   0.263556 0.376501 0.550045 0.078752
C31   C     C_R   0.778057 0.897387 0.393409 -0.189138
C32   C     C_R   0.222386 0.399300 0.606418 -0.187959
C33   C     C_R   0.843415 0.910817 0.432114 -0.116005
C34   C     C_R   0.157060 0.412216 0.567730 -0.114292
C35   C     C_R   0.722992 0.846679 0.605692 -0.188332
C36   C     C_R   0.277378 0.346205 0.394233 -0.194010
C37   C     C_R   0.657629 0.834985 0.567137 -0.122289
C38   C     C_R   0.342720 0.334333 0.432848 -0.123323
C39   C     C_R   0.629707 0.841215 0.470256 0.063770
C40   C     C_R   0.370629 0.341300 0.529724 0.064545
C41   C     C_R   0.669131 0.862443 0.410121 0.047382
C42   C     C_R   0.331215 0.363270 0.589782 0.047496
C43   C     C_R   0.562873 0.825567 0.432105 0.348166
C44   C     C_R   0.437422 0.325266 0.567965 0.347692
C45   C     C_R   0.535420 0.828997 0.335265 -0.157396
C46   C     C_R   0.464809 0.328463 0.664826 -0.157229
C47   C     C_R   0.639106 0.868376 0.312253 -0.202758
C48   C     C_R   0.361183 0.369107 0.687658 -0.202524
H7    H     H_    0.871812 0.929069 0.384466 0.184541
H8    H     H_    0.128703 0.430454 0.615413 0.183099
H9    H     H_    0.665184 0.882595 0.261715 0.109159
H10   H     H_    0.335112 0.383793 0.738156 0.109685
H11   H     H_    0.484362 0.813993 0.306304 0.143369
H12   H     H_    0.515826 0.313089 0.693868 0.144345
H13   H     H_    0.629198 0.820372 0.614967 0.179631
H14   H     H_    0.371131 0.318560 0.385085 0.178505
H15   H     H_    0.016368 0.932931 0.693682 0.159800
H16   H     H_    0.984007 0.431198 0.306466 0.147554
H17   H     H_    0.835981 0.843584 0.736401 0.122829
H18   H     H_    0.164420 0.349950 0.262803 0.107780
H19   H     H_    0.761616 0.906619 0.318201 0.133653
H20   H     H_    0.238816 0.409048 0.681617 0.133931
H21   H     H_    0.739304 0.841569 0.681008 0.136689
H22   H     H_    0.261028 0.339285 0.318962 0.125237
O11   O     O_R   0.036450 0.233070 0.130130 -0.539091
O12   O     O_R   0.963550 0.733070 0.869870 -0.538239
O13   O     O_R   0.912470 0.560570 0.006790 -0.539756
O14   O     O_R   0.087530 0.060570 0.993210 -0.536740
C49   C     C_R   0.886729 0.390647 0.001984 0.740747
C50   C     C_R   0.112512 0.891228 0.994854 0.757419
O15   O     O_R   0.032920 0.562940 0.138050 -0.538879
O16   O     O_R   0.967080 0.062940 0.861950 -0.533081
O17   O     O_R   0.084790 0.730500 0.002090 -0.531900
O18   O     O_R   0.915210 0.230500 0.997910 -0.524010
C51   C     C_R   0.044594 0.394575 0.174573 0.697554
C52   C     C_R   0.955592 0.894418 0.825377 0.730706
O19   O     O_3   0.016820 0.396170 0.955260 -0.377348
O20   O     O_3   0.983180 0.896170 0.044740 -0.374042
V3    V     V_3+5 0.996880 0.672090 0.008300 1.496779
V4    V     V_3+5 0.003120 0.172090 0.991700 1.509806
C53   C     C_2   0.168362 0.579717 0.910818 0.779764
O21   O     O_2   0.187548 0.419843 0.922868 -0.577906
O22   O     O_R   0.110788 0.618718 0.842991 -0.657660
H23   H     H_    0.088960 0.503081 0.809975 0.304757
C54   C     C_2   0.809935 0.034774 0.985281 0.791861
O23   O     O_2   0.815804 0.916145 0.045843 -0.573729
O24   O     O_R   0.824257 0.993687 0.902128 -0.665953
H24   H     H_    0.840078 0.861915 0.901287 0.274999
Br1   Br    Br    0.506080 0.796340 0.508007 -0.507413
Br2   Br    Br    0.494240 0.296069 0.492161 -0.506919
Br3   Br    Br    0.994935 0.954123 0.492002 -0.500353
Br4   Br    Br    0.005648 0.453966 0.508128 -0.505123

loop_
_geom_bond_atom_site_label_1
_geom_bond_atom_site_label_2
_ccdc_geom_bond_type
C40   C44   A    
O22   H23   S    
O1    C3    A    
C46   H12   S    
O2    C4    A    
C16   C48   A    
C2    O7    A    
O19   V4    S    
C15   C47   A    
C29   C31   A    
C20   H16   S    
O5    C3    A    
C5    C9    S    
C6    C10   S    
O12   V3    S    
C21   H17   S    
C17   C19   A    
C10   C12   D    
O14   C50   A    
C39   C41   A    
C44   Br2   S    
C40   C42   A    
O11   C51   A    
C8    C49   S    
C35   H21   S    
C24   C28   A    
C27   C29   A    
C43   C45   A    
C44   C46   A    
C13   C21   A    
C31   C33   A    
O11   V4    S    
C32   C34   A    
O16   C52   A    
C9    H3    S    
C17   C25   A    
C34   H8    S    
O6    C4    A    
C26   C34   A    
C30   C32   A    
C14   C51   S    
C19   H15   S    
C42   C48   A    
O6    V2    S    
C49   O18   A    
O20   V3    S    
C23   C25   A    
C24   C26   A    
O14   V4    S    
C30   C42   A    
C28   C30   A    
C35   C37   A    
C11   H5    S    
C36   C38   A    
C38   H14   S    
O13   C49   A    
O18   V4    S    
O4    C2    A    
C7    C50   S    
C33   H7    S    
O5    V1    S    
C3    C12   S    
C27   C35   A    
C31   H19   S    
O15   V3    S    
O4    V2    S    
C53   O21   D    
C50   O17   A    
C15   C45   A    
C1    C16   S    
C28   C36   A    
C16   C46   A    
C54   O24   S    
O1    V2    S    
O12   C52   A    
O17   V3    S    
O2    V1    S    
C5    C53   S    
C53   O22   S    
C45   H11   S    
C12   H6    S    
C14   C20   A    
C37   C39   A    
C18   Br4   S    
C22   H18   S    
C18   C26   A    
C36   H22   S    
C14   C22   A    
O3    V1    S    
C7    H1    S    
C10   H4    S    
C8    H2    S    
O3    C1    A    
C32   H20   S    
C39   C43   A    
C13   C52   S    
O24   H24   S    
C2    C15   S    
C4    C11   S    
C18   C20   A    
O7    V1    S    
C1    O8    A    
O8    V2    S    
C41   C47   A    
C25   C33   A    
C48   H10   S    
C47   H9    S    
C22   C24   A    
C5    C7    D    
C38   C40   A    
C17   Br3   S    
C6    C8    D    
C6    C54   S    
C9    C11   D    
O15   C51   A    
C43   Br1   S    
O13   V3    S    
C29   C41   A    
C37   H13   S    
C13   C19   A    
C21   C23   A    
O9    V2    S    
C54   O23   D    
C23   C27   A    
O10   V1    S    
O16   V4    S    
