data_mof_unit_40397.cif
_audit_creation_date              2012-12-10T18:47:46-0500
_audit_creation_method            fapswitch 2.2
_symmetry_space_group_name_H-M    P1
_symmetry_Int_Tables_number       1
_space_group_crystal_system       triclinic
_cell_length_a                    9.868523
_cell_length_b                    10.633797
_cell_length_c                    15.514419
_cell_angle_alpha                 89.982025
_cell_angle_beta                  67.286368
_cell_angle_gamma                 90.085167
_cell_volume                      1501.81496237

loop_
_atom_site_label
_atom_site_type_symbol
_atom_type_description
_atom_site_fract_x
_atom_site_fract_y
_atom_site_fract_z
_atom_type_partial_charge
Br1   Br    Br    0.090000 0.741623 0.121306 -0.502041
Br2   Br    Br    0.956127 0.373842 0.855747 -0.535887
Br3   Br    Br    0.577260 0.856391 0.666457 -0.507995
Br4   Br    Br    0.421496 0.143372 0.334145 -0.497735
C1    C     C_R   0.498956 0.739728 0.501978 0.928832
C2    C     C_R   0.461521 0.933114 0.435233 -0.225279
C3    C     C_R   0.501156 0.127898 0.497625 -0.141871
C4    C     C_R   0.498639 0.872048 0.502592 -0.139813
C5    C     C_R   0.967950 0.434253 0.434129 -0.052558
C6    C     C_R   0.032011 0.565640 0.565943 -0.042005
C7    C     C_R   0.111566 0.434203 0.434189 -0.033025
C8    C     C_R   0.888391 0.565696 0.565881 -0.033894
C9    C     C_R   0.407900 0.501367 0.675999 0.887764
C10   C     C_R   0.592203 0.501016 0.323851 0.889768
C11   C     C_R   0.351027 0.519782 0.776583 -0.028233
C12   C     C_R   0.500970 0.260252 0.498128 0.934202
C13   C     C_R   0.651205 0.503716 0.222007 -0.046867
C14   C     C_R   0.191124 0.627831 0.915060 -0.133942
C15   C     C_R   0.837478 0.451416 0.071754 -0.125113
C16   C     C_R   0.224146 0.589749 0.823260 -0.122778
C17   C     C_R   0.793830 0.464127 0.168098 -0.140702
C18   C     C_R   0.441910 0.485925 0.822073 -0.203803
C19   C     C_R   0.557314 0.540153 0.178957 -0.207397
C20   C     C_R   0.422283 0.536877 0.908996 0.083973
C21   C     C_R   0.598506 0.530275 0.082420 0.082354
C22   C     C_R   0.290806 0.604486 0.958279 0.081260
C23   C     C_R   0.366685 0.628023 0.087870 -0.228307
C24   C     C_R   0.738767 0.478787 0.028545 0.089084
C25   C     C_R   0.530840 0.522433 0.947172 0.029720
C26   C     C_R   0.498266 0.560638 0.040113 0.019495
C27   C     C_R   0.672367 0.474012 0.894310 -0.221364
C28   C     C_R   0.264465 0.649741 0.048101 0.243806
C29   C     C_R   0.774747 0.452354 0.933812 0.233192
C30   C     C_R   0.536455 0.937682 0.568335 0.278138
C31   C     C_R   0.463098 0.062229 0.431991 0.279700
C32   C     C_R   0.538198 0.066819 0.565027 -0.224974
H1    H     H_    0.447794 0.568150 0.223408 0.154955
H2    H     H_    0.434280 0.880225 0.384313 0.185958
H3    H     H_    0.945565 0.381646 0.381401 0.139511
H4    H     H_    0.054352 0.618131 0.618741 0.140238
H5    H     H_    0.197494 0.381418 0.381466 0.173164
H6    H     H_    0.802427 0.618375 0.618673 0.171758
H7    H     H_    0.531104 0.422732 0.785878 0.149920
H8    H     H_    0.868810 0.437430 0.200695 0.165821
H9    H     H_    0.153200 0.617938 0.788082 0.171282
H10   H     H_    0.091080 0.680476 0.949669 0.194731
H11   H     H_    0.946779 0.416182 0.032396 0.192390
H12   H     H_    0.342237 0.670042 0.155400 0.180747
H13   H     H_    0.709008 0.454301 0.820709 0.174431
H14   H     H_    0.565415 0.119711 0.615952 0.186954
N1    N     N_R   0.142780 0.500030 0.500020 -0.088035
N2    N     N_R   0.857220 0.499970 0.499980 -0.087910
O1    O     O_R   0.385370 0.683250 0.500010 -0.625684
O2    O     O_R   0.614630 0.316750 0.499990 -0.621844
O3    O     O_R   0.614700 0.683220 0.500000 -0.577167
O4    O     O_R   0.385300 0.316780 0.500000 -0.575728
O5    O     O_R   0.319830 0.500020 0.632250 -0.605321
O6    O     O_R   0.680170 0.499980 0.367750 -0.615564
O7    O     O_R   0.549160 0.499990 0.632240 -0.617116
O8    O     O_R   0.450840 0.500010 0.367760 -0.617378
Zn1   Zn    Zn3+2 0.346870 0.500020 0.500000 0.993833
Zn2   Zn    Zn3+2 0.653130 0.499980 0.500000 0.990349

loop_
_geom_bond_atom_site_label_1
_geom_bond_atom_site_label_2
_ccdc_geom_bond_type
C23   H12   S    
O6    Zn2   S    
C1    C4    S    
C2    C4    A    
C27   C29   A    
C22   C28   A    
C25   C26   A    
C9    O7    A    
C19   H1    S    
C17   H8    S    
C10   O8    A    
C3    C32   A    
C14   C16   A    
C18   H7    S    
N1    Zn1   S    
C12   O2    A    
C2    H2    S    
Br4   C31   S    
C25   C27   A    
C4    C30   A    
C21   C24   A    
O5    Zn1   S    
C15   C24   A    
C5    C7    A    
C10   C13   S    
C13   C19   A    
C5    N2    A    
C6    C8    A    
C12   O4    A    
C27   H13   S    
C1    O3    A    
C6    N1    A    
C14   H10   S    
Br2   C29   S    
C1    O1    A    
C3    C12   S    
C15   C17   A    
C20   C22   A    
C24   C29   A    
C7    H5    S    
C30   C32   A    
C9    C11   S    
C7    N1    A    
C11   C16   A    
C10   O6    A    
C18   C20   A    
C9    O5    A    
O1    Zn1   S    
O3    Zn2   S    
C5    H3    S    
C19   C21   A    
C32   H14   S    
C2    C31   A    
C6    H4    S    
C11   C18   A    
C15   H11   S    
C21   C26   A    
C20   C25   A    
O7    Zn2   S    
C8    H6    S    
O2    Zn2   S    
Br3   C30   S    
C8    N2    A    
C23   C28   A    
O4    Zn1   S    
C3    C31   A    
N2    Zn2   S    
Br1   C28   S    
C13   C17   A    
C16   H9    S    
O8    Zn1   S    
C23   C26   A    
C14   C22   A    
