data_mof_unit_41618.cif
_audit_creation_date              2012-12-11T15:20:36-0500
_audit_creation_method            fapswitch 2.2
_symmetry_space_group_name_H-M    P1
_symmetry_Int_Tables_number       1
_space_group_crystal_system       triclinic
_cell_length_a                    21.643405
_cell_length_b                    7.239605
_cell_length_c                    19.875152
_cell_angle_alpha                 89.998486
_cell_angle_beta                  87.367326
_cell_angle_gamma                 89.999709
_cell_volume                      3110.94471156

loop_
_atom_site_label
_atom_site_type_symbol
_atom_type_description
_atom_site_fract_x
_atom_site_fract_y
_atom_site_fract_z
_atom_type_partial_charge
O1    O     O_R   0.688010 0.379840 0.189360 -0.540002
O2    O     O_R   0.311990 0.620160 0.810640 -0.524246
O3    O     O_R   0.811990 0.879840 0.310640 -0.540017
O4    O     O_R   0.188010 0.120160 0.689360 -0.524252
O5    O     O_R   0.808630 0.708850 0.184280 -0.518478
O6    O     O_R   0.191370 0.291150 0.815720 -0.521452
O7    O     O_R   0.691370 0.208850 0.315720 -0.518465
O8    O     O_R   0.308630 0.791150 0.684280 -0.521450
C1    C     C_R   0.830536 0.540995 0.166802 0.734238
C2    C     C_R   0.169513 0.459019 0.833255 0.747243
C3    C     C_R   0.669464 0.040994 0.333197 0.734281
C4    C     C_R   0.330488 0.959022 0.666745 0.747241
O9    O     O_R   0.688260 0.709510 0.181570 -0.523120
O10   O     O_R   0.311740 0.290490 0.818430 -0.541113
O11   O     O_R   0.811740 0.209510 0.318430 -0.523119
O12   O     O_R   0.188260 0.790490 0.681570 -0.541106
O13   O     O_R   0.690760 0.880550 0.307920 -0.520518
O14   O     O_R   0.309240 0.119450 0.692080 -0.521266
O15   O     O_R   0.809240 0.380550 0.192080 -0.520507
O16   O     O_R   0.190760 0.619450 0.807920 -0.521255
C5    C     C_R   0.668930 0.541023 0.165741 0.747961
C6    C     C_R   0.331111 0.459083 0.834318 0.751812
C7    C     C_R   0.831070 0.041021 0.334259 0.747994
C8    C     C_R   0.168890 0.959086 0.665681 0.751819
O17   O     O_3   0.750960 0.546580 0.291460 -0.367772
O18   O     O_3   0.249040 0.453420 0.708540 -0.369057
O19   O     O_3   0.749040 0.046580 0.208540 -0.367759
O20   O     O_3   0.250960 0.953420 0.791460 -0.369053
V1    V     V_3+5 0.749820 0.821150 0.242310 1.484315
V2    V     V_3+5 0.250180 0.178850 0.757690 1.473009
V3    V     V_3+5 0.750180 0.321150 0.257690 1.484340
V4    V     V_3+5 0.249820 0.678850 0.742310 1.473021
C9    C     C_R   0.057842 0.003519 0.639603 -0.056516
C10   C     C_R   0.942758 0.038048 0.360847 -0.058408
C11   C     C_R   0.442161 0.503485 0.860394 -0.056520
C12   C     C_R   0.557243 0.538027 0.139151 -0.058409
C13   C     C_R   0.119315 0.969364 0.616430 -0.174958
C14   C     C_R   0.880292 0.032649 0.383811 -0.171316
C15   C     C_R   0.380687 0.469349 0.883568 -0.174953
C16   C     C_R   0.619709 0.532654 0.116187 -0.171302
C17   C     C_R   0.133311 0.947034 0.546720 -0.075744
C18   C     C_R   0.864933 0.017859 0.453468 -0.071072
C19   C     C_R   0.366690 0.447030 0.953279 -0.075741
C20   C     C_R   0.635070 0.517868 0.046532 -0.071038
C21   C     C_R   0.086869 0.980453 0.499247 0.006908
C22   C     C_R   0.912481 0.023840 0.501124 0.004664
C23   C     C_R   0.413133 0.480443 0.000750 0.006899
C24   C     C_R   0.587522 0.523807 0.998874 0.004664
C25   C     C_R   0.024141 0.000037 0.523246 0.032787
C26   C     C_R   0.975511 0.013278 0.477166 0.031099
C27   C     C_R   0.475862 0.500007 0.976752 0.032790
C28   C     C_R   0.524492 0.513251 0.022831 0.031100
C29   C     C_R   0.009884 0.008433 0.593318 0.063152
C30   C     C_R   0.990228 0.018939 0.407127 0.063325
C31   C     C_R   0.490119 0.508385 0.906679 0.063152
C32   C     C_R   0.509773 0.518921 0.092870 0.063326
C33   C     C_R   0.100535 0.997086 0.428627 -0.001777
C34   C     C_R   0.899813 0.040926 0.571888 -0.005160
C35   C     C_R   0.399466 0.497093 0.071370 -0.001779
C36   C     C_R   0.600190 0.540844 0.928107 -0.005204
C37   C     C_R   0.052520 0.011687 0.384367 -0.221703
C38   C     C_R   0.947863 0.027549 0.616116 -0.225236
C39   C     C_R   0.447481 0.511689 0.115629 -0.221691
C40   C     C_R   0.552140 0.527464 0.883881 -0.225250
H1    H     H_    0.064918 0.022659 0.331090 0.141998
H2    H     H_    0.935890 0.037926 0.669473 0.142674
H3    H     H_    0.435083 0.522681 0.168906 0.142001
H4    H     H_    0.564115 0.537801 0.830522 0.142681
C41   C     C_1   0.382345 0.969275 0.614182 -0.186269
C42   C     C_1   0.617339 0.030854 0.385441 -0.193002
C43   C     C_1   0.117656 0.469269 0.885819 -0.186274
C44   C     C_1   0.882660 0.530857 0.114558 -0.193003
C45   C     C_1   0.425710 0.980063 0.571064 -0.030725
C46   C     C_1   0.573804 0.020061 0.428352 -0.025040
C47   C     C_1   0.074291 0.480056 0.928937 -0.030721
C48   C     C_1   0.926196 0.520062 0.071648 -0.025020
C49   C     C_1   0.477700 0.994067 0.520778 -0.022461
C50   C     C_1   0.521740 0.006145 0.478550 -0.018337
C51   C     C_1   0.022300 0.494062 0.979223 -0.022459
C52   C     C_1   0.978261 0.506144 0.021450 -0.018344
C53   C     C_R   0.043714 0.032277 0.712711 0.083846
C54   C     C_R   0.044631 0.882970 0.757749 -0.136638
C55   C     C_R   0.027774 0.909475 0.825822 -0.124080
C56   C     C_R   0.009630 0.084273 0.849147 -0.079122
C57   C     C_R   0.008646 0.233279 0.804480 -0.131647
C58   C     C_R   0.026230 0.208095 0.736605 -0.139501
H5    H     H_    0.057534 0.746234 0.739977 0.100794
H6    H     H_    0.028023 0.794201 0.860359 0.120931
H7    H     H_    0.996102 0.104091 0.901759 0.117039
H8    H     H_    0.994032 0.368280 0.822348 0.116367
H9    H     H_    0.024995 0.324298 0.702353 0.111953
C59   C     C_R   0.958237 0.066471 0.288080 0.076202
C60   C     C_R   0.957466 0.917547 0.242927 -0.131188
C61   C     C_R   0.975033 0.944406 0.175040 -0.127997
C62   C     C_R   0.993382 0.119347 0.152017 -0.078017
C63   C     C_R   0.994170 0.268003 0.196854 -0.125996
C64   C     C_R   0.976433 0.242059 0.264677 -0.137436
H10   H     H_    0.944007 0.781028 0.260445 0.101617
H11   H     H_    0.975043 0.829435 0.140369 0.119322
H12   H     H_    0.007245 0.139482 0.099511 0.116310
H13   H     H_    0.008805 0.403174 0.179164 0.112804
H14   H     H_    0.977585 0.357810 0.299135 0.111792
C65   C     C_R   0.456288 0.532274 0.787286 0.083837
C66   C     C_R   0.455339 0.383007 0.742236 -0.136633
C67   C     C_R   0.472191 0.409543 0.674163 -0.124074
C68   C     C_R   0.490359 0.584333 0.650848 -0.079134
C69   C     C_R   0.491371 0.733302 0.695526 -0.131640
C70   C     C_R   0.473796 0.708083 0.763403 -0.139515
H15   H     H_    0.442413 0.246282 0.759999 0.100801
H16   H     H_    0.471918 0.294300 0.639616 0.120939
H17   H     H_    0.503882 0.604173 0.598236 0.117041
H18   H     H_    0.505998 0.868301 0.677667 0.116374
H19   H     H_    0.475053 0.824254 0.797665 0.111969
C71   C     C_R   0.541763 0.566409 0.211918 0.076208
C72   C     C_R   0.542487 0.417432 0.257053 -0.131200
C73   C     C_R   0.524910 0.444251 0.324938 -0.128013
C74   C     C_R   0.506599 0.619208 0.347979 -0.078018
C75   C     C_R   0.505859 0.767917 0.303158 -0.125988
C76   C     C_R   0.523605 0.742011 0.235336 -0.137414
H20   H     H_    0.555915 0.280904 0.239521 0.101607
H21   H     H_    0.524861 0.329239 0.359596 0.119312
H22   H     H_    0.492728 0.639314 0.400483 0.116300
H23   H     H_    0.491251 0.903098 0.320860 0.112796
H24   H     H_    0.522489 0.857802 0.200890 0.111770
C77   C     C_2   0.194907 0.872584 0.525217 0.752859
O21   O     O_2   0.198574 0.726039 0.494685 -0.562410
O22   O     O_R   0.248425 0.969795 0.539663 -0.675376
H25   H     H_    0.287222 0.907242 0.520397 0.290354
C78   C     C_2   0.799569 0.979987 0.474498 0.744226
O23   O     O_2   0.785955 0.835148 0.503159 -0.560032
O24   O     O_R   0.753849 0.109768 0.461556 -0.667558
H26   H     H_    0.711657 0.071358 0.480904 0.292291
C79   C     C_2   0.305090 0.372616 0.974784 0.752847
O25   O     O_2   0.301414 0.226076 0.005321 -0.562408
O26   O     O_R   0.251578 0.469858 0.960335 -0.675375
H27   H     H_    0.212777 0.407334 0.979606 0.290354
C80   C     C_2   0.700440 0.480054 0.025508 0.744227
O27   O     O_2   0.714075 0.335186 0.996881 -0.560000
O28   O     O_R   0.746141 0.609918 0.038423 -0.667530
H28   H     H_    0.788339 0.571530 0.019088 0.292297
C81   C     C_R   0.163738 0.026194 0.398334 0.090932
C82   C     C_R   0.188603 0.902895 0.349585 -0.082610
C83   C     C_R   0.247025 0.935468 0.318879 -0.122223
C84   C     C_R   0.280668 0.092067 0.336002 -0.125806
C85   C     C_R   0.255885 0.216653 0.383734 -0.094128
C86   C     C_R   0.197508 0.184572 0.414627 -0.100460
H29   H     H_    0.162801 0.781676 0.335605 0.111197
H30   H     H_    0.266120 0.839700 0.281618 0.124049
H31   H     H_    0.325783 0.117423 0.312005 0.110044
H32   H     H_    0.281792 0.338554 0.396581 0.132454
H33   H     H_    0.178515 0.283008 0.451050 0.142959
C87   C     C_R   0.839126 0.098631 0.602710 0.094663
C88   C     C_R   0.807029 0.983466 0.649324 -0.083084
C89   C     C_R   0.751285 0.042305 0.680670 -0.122583
C90   C     C_R   0.727654 0.216976 0.666407 -0.126131
C91   C     C_R   0.759795 0.333383 0.620897 -0.097985
C92   C     C_R   0.815482 0.274997 0.589309 -0.100128
H34   H     H_    0.825111 0.848330 0.661121 0.109035
H35   H     H_    0.726525 0.952812 0.716226 0.121120
H36   H     H_    0.684640 0.262592 0.690942 0.112520
H37   H     H_    0.741708 0.469214 0.610323 0.141096
H38   H     H_    0.840281 0.367026 0.554615 0.132844
C93   C     C_R   0.336265 0.526230 0.101660 0.090929
C94   C     C_R   0.311397 0.402961 0.150421 -0.082609
C95   C     C_R   0.252976 0.435565 0.181125 -0.122241
C96   C     C_R   0.219338 0.592163 0.163988 -0.125827
C97   C     C_R   0.244123 0.716719 0.116246 -0.094099
C98   C     C_R   0.302499 0.684609 0.085355 -0.100441
H39   H     H_    0.337196 0.281743 0.164411 0.111196
H40   H     H_    0.233881 0.339824 0.218397 0.124049
H41   H     H_    0.174224 0.617542 0.187984 0.110046
H42   H     H_    0.218220 0.838619 0.103388 0.132472
H43   H     H_    0.321494 0.783021 0.048923 0.142957
C99   C     C_R   0.660880 0.598480 0.897276 0.094668
C100  C     C_R   0.692981 0.483207 0.850705 -0.083090
C101  C     C_R   0.748729 0.541973 0.819348 -0.122509
C102  C     C_R   0.772358 0.716681 0.833555 -0.126075
C103  C     C_R   0.740213 0.833193 0.879023 -0.098079
C104  C     C_R   0.684521 0.774878 0.910622 -0.100120
H44   H     H_    0.674899 0.348044 0.838952 0.109032
H45   H     H_    0.773495 0.452397 0.783828 0.121133
H46   H     H_    0.815375 0.762241 0.809010 0.112490
H47   H     H_    0.758297 0.969049 0.889552 0.141015
H48   H     H_    0.659717 0.866985 0.945283 0.132828

loop_
_geom_bond_atom_site_label_1
_geom_bond_atom_site_label_2
_ccdc_geom_bond_type
C34   C38   A    
C4    C41   S    
O1    C5    A    
C95   C96   A    
O19   V1    S    
O13   V1    S    
C69   H18   S    
C67   C68   A    
O3    C7    A    
C62   C63   A    
C1    C44   S    
C44   C48   T    
C12   C71   S    
C99   C104  A    
C19   C79   S    
C103  C104  A    
C3    C42   S    
O26   H27   S    
C76   H24   S    
O7    C3    A    
C80   O28   S    
C21   C33   A    
O5    C1    A    
C20   C80   S    
C33   C37   A    
C40   H4    S    
O9    V1    S    
C94   C95   A    
C71   C76   A    
C67   H16   S    
C14   C18   A    
C11   C65   S    
C58   H9    S    
C85   C86   A    
C66   H15   S    
O4    C8    A    
C68   C69   A    
C83   C84   A    
O1    V3    S    
C36   C99   S    
C73   C74   A    
O2    V4    S    
C18   C22   A    
C88   H34   S    
O3    V1    S    
C75   C76   A    
C99   C100  A    
C85   H32   S    
C1    O15   A    
C55   C56   A    
C2    O16   A    
O2    C6    A    
C69   C70   A    
C41   C45   T    
C65   C70   A    
O14   V2    S    
C19   C23   A    
C16   C20   A    
C64   H14   S    
C49   C50   T    
C2    C43   S    
O11   C7    A    
C55   H6    S    
O15   V3    S    
C96   H41   S    
O12   C8    A    
C63   H13   S    
C22   C34   A    
C94   H39   S    
C101  H45   S    
O10   V2    S    
C82   H29   S    
C66   C67   A    
C34   C87   S    
C59   C64   A    
C24   C36   A    
O5    V1    S    
C68   H17   S    
C31   C40   A    
C9    C29   A    
C98   H43   S    
O28   H28   S    
C39   H3    S    
O7    V3    S    
C73   H21   S    
C38   H2    S    
C11   C31   A    
C27   C28   A    
O8    V4    S    
C17   C77   S    
C12   C16   A    
C56   C57   A    
C97   C98   A    
C62   H12   S    
C15   C19   A    
C57   C58   A    
C53   C54   A    
C86   H33   S    
C36   C40   A    
C91   C92   A    
C70   H19   S    
C11   C15   A    
C74   H22   S    
C42   C46   T    
C84   H31   S    
C12   C32   A    
C37   H1    S    
C29   C38   A    
C100  C101  A    
C21   C25   A    
O8    C4    A    
C63   C64   A    
C8    C13   S    
C32   C39   A    
O9    C5    A    
C61   C62   A    
C60   C61   A    
C26   C30   A    
O11   V3    S    
C89   C90   A    
C97   H42   S    
C81   C86   A    
C101  C102  A    
O6    V2    S    
C9    C53   S    
C91   H37   S    
C102  C103  A    
C77   O21   D    
C25   C26   A    
C54   H5    S    
C48   C52   S    
C56   H7    S    
O22   H25   S    
C65   C66   A    
C77   O22   S    
C104  H48   S    
O16   V4    S    
C95   H40   S    
C87   C92   A    
C3    O13   A    
C45   C49   S    
C90   H36   S    
C10   C14   A    
O17   V3    S    
C103  H47   S    
C84   C85   A    
O6    C2    A    
C23   C27   A    
C57   H8    S    
C72   H20   S    
C71   C72   A    
C100  H44   S    
O18   V4    S    
C30   C37   A    
O12   V4    S    
C7    C14   S    
C80   O27   D    
C22   C26   A    
C35   C39   A    
C33   C81   S    
C53   C58   A    
O10   C6    A    
O20   V2    S    
C93   C98   A    
C78   O23   D    
C89   H35   S    
C74   C75   A    
C43   C47   T    
C10   C30   A    
C72   C73   A    
C79   O25   D    
C96   C97   A    
C28   C32   A    
C61   H11   S    
C25   C29   A    
C6    C15   S    
C92   H38   S    
C59   C60   A    
C18   C78   S    
C27   C31   A    
C75   H23   S    
C13   C17   A    
O24   H26   S    
C9    C13   A    
C83   H30   S    
C93   C94   A    
C35   C93   S    
C23   C35   A    
C51   C52   T    
C20   C24   A    
C24   C28   A    
C87   C88   A    
C54   C55   A    
C46   C50   S    
C4    O14   A    
C90   C91   A    
C79   O26   S    
C17   C21   A    
C82   C83   A    
C88   C89   A    
C81   C82   A    
C47   C51   S    
C60   H10   S    
O4    V2    S    
C102  H46   S    
C78   O24   S    
C10   C59   S    
C5    C16   S    
