data_mof_unit_43814.cif
_audit_creation_date              2012-12-10T18:15:12-0500
_audit_creation_method            fapswitch 2.2
_symmetry_space_group_name_H-M    P1
_symmetry_Int_Tables_number       1
_space_group_crystal_system       triclinic
_cell_length_a                    12.594667
_cell_length_b                    13.119523
_cell_length_c                    23.418974
_cell_angle_alpha                 90.596203
_cell_angle_beta                  102.771004
_cell_angle_gamma                 82.32407
_cell_volume                      3739.37940293

loop_
_atom_site_label
_atom_site_type_symbol
_atom_type_description
_atom_site_fract_x
_atom_site_fract_y
_atom_site_fract_z
_atom_type_partial_charge
C1    C     C_R   0.438747 0.691361 0.495432 0.872892
C2    C     C_R   0.485161 0.690043 0.030362 -0.159212
C3    C     C_R   0.488008 0.691312 0.971285 -0.159338
C4    C     C_R   0.496257 0.598913 0.940842 -0.014430
C5    C     C_R   0.501911 0.504429 0.970196 -0.022606
C6    C     C_R   0.510501 0.411207 0.940076 -0.018349
C7    C     C_R   0.516061 0.317512 0.969685 -0.161404
C8    C     C_R   0.512832 0.316282 0.028709 -0.158311
C9    C     C_R   0.498028 0.598225 0.881417 0.486005
C10   C     C_R   0.512487 0.414502 0.880757 0.509240
C11   C     C_R   0.600070 0.507304 0.773499 -0.132597
C12   C     C_R   0.500623 0.500945 0.610505 0.872247
C13   C     C_R   0.600081 0.505328 0.714285 -0.225581
C14   C     C_R   0.501250 0.504017 0.672862 -0.074214
C15   C     C_R   0.402228 0.506199 0.691240 -0.230496
C16   C     C_R   0.401218 0.508386 0.750692 0.212263
C17   C     C_R   0.501596 0.508455 0.791799 0.295098
C18   C     C_R   0.589867 0.517561 0.248149 -0.105631
C19   C     C_R   0.591376 0.517228 0.307545 -0.214230
C20   C     C_R   0.497656 0.498726 0.326916 -0.042872
C21   C     C_R   0.402814 0.479786 0.286062 -0.216545
C22   C     C_R   0.401704 0.480004 0.226607 -0.100367
C23   C     C_R   0.561159 0.308753 0.507214 0.866994
C24   C     C_R   0.495081 0.499235 0.207781 0.321955
C25   C     C_R   0.703128 0.066584 0.587028 -0.192875
C26   C     C_R   0.597434 0.200366 0.520049 -0.056562
C27   C     C_R   0.298737 0.837362 0.454699 -0.189571
C28   C     C_R   0.269392 0.942372 0.442247 0.259100
C29   C     C_R   0.344240 0.010061 0.464807 -0.202168
C30   C     C_R   0.446839 0.974035 0.502428 0.043718
C31   C     C_R   0.467049 0.870921 0.522076 0.089213
C32   C     C_R   0.530002 0.037005 0.521468 0.099050
C33   C     C_R   0.622789 0.002186 0.566730 0.177992
C34   C     C_R   0.499205 0.499526 0.389443 0.867173
C35   C     C_R   0.632581 0.904645 0.591794 -0.246157
C36   C     C_R   0.555456 0.839699 0.569799 -0.184791
C37   C     C_R   0.524074 0.133367 0.495951 -0.246341
C38   C     C_R   0.689330 0.166588 0.564478 -0.189150
C39   C     C_R   0.398958 0.801169 0.492885 -0.166737
C40   C     C_R   0.088222 0.344893 0.419831 -0.302260
C41   C     C_R   0.800530 0.628992 0.569747 0.026171
C42   C     C_R   0.905308 0.657368 0.584137 -0.244725
C43   C     C_R   0.986393 0.608751 0.557584 -0.191917
C44   C     C_R   0.962824 0.530535 0.516532 0.016601
C45   C     C_R   0.501479 0.409435 0.118419 0.501383
C46   C     C_R   0.854608 0.504223 0.503586 0.232585
C47   C     C_R   0.041915 0.477283 0.488145 -0.013317
C48   C     C_R   0.011532 0.398589 0.448013 0.191391
C49   C     C_R   0.905092 0.373819 0.436540 -0.284682
C50   C     C_R   0.828004 0.425814 0.464024 -0.213788
C51   C     C_R   0.150748 0.498427 0.497903 -0.050497
C52   C     C_R   0.194339 0.369473 0.431515 0.012337
C53   C     C_R   0.488042 0.593083 0.119230 0.503286
C54   C     C_R   0.490489 0.596352 0.059952 -0.016799
C55   C     C_R   0.498853 0.503165 0.029796 -0.021715
C56   C     C_R   0.504198 0.408717 0.059107 -0.015305
H1    H     H_    0.478762 0.762558 0.052706 0.193726
H2    H     H_    0.665706 0.531681 0.338116 0.171105
H3    H     H_    0.329628 0.465118 0.299918 0.163269
H4    H     H_    0.328407 0.465827 0.195117 0.140359
H5    H     H_    0.746576 0.218736 0.583762 0.160844
H6    H     H_    0.700732 0.877897 0.627743 0.143659
H7    H     H_    0.773665 0.041189 0.621946 0.141854
H8    H     H_    0.459707 0.160475 0.458589 0.141337
H9    H     H_    0.245056 0.783688 0.433263 0.163106
H10   H     H_    0.318818 0.090593 0.453656 0.140623
H11   H     H_    0.483523 0.764768 0.949581 0.192964
H12   H     H_    0.564610 0.765173 0.590967 0.153082
H13   H     H_    0.255096 0.328554 0.410391 0.127913
H14   H     H_    0.881209 0.313660 0.406188 0.161893
H15   H     H_    0.066391 0.284466 0.389294 0.147570
H16   H     H_    0.181602 0.556418 0.527468 0.124095
H17   H     H_    0.737561 0.665896 0.590574 0.128438
H18   H     H_    0.066293 0.633570 0.570330 0.136508
H19   H     H_    0.923669 0.716789 0.615823 0.148789
H20   H     H_    0.748188 0.402371 0.453664 0.214795
H21   H     H_    0.522600 0.244993 0.947355 0.192653
H22   H     H_    0.517185 0.242829 0.050389 0.193192
H23   H     H_    0.676778 0.507172 0.805437 0.146341
H24   H     H_    0.677388 0.503796 0.701027 0.167289
H25   H     H_    0.325222 0.507022 0.659378 0.162444
H26   H     H_    0.662155 0.532090 0.233337 0.139563
N1    N     N_R   0.493876 0.500638 0.146929 -0.359629
N2    N     N_R   0.504962 0.507038 0.852897 -0.359616
N3    N     N_R   0.222200 0.444670 0.469780 -0.101082
N4    N     N_R   0.776960 0.554790 0.529910 -0.129515
O1    O     O_R   0.366740 0.627150 0.485570 -0.617363
O2    O     O_2   0.479784 0.681280 0.149100 -0.552236
O3    O     O_2   0.491828 0.687591 0.852067 -0.559331
O4    O     O_2   0.521277 0.326344 0.850905 -0.561417
O5    O     O_R   0.544830 0.662520 0.504870 -0.606812
O6    O     O_R   0.410930 0.482340 0.574190 -0.617576
O7    O     O_R   0.589010 0.517710 0.593490 -0.631062
O8    O     O_R   0.455170 0.337480 0.495130 -0.609409
O9    O     O_R   0.633260 0.372850 0.514430 -0.638634
O10   O     O_R   0.410990 0.482290 0.406510 -0.619292
O11   O     O_R   0.589070 0.517660 0.425810 -0.633449
O12   O     O_2   0.507426 0.319982 0.147648 -0.556519
Zn1   Zn    Zn3+2 0.381090 0.476380 0.487110 0.944271
Zn2   Zn    Zn3+2 0.618910 0.523620 0.512890 0.933197
C57   C     C_3   0.161037 0.982644 0.402814 -0.915423
H27   H     H_    0.110801 0.919924 0.387988 0.244415
H28   H     H_    0.114097 0.039341 0.426623 0.242519
H29   H     H_    0.175154 0.021066 0.363640 0.244918
C58   C     C_3   0.292666 0.511991 0.768829 -0.427728
C59   C     C_3   0.247349 0.409525 0.758216 -0.816079
H30   H     H_    0.231505 0.391258 0.710925 0.254264
H31   H     H_    0.306383 0.346715 0.783436 0.293609
H32   H     H_    0.168745 0.414110 0.772776 0.246636
H33   H     H_    0.300355 0.530685 0.815759 0.213411
H34   H     H_    0.232537 0.573978 0.743400 0.206371

loop_
_geom_bond_atom_site_label_1
_geom_bond_atom_site_label_2
_ccdc_geom_bond_type
C1    O1    A    
C58   H33   S    
C57   H27   S    
C40   H15   S    
C41   C42   A    
C19   C20   A    
C55   C56   A    
C51   N3    A    
C2    H1    S    
C7    C8    A    
C15   H25   S    
C53   C54   A    
C41   N4    A    
C42   H19   S    
C18   C24   A    
C28   C29   A    
C24   N1    S    
C34   O10   A    
C21   H3    S    
C45   O12   S    
C22   H4    S    
C5    C6    A    
C59   H30   S    
C15   C16   A    
O10   Zn1   S    
C34   O11   A    
C18   C19   A    
C25   H7    S    
C23   C26   S    
C52   H13   S    
C18   H26   S    
C28   C57   S    
C11   C17   A    
C35   C36   A    
C45   C56   A    
C27   C39   A    
C16   C17   A    
O5    Zn2   S    
C53   O2    S    
N4    Zn2   S    
C44   C47   A    
C7    H21   S    
C38   H5    S    
C20   C34   S    
C43   H18   S    
C58   H34   S    
C13   H24   S    
C57   H28   S    
C21   C22   A    
C8    H22   S    
C8    C56   A    
C45   N1    A    
C5    C55   A    
C44   C46   A    
O1    Zn1   S    
C19   H2    S    
C2    C54   A    
C9    O3    S    
O9    Zn2   S    
C26   C38   A    
C47   C51   A    
C40   C52   A    
C37   H8    S    
C43   C44   A    
C29   C30   A    
C27   H9    S    
C50   H20   S    
C25   C38   A    
C47   C48   A    
C32   C37   A    
O7    Zn2   S    
C11   H23   S    
C16   C58   S    
C48   C49   A    
C12   C14   S    
C57   H29   S    
C49   H14   S    
C22   C24   A    
C12   O7    A    
C42   C43   A    
C3    C4    A    
O11   Zn2   S    
C40   C48   A    
C54   C55   A    
C52   N3    A    
C31   C36   A    
C12   O6    A    
C3    H11   S    
C4    C5    A    
C6    C10   A    
C36   H12   S    
C26   C37   A    
C6    C7    A    
C58   C59   S    
C46   C50   A    
C23   O8    A    
C53   N1    A    
C17   N2    S    
C32   C33   A    
C2    C3    A    
C30   C32   A    
N3    Zn1   S    
C11   C13   A    
C30   C31   A    
C59   H31   S    
O8    Zn1   S    
C10   N2    A    
C33   C35   A    
C23   O9    A    
C35   H6    S    
C1    C39   S    
C9    N2    A    
C41   H17   S    
C29   H10   S    
C20   C21   A    
C10   O4    S    
C1    O5    A    
C49   C50   A    
C51   H16   S    
C27   C28   A    
C31   C39   A    
C14   C15   A    
C4    C9    A    
C13   C14   A    
O6    Zn1   S    
C25   C33   A    
C46   N4    A    
C59   H32   S    
