data_mof_unit_60593.cif
_audit_creation_date              2012-12-10T18:47:57-0500
_audit_creation_method            fapswitch 2.2
_symmetry_space_group_name_H-M    P1
_symmetry_Int_Tables_number       1
_space_group_crystal_system       triclinic
_cell_length_a                    19.464047
_cell_length_b                    18.122372
_cell_length_c                    14.358608
_cell_angle_alpha                 89.999988
_cell_angle_beta                  89.804872
_cell_angle_gamma                 90.000881
_cell_volume                      5064.7499185

loop_
_atom_site_label
_atom_site_type_symbol
_atom_type_description
_atom_site_fract_x
_atom_site_fract_y
_atom_site_fract_z
_atom_type_partial_charge
C1    C     C_R   0.367484 0.500003 0.500094 0.785975
C2    C     C_R   0.461739 0.278880 0.564234 0.093964
C3    C     C_R   0.550321 0.721150 0.453512 0.095563
C4    C     C_R   0.538261 0.278881 0.435766 0.093863
C5    C     C_R   0.448527 0.798648 0.546909 -0.197237
C6    C     C_R   0.461334 0.201381 0.565763 -0.197048
C7    C     C_R   0.551473 0.798649 0.453090 -0.197233
C8    C     C_R   0.538666 0.201382 0.434237 -0.197157
C9    C     C_R   0.500000 0.838309 0.500000 0.244122
C10   C     C_R   0.500000 0.161724 0.500000 0.244019
C11   C     C_R   0.542915 0.960724 0.562428 -0.089710
C12   C     C_R   0.632516 0.500005 0.499902 0.785980
C13   C     C_R   0.457080 0.039316 0.437576 -0.089377
C14   C     C_R   0.457085 0.960723 0.437571 -0.089909
C15   C     C_R   0.542921 0.039318 0.562424 -0.089586
C16   C     C_R   0.500000 0.078859 0.500000 0.033651
C17   C     C_R   0.500000 0.921180 0.500000 0.033657
C18   C     C_R   0.500037 0.499998 0.330821 0.819253
C19   C     C_R   0.499963 0.499998 0.669179 0.819260
C20   C     C_1   0.500038 0.499992 0.228575 -0.191649
C21   C     C_1   0.499962 0.499992 0.771425 -0.191647
C22   C     C_1   0.500029 0.499986 0.143237 0.001314
C23   C     C_R   0.964020 0.548996 0.557470 -0.170253
C24   C     C_1   0.499971 0.499986 0.856763 0.001320
C25   C     C_1   0.500009 0.499983 0.042670 0.012292
C26   C     C_1   0.499991 0.499983 0.957330 0.012295
C27   C     C_R   0.744390 0.433140 0.499835 -0.176592
C28   C     C_R   0.255652 0.566945 0.500189 -0.179144
C29   C     C_R   0.255613 0.433130 0.500376 -0.176178
C30   C     C_R   0.744344 0.566955 0.499495 -0.178736
C31   C     C_R   0.815940 0.433195 0.499759 -0.162687
C32   C     C_R   0.184102 0.566945 0.500211 -0.163223
C33   C     C_R   0.184063 0.433177 0.500332 -0.163152
C34   C     C_R   0.035975 0.451232 0.442324 -0.169650
C35   C     C_R   0.815894 0.566962 0.499492 -0.163709
C36   C     C_R   0.852240 0.500094 0.499642 0.103096
C37   C     C_R   0.147759 0.500072 0.500224 0.103110
C38   C     C_R   0.707994 0.500031 0.499743 -0.039535
C39   C     C_R   0.292005 0.500024 0.500226 -0.039541
C40   C     C_2   0.590133 0.920454 0.626494 0.324216
C41   C     C_2   0.413299 0.079583 0.369161 0.324163
C42   C     C_2   0.409868 0.920451 0.373505 0.324455
C43   C     C_2   0.586701 0.079585 0.630840 0.324389
C44   C     C_R   0.035568 0.548980 0.557631 -0.172568
C45   C     C_R   0.964428 0.451245 0.442167 -0.171956
C46   C     C_R   0.072097 0.500093 0.500066 0.096153
C47   C     C_R   0.927900 0.500123 0.499744 0.096270
C48   C     C_R   0.449679 0.721149 0.546488 0.095564
Cu1   Cu    Cu3+1 0.500000 0.573360 0.500000 0.953857
Cu2   Cu    Cu3+1 0.500000 0.426640 0.500000 0.950420
H1    H     H_    0.717660 0.380722 0.500213 0.160784
H2    H     H_    0.063091 0.413781 0.396331 0.134047
H3    H     H_    0.062358 0.586420 0.603741 0.131563
H4    H     H_    0.937636 0.413798 0.396067 0.132233
H5    H     H_    0.410180 0.691033 0.583549 0.114427
H6    H     H_    0.431375 0.309073 0.614647 0.115742
H7    H     H_    0.589820 0.691035 0.416451 0.114648
H8    H     H_    0.568625 0.309076 0.385352 0.115536
H9    H     H_    0.408098 0.827489 0.583956 0.124557
H10   H     H_    0.430828 0.172537 0.617402 0.125585
H11   H     H_    0.591903 0.827491 0.416043 0.124732
H12   H     H_    0.282416 0.619346 0.499892 0.150885
H13   H     H_    0.569172 0.172540 0.382598 0.125432
H14   H     H_    0.639872 0.943707 0.643605 0.071745
H15   H     H_    0.404191 0.056292 0.300709 0.074550
H16   H     H_    0.360129 0.943702 0.356393 0.071824
H17   H     H_    0.595810 0.056294 0.699290 0.074590
H18   H     H_    0.282344 0.380713 0.500718 0.160594
H19   H     H_    0.717580 0.619352 0.499107 0.150674
H20   H     H_    0.842919 0.380937 0.500984 0.134069
H21   H     H_    0.157159 0.619225 0.499023 0.130765
H22   H     H_    0.157082 0.380914 0.501507 0.133707
H23   H     H_    0.842844 0.619242 0.498245 0.130472
H24   H     H_    0.936901 0.586444 0.603463 0.133092
N1    N     N_R   0.500000 0.683620 0.500000 -0.167567
N2    N     N_R   0.500000 0.316380 0.500000 -0.168155
O1    O     O_R   0.400190 0.561980 0.499990 -0.587802
O2    O     O_2   0.385630 0.138006 0.388895 -0.537918
O3    O     O_2   0.426394 0.862071 0.337409 -0.532629
O4    O     O_2   0.614369 0.138010 0.611106 -0.537600
O5    O     O_R   0.599810 0.438020 0.500010 -0.579531
O6    O     O_R   0.599810 0.561980 0.500010 -0.587840
O7    O     O_R   0.400190 0.438020 0.499990 -0.579562
O8    O     O_R   0.500000 0.561970 0.376060 -0.554404
O9    O     O_R   0.500000 0.438030 0.623940 -0.565197
O10   O     O_R   0.500000 0.561970 0.623940 -0.554562
O11   O     O_R   0.500000 0.438030 0.376060 -0.565341
O12   O     O_2   0.573608 0.862073 0.662589 -0.532887

loop_
_geom_bond_atom_site_label_1
_geom_bond_atom_site_label_2
_ccdc_geom_bond_type
C48   H5    S    
C1    O1    A    
C35   C36   A    
C48   N1    A    
C4    C8    A    
C19   O10   A    
C13   C41   S    
C30   C35   A    
Cu1   O8    S    
C19   C21   S    
C24   C26   S    
C3    C7    A    
C27   C38   A    
C15   C16   A    
C29   C33   A    
C30   C38   A    
C36   C47   S    
C7    H11   S    
Cu2   O9    S    
C11   C15   A    
C44   H3    S    
C31   H20   S    
C11   C17   A    
C44   C46   A    
C22   C25   S    
C18   O8    A    
Cu1   N1    S    
C34   C46   A    
C3    N1    A    
C33   H22   S    
C14   C42   S    
C42   O3    D    
C13   C14   A    
C14   C17   A    
C2    C6    A    
C27   H1    S    
Cu2   O7    S    
C32   H21   S    
C45   C47   A    
C5    C48   A    
C23   C47   A    
C5    H9    S    
C27   C31   A    
C6    H10   S    
C28   C32   A    
C41   O2    D    
C41   H15   S    
C28   C39   A    
C25   C26   T    
C33   C37   A    
C23   C44   A    
Cu1   O6    S    
C5    C9    A    
Cu2   N2    S    
C29   H18   S    
C29   C39   A    
C12   O6    A    
C34   C45   A    
C32   C37   A    
Cu2   O11   S    
C3    H7    S    
C9    C17   S    
C20   C22   T    
C45   H4    S    
C21   C24   T    
C23   H24   S    
C30   H19   S    
C2    N2    A    
C7    C9    A    
C35   H23   S    
Cu1   O10   S    
C8    C10   A    
C19   O9    A    
C6    C10   A    
C1    O7    A    
C34   H2    S    
C18   O11   A    
C40   H14   S    
C40   O12   D    
C43   O4    D    
C15   C43   S    
C2    H6    S    
Cu1   O1    S    
C12   O5    A    
C18   C20   S    
C12   C38   S    
C11   C40   S    
C4    N2    A    
C1    C39   S    
C8    H13   S    
C43   H17   S    
Cu1   Cu2   S    
C13   C16   A    
C4    H8    S    
C42   H16   S    
C31   C36   A    
C10   C16   S    
C37   C46   S    
Cu2   O5    S    
C28   H12   S    
