data_mof_unit_55559.cif
_audit_creation_date              2012-12-10T17:48:45-0500
_audit_creation_method            fapswitch 2.2
_symmetry_space_group_name_H-M    P1
_symmetry_Int_Tables_number       1
_space_group_crystal_system       triclinic
_cell_length_a                    15.726505
_cell_length_b                    10.628153
_cell_length_c                    9.933291
_cell_angle_alpha                 89.928077
_cell_angle_beta                  89.85495
_cell_angle_gamma                 91.664135
_cell_volume                      1659.57998698

loop_
_atom_site_label
_atom_site_type_symbol
_atom_type_description
_atom_site_fract_x
_atom_site_fract_y
_atom_site_fract_z
_atom_type_partial_charge
C1    C     C_R   0.502036 0.260764 0.500095 0.844991
C2    C     C_R   0.713193 0.074443 0.678020 -0.139085
C3    C     C_R   0.713271 0.943509 0.677848 -0.144287
C4    C     C_R   0.338433 0.499621 0.500224 0.889260
C5    C     C_R   0.645942 0.874966 0.619690 -0.191138
C6    C     C_R   0.576618 0.937272 0.561640 0.095041
C7    C     C_R   0.576497 0.069184 0.561892 0.098511
C8    C     C_R   0.507737 0.128687 0.499904 -0.083377
C9    C     C_R   0.442737 0.061882 0.434534 -0.219180
C10   C     C_R   0.442877 0.933308 0.434272 -0.202057
C11   C     C_R   0.508000 0.871981 0.499400 -0.096659
C12   C     C_3   0.947274 0.413208 0.621490 -0.440209
C13   C     C_R   0.389321 0.333827 0.140451 -0.145147
C14   C     C_R   0.335409 0.251078 0.070706 -0.200469
C15   C     C_R   0.335571 0.250818 0.931383 -0.199322
C16   C     C_R   0.502337 0.739399 0.499874 0.865287
C17   C     C_R   0.389392 0.333641 0.860856 -0.141218
C18   C     C_R   0.445526 0.418051 0.928068 0.166345
C19   C     C_R   0.445530 0.418105 0.072547 0.168732
C20   C     C_R   0.552108 0.578407 0.071095 -0.111066
C21   C     C_R   0.552085 0.578385 0.928121 -0.110671
C22   C     C_R   0.661573 0.500231 0.499819 0.879254
C23   C     C_3   0.917210 0.494146 0.502027 0.328936
C24   C     C_3   0.045864 0.411760 0.624811 0.090652
C25   C     C_3   0.048053 0.439421 0.367920 -0.411438
C26   C     C_3   0.949949 0.436886 0.369088 -0.400850
C27   C     C_1   0.750473 0.498313 0.499782 -0.191810
C28   C     C_3   0.082502 0.491206 0.503791 0.306931
C29   C     C_3   0.147174 0.251167 0.703866 -0.825237
C30   C     C_3   0.954295 0.629815 0.517276 -0.405388
C31   C     C_3   0.052329 0.628097 0.519373 -0.456800
C32   C     C_1   0.825786 0.496294 0.500537 -0.107657
C33   C     C_1   0.174053 0.493567 0.502367 -0.090482
C34   C     C_1   0.249463 0.496767 0.500874 -0.197488
C35   C     C_R   0.645750 0.137285 0.620130 -0.174280
H1    H     H_    0.919574 0.315893 0.612548 0.175931
H2    H     H_    0.391181 0.881223 0.385690 0.150217
H3    H     H_    0.594720 0.642567 0.124363 0.147466
H4    H     H_    0.384978 0.328926 0.247207 0.196748
H5    H     H_    0.293127 0.186889 0.125302 0.141932
H6    H     H_    0.293615 0.186117 0.877477 0.152734
H7    H     H_    0.385062 0.328754 0.754093 0.200567
H8    H     H_    0.594665 0.642556 0.874252 0.145310
H9    H     H_    0.071502 0.500692 0.283867 0.176156
H10   H     H_    0.071536 0.343794 0.347075 0.159598
H11   H     H_    0.925481 0.338051 0.358506 0.168772
H12   H     H_    0.066617 0.458387 0.720240 0.134342
H13   H     H_    0.926463 0.490964 0.281307 0.172566
H14   H     H_    0.076134 0.669288 0.615663 0.166972
H15   H     H_    0.078340 0.688385 0.436304 0.182387
H16   H     H_    0.930818 0.672682 0.612084 0.166665
H17   H     H_    0.064922 0.230578 0.537571 0.229811
H18   H     H_    0.148915 0.147552 0.717098 0.236050
H19   H     H_    0.144055 0.294637 0.805327 0.245973
H20   H     H_    0.206441 0.283027 0.652005 0.242856
H21   H     H_    0.923276 0.452185 0.717956 0.150496
H22   H     H_    0.933121 0.689460 0.432169 0.176051
H23   H     H_    0.390956 0.109561 0.386075 0.135783
H24   H     H_    0.649218 0.238963 0.619763 0.151696
H25   H     H_    0.765927 0.127545 0.721966 0.133262
H26   H     H_    0.766052 0.894884 0.721696 0.129894
H27   H     H_    0.649551 0.773535 0.618897 0.140153
N1    N     N_R   0.499210 0.498800 0.142780 -0.121383
N2    N     N_R   0.499180 0.498720 0.857170 -0.120941
N3    N     N_2   0.073420 0.281771 0.624714 -0.299783
O1    O     O_R   0.500000 0.316780 0.614690 -0.640301
O2    O     O_R   0.499990 0.316750 0.385360 -0.628937
O3    O     O_R   0.377150 0.500020 0.614720 -0.628056
O4    O     O_R   0.377140 0.499990 0.385380 -0.631786
O5    O     O_R   0.500010 0.683250 0.614640 -0.614479
O6    O     O_R   0.500000 0.683220 0.385310 -0.611950
O7    O     O_R   0.622860 0.500010 0.614620 -0.625724
O8    O     O_R   0.622850 0.499980 0.385280 -0.605963
Zn1   Zn    Zn3+2 0.500010 0.500020 0.653130 0.931300
Zn2   Zn    Zn3+2 0.499990 0.499980 0.346870 0.938990

loop_
_geom_bond_atom_site_label_1
_geom_bond_atom_site_label_2
_ccdc_geom_bond_type
C2    C35   A    
C30   H16   S    
C1    C8    S    
C7    C8    A    
C25   C28   S    
C12   C23   S    
N1    Zn2   S    
C10   H2    S    
C18   C19   A    
C5    C6    A    
C2    H25   S    
C29   H19   S    
O3    Zn1   S    
O1    Zn1   S    
C30   H22   S    
C35   H24   S    
C9    H23   S    
C23   C26   S    
C17   H7    S    
C21   N2    A    
C21   H8    S    
C19   N1    A    
C8    C9    A    
O5    Zn1   S    
C12   H1    S    
C9    C10   A    
C26   H13   S    
C13   C14   A    
O8    Zn2   S    
C16   O6    A    
C31   H14   S    
C25   H9    S    
C22   O7    A    
C4    O4    A    
C33   C34   T    
C3    H26   S    
C4    C34   S    
C13   C19   A    
C23   C30   S    
C16   O5    A    
C15   H6    S    
O7    Zn1   S    
C6    C11   A    
C4    O3    A    
C29   H20   S    
C25   C26   S    
C1    O1    A    
C20   H3    S    
C11   C16   S    
C17   C18   A    
C12   H21   S    
C24   N3    S    
C29   N3    S    
C28   C33   S    
C22   C27   S    
O2    Zn2   S    
C31   H15   S    
C25   H10   S    
C15   C17   A    
C27   C32   T    
C24   H12   S    
C7    C35   A    
C28   C31   S    
C24   C28   S    
C3    C5    A    
C6    C7    A    
C12   C24   S    
C23   C32   S    
C20   N1    A    
C2    C3    A    
O6    Zn2   S    
C18   N2    A    
C30   C31   S    
C29   H18   S    
C1    O2    A    
C5    H27   S    
O4    Zn2   S    
C13   H4    S    
C10   C11   A    
C26   H11   S    
C14   H5    S    
C20   C21   A    
N2    Zn1   S    
C14   C15   A    
C22   O8    A    
H17   N3    S    
