data_mof_unit_53793.cif
_audit_creation_date              2012-12-11T17:39:30-0500
_audit_creation_method            fapswitch 2.2
_symmetry_space_group_name_H-M    P1
_symmetry_Int_Tables_number       1
_space_group_crystal_system       triclinic
_cell_length_a                    15.167172
_cell_length_b                    14.939386
_cell_length_c                    14.94009
_cell_angle_alpha                 108.431902
_cell_angle_beta                  110.167395
_cell_angle_gamma                 110.07249
_cell_volume                      2597.0690322

loop_
_atom_site_label
_atom_site_type_symbol
_atom_type_description
_atom_site_fract_x
_atom_site_fract_y
_atom_site_fract_z
_atom_type_partial_charge
C1    C     C_R   0.910728 0.977375 0.722317 -0.134019
C2    C     C_R   0.909265 0.705177 0.511722 -0.135324
C3    C     C_R   0.751228 0.779367 0.187329 -0.126682
C4    C     C_R   0.090266 0.315917 0.556480 -0.115353
C5    C     C_R   0.267085 0.952782 0.545235 -0.146049
C6    C     C_R   0.724672 0.676456 0.177356 0.129932
C7    C     C_R   0.303888 0.982111 0.480641 0.047312
C8    C     C_R   0.999126 0.704071 0.576808 0.066537
C9    C     C_R   0.996892 0.056794 0.191299 0.057580
C10   C     C_R   0.473950 0.601157 0.276837 -0.101363
C11   C     C_R   0.470495 0.697493 0.298882 -0.147951
C12   C     C_R   0.997139 0.325054 0.536655 0.020946
C13   C     C_R   0.445447 0.740540 0.378820 0.118775
C14   C     C_R   0.418166 0.681833 0.431769 -0.162798
C15   C     C_R   0.418723 0.583645 0.407060 -0.123859
C16   C     C_R   0.304365 0.206733 0.796617 -0.215973
C17   C     C_R   0.447581 0.543851 0.330386 -0.085192
C18   C     C_R   0.373927 0.864750 0.426574 -0.249882
C19   C     C_R   0.386211 0.969107 0.464563 0.073079
C20   C     C_R   0.477400 0.060435 0.487599 0.002521
C21   C     C_R   0.553672 0.044346 0.468037 -0.245135
C22   C     C_R   0.544116 0.941527 0.433429 0.067730
C23   C     C_R   0.367830 0.298599 0.796096 -0.017641
C24   C     C_R   0.454299 0.849649 0.411977 0.021402
C25   C     C_R   0.489161 0.233341 0.491437 -0.182915
C26   C     C_R   0.533003 0.346491 0.549483 -0.092379
C27   C     C_R   0.595134 0.403024 0.663901 -0.125535
C28   C     C_R   0.699324 0.998078 0.405260 -0.173207
C29   C     C_R   0.611038 0.345972 0.720441 -0.113694
C30   C     C_R   0.566361 0.232647 0.662669 -0.136663
C31   C     C_R   0.506069 0.175699 0.547653 0.132879
C32   C     C_R   0.700263 0.218313 0.216242 -0.124840
C33   C     C_R   0.794787 0.303091 0.315228 -0.127121
C34   C     C_R   0.639678 0.941872 0.439551 0.057998
C35   C     C_R   0.793795 0.332068 0.413818 0.104459
C36   C     C_R   0.696581 0.276876 0.411759 -0.194620
C37   C     C_R   0.603065 0.190280 0.312721 -0.125455
C38   C     C_R   0.604874 0.161176 0.215177 -0.117833
C39   C     C_R   0.894697 0.522712 0.548076 -0.228244
C40   C     C_R   0.302469 0.296011 0.702826 0.496240
C41   C     C_R   0.994238 0.620725 0.610564 0.050269
C42   C     C_R   0.088426 0.623511 0.677812 0.029636
C43   C     C_R   0.085258 0.524300 0.658395 -0.245168
C44   C     C_R   0.990781 0.424950 0.572027 0.076080
C45   C     C_R   0.750882 0.686648 0.279447 -0.157336
C46   C     C_R   0.892933 0.424760 0.517816 0.023666
C47   C     C_R   0.284795 0.751816 0.752895 -0.190795
C48   C     C_R   0.373413 0.858878 0.815248 -0.135341
C49   C     C_R   0.372137 0.941143 0.891478 -0.119501
C50   C     C_R   0.281785 0.916634 0.905234 -0.115791
C51   C     C_R   0.191033 0.810622 0.839971 -0.140663
C52   C     C_R   0.698966 0.909080 0.499870 -0.126608
C53   C     C_R   0.191166 0.727989 0.761793 0.119545
C54   C     C_2   0.529387 0.476009 0.885241 -0.162996
C55   C     C_2   0.483758 0.375730 0.873550 -0.181395
C56   C     C_R   0.263531 0.043509 0.449824 -0.094510
C57   C     C_2   0.632298 0.568577 0.980502 -0.144969
C58   C     C_2   0.669287 0.572963 0.077568 -0.174882
C59   C     C_R   0.399440 0.277909 0.117386 -0.149536
C60   C     C_R   0.297693 0.218501 0.104208 -0.189977
C61   C     C_R   0.211415 0.233939 0.052750 0.117802
C62   C     C_R   0.229304 0.311231 0.016745 -0.142265
C63   C     C_R   0.331262 0.370238 0.029905 -0.089813
C64   C     C_R   0.908189 0.220587 0.471027 -0.121232
C65   C     C_R   0.416000 0.353324 0.079957 -0.116576
C66   C     C_R   0.094143 0.159107 0.121307 -0.243890
C67   C     C_R   0.089792 0.792119 0.597533 -0.138048
C68   C     C_R   0.994380 0.088136 0.105971 0.078639
C69   C     C_R   0.897595 0.044958 0.006255 0.038922
C70   C     C_R   0.905622 0.065270 0.924220 -0.258202
C71   C     C_R   0.005857 0.105491 0.929186 0.053796
C72   C     C_R   0.101987 0.166418 0.033253 0.034590
C73   C     C_R   0.744004 0.849781 0.911870 0.253917
C74   C     C_R   0.639494 0.777056 0.886149 -0.192225
C75   C     C_R   0.581054 0.816302 0.924353 -0.147125
C76   C     C_R   0.092887 0.064479 0.812497 -0.132250
C77   C     C_R   0.623391 0.928880 0.983304 -0.129551
C78   C     C_R   0.908845 0.000546 0.199440 -0.158153
C79   C     C_R   0.723956 0.002507 0.003854 -0.217531
C80   C     C_R   0.787515 0.964162 0.974180 0.037989
C81   C     C_R   0.004325 0.055845 0.825366 0.051729
C82   C     C_3   0.805054 0.803123 0.869896 -0.416202
C83   C     C_3   0.843560 0.746029 0.929548 -0.899476
C84   C     C_R   0.089665 0.090230 0.287338 -0.121547
H1    H     H_    0.826869 0.947275 0.700731 0.094322
H2    H     H_    0.498446 0.572058 0.219063 0.117196
H3    H     H_    0.490415 0.740071 0.255746 0.116057
H4    H     H_    0.174281 0.381514 0.605659 0.144793
H5    H     H_    0.399374 0.713407 0.494273 0.109959
H6    H     H_    0.398697 0.539432 0.448837 0.115666
H7    H     H_    0.302336 0.795977 0.409465 0.133966
H8    H     H_    0.626628 0.115348 0.490120 0.139296
H9    H     H_    0.443189 0.190974 0.402854 0.097704
H10   H     H_    0.520078 0.390543 0.505698 0.107781
H11   H     H_    0.629876 0.490759 0.708761 0.114356
H12   H     H_    0.278024 0.080387 0.401087 0.097234
H13   H     H_    0.659135 0.389779 0.809036 0.130265
H14   H     H_    0.582018 0.189861 0.707268 0.109520
H15   H     H_    0.532090 0.094748 0.138785 0.101767
H16   H     H_    0.334234 0.175100 0.848715 0.134575
H17   H     H_    0.700709 0.197287 0.140307 0.099733
H18   H     H_    0.868444 0.346677 0.315200 0.113437
H19   H     H_    0.694322 0.299464 0.486953 0.135435
H20   H     H_    0.529048 0.145224 0.311043 0.114919
H21   H     H_    0.819489 0.519491 0.503321 0.124660
H22   H     H_    0.158491 0.525473 0.705924 0.124475
H23   H     H_    0.174274 0.823585 0.651359 0.128748
H24   H     H_    0.285570 0.690030 0.691480 0.118716
H25   H     H_    0.441869 0.878601 0.802179 0.130820
H26   H     H_    0.440634 0.024108 0.938847 0.096187
H27   H     H_    0.280626 0.980556 0.963835 0.109097
H28   H     H_    0.671776 0.024967 0.347308 0.118126
H29   H     H_    0.119102 0.793951 0.847068 0.112467
H30   H     H_    0.483442 0.498294 0.832014 0.152495
H31   H     H_    0.527929 0.353047 0.927736 0.134961
H32   H     H_    0.659789 0.643054 0.976129 0.133758
H33   H     H_    0.643122 0.499964 0.084962 0.118191
H34   H     H_    0.825937 0.977838 0.153325 0.132629
H35   H     H_    0.494832 0.399292 0.090651 0.099613
H36   H     H_    0.465318 0.265199 0.156222 0.126992
H37   H     H_    0.285465 0.158651 0.131692 0.110867
H38   H     H_    0.163960 0.324291 0.977032 0.114697
H39   H     H_    0.344683 0.429015 0.001215 0.116487
H40   H     H_    0.168276 0.203780 0.199811 0.123063
H41   H     H_    0.830797 0.030524 0.848947 0.128874
H42   H     H_    0.603483 0.689584 0.836882 0.120069
H43   H     H_    0.502076 0.759291 0.906848 0.133495
H44   H     H_    0.578242 0.959302 0.013047 0.127636
H45   H     H_    0.173209 0.147845 0.317212 0.094448
H46   H     H_    0.755876 0.089591 0.049031 0.126786
H47   H     H_    0.671605 0.855212 0.530709 0.103188
H48   H     H_    0.824864 0.194207 0.447353 0.124826
H49   H     H_    0.178177 0.112295 0.872729 0.129514
H50   H     H_    0.740647 0.622552 0.300818 0.101832
H51   H     H_    0.410842 0.359628 0.668297 0.325501
H52   H     H_    0.887455 0.799982 0.019731 0.268754
H53   H     H_    0.773298 0.668276 0.904640 0.250433
H54   H     H_    0.899825 0.726106 0.907385 0.254654
H55   H     H_    0.751015 0.743793 0.780649 0.185829
H56   H     H_    0.826310 0.659288 0.492095 0.088164
H57   H     H_    0.877507 0.867028 0.879393 0.209616
H58   H     H_    0.740850 0.801324 0.123855 0.111465
H59   H     H_    0.287983 0.909220 0.586731 0.105042
H60   H     H_    0.450091 0.469035 0.313027 0.118420
N1    N     N_R   0.941940 0.944580 0.650780 -0.040978
N2    N     N_R   0.204460 0.150250 0.707090 -0.068091
N3    N     N_R   0.794270 0.003240 0.446420 -0.039486
N4    N     N_R   0.204920 0.207570 0.650770 -0.072255
N5    N     N_R   0.793810 0.945920 0.502740 -0.039726
N6    N     N_R   0.943620 0.152590 0.446420 -0.045996
N7    N     N_R   0.055110 0.000900 0.707100 -0.039753
N8    N     N_R   0.795080 0.792430 0.349230 -0.039234
N9    N     N_R   0.206190 0.054080 0.497260 -0.039183
N10   N     N_R   0.056380 0.847410 0.553580 -0.041695
N11   N     N_R   0.944890 0.999100 0.292900 -0.045235
N12   N     N_R   0.058060 0.055420 0.349220 -0.038063
N13   N     N_R   0.943200 0.791100 0.497260 -0.039285
N14   N     N_R   0.795540 0.849750 0.292910 -0.044700
N15   N     N_R   0.205730 0.996760 0.553580 -0.042714
N16   N     N_R   0.056800 0.208900 0.502740 -0.033561
Ni1   Ni    Ni4+2 0.869690 0.869690 0.500000 0.209041
Ni2   Ni    Ni4+2 0.130310 0.130310 0.500000 0.257540
Ni3   Ni    Ni4+2 0.129250 0.998840 0.629170 0.209289
Ni4   Ni    Ni4+2 0.870750 0.001160 0.370830 0.212858
O1    O     O_3   0.336029 0.344840 0.647472 -0.803039

loop_
_geom_bond_atom_site_label_1
_geom_bond_atom_site_label_2
_ccdc_geom_bond_type
C25   C31   A    
C66   C68   A    
C63   C65   A    
C25   H9    S    
C59   H36   S    
C6    C45   A    
C27   C29   A    
C11   C13   A    
C41   C42   A    
C6    C58   S    
C1    N1    A    
C35   C36   A    
C62   H38   S    
C3    C6    A    
C39   C41   A    
C74   H42   S    
C28   H28   S    
C45   H50   S    
C37   C38   A    
N6    N16   A    
C67   N10   A    
C18   C24   A    
C18   H7    S    
C21   C22   A    
C36   C37   A    
C78   H34   S    
N3    Ni4   S    
C42   C53   S    
C30   C31   A    
C12   C64   A    
C78   N11   A    
C5    H59   S    
C10   C17   A    
C1    C81   A    
C23   C40   A    
C84   H45   S    
C16   N2    A    
C18   C19   A    
C73   C74   A    
C27   H11   S    
C66   C72   A    
C64   H48   S    
C11   H3    S    
C68   C69   A    
C5    N15   A    
C3    N14   A    
C70   C71   A    
N15   Ni3   S    
C32   C38   A    
C4    C12   A    
C29   C30   A    
C75   H43   S    
N8    Ni1   S    
N14   Ni4   S    
C47   C53   A    
C48   H25   S    
N12   Ni2   S    
C59   C60   A    
C13   C14   A    
C61   C62   A    
C3    H58   S    
C7    C56   A    
C82   H57   S    
C44   C46   A    
C57   H32   S    
N2    N4    A    
C77   C79   A    
C1    H1    S    
C22   C34   S    
N8    N14   A    
C74   C75   A    
C40   N4    A    
C33   H18   S    
N10   Ni3   S    
C8    C41   S    
N10   N13   A    
C5    C7    A    
C16   H16   S    
C76   N7    A    
C25   C26   A    
C79   H46   S    
C58   H33   S    
C13   C24   S    
C64   N6    A    
C60   C61   A    
C51   C53   A    
C43   H22   S    
N16   Ni2   S    
N9    N15   A    
C43   C44   A    
C14   H5    S    
C62   C63   A    
N1    Ni1   S    
C52   N5    A    
C47   H24   S    
C47   C48   A    
C21   H8    S    
C82   H55   S    
C50   C51   A    
H51   O1    S    
C51   H29   S    
C75   C77   A    
C40   O1    S    
N1    N7    A    
C77   H44   S    
C39   C46   A    
C56   N9    A    
C61   C72   S    
C48   C49   A    
C82   C83   S    
C16   C23   A    
N7    Ni3   S    
C26   H10   S    
C36   H19   S    
C26   C27   A    
C22   C24   A    
N5    Ni1   S    
C42   C43   A    
N13   Ni1   S    
C73   C82   S    
C83   H53   S    
C70   H41   S    
C56   H12   S    
C54   C55   D    
C10   H2    S    
C28   N3    A    
C17   H60   S    
N3    N5    A    
C14   C15   A    
C52   H47   S    
C34   C52   A    
C2    C8    A    
C39   H21   S    
C38   H15   S    
C76   C81   A    
C37   H20   S    
C63   H39   S    
C76   H49   S    
C23   C55   S    
C4    H4    S    
N11   Ni4   S    
N6    Ni4   S    
N2    Ni3   S    
C30   H14   S    
C7    C19   S    
C29   H13   S    
N9    Ni2   S    
C45   N8    A    
N4    Ni2   S    
C32   C33   A    
C19   C20   A    
C9    C68   S    
C2    H56   S    
C71   C72   A    
C12   C44   S    
C59   C65   A    
C15   H6    S    
C84   N12   A    
C67   H23   S    
C57   C58   D    
C4    N16   A    
C55   H31   S    
C2    N13   A    
C54   H30   S    
C50   H27   S    
C33   C35   A    
C73   C80   A    
C66   H40   S    
C9    C78   A    
C60   H37   S    
C69   C70   A    
C65   H35   S    
C10   C11   A    
C9    C84   A    
C28   C34   A    
C79   C80   A    
C20   C21   A    
C8    C67   A    
C49   C50   A    
N11   N12   A    
C32   H17   S    
C69   C80   S    
C15   C17   A    
C35   C46   S    
C54   C57   S    
C83   H54   S    
C49   H26   S    
C71   C81   S    
C20   C31   S    
C83   H52   S    
