data_mof_unit_67462.cif
_audit_creation_date              2013-03-05T15:40:58-0500
_audit_creation_method            fapswitch 2.2
_symmetry_space_group_name_H-M    P1
_symmetry_Int_Tables_number       1
_space_group_crystal_system       triclinic
_cell_length_a                    10.935148
_cell_length_b                    8.847398
_cell_length_c                    7.715607
_cell_angle_alpha                 103.461423
_cell_angle_beta                  94.162309
_cell_angle_gamma                 93.621122
_cell_volume                      721.573724376

loop_
_atom_site_label
_atom_site_type_symbol
_atom_site_description
_atom_site_fract_x
_atom_site_fract_y
_atom_site_fract_z
_atom_type_partial_charge
O1    O     O_R   0.509140 0.286130 0.619770 -0.606640
O2    O     O_R   0.485380 0.256770 0.308360 -0.566910
C1    C     C_R   0.498290 0.201371 0.453040 0.777898
O3    O     O_R   0.329570 0.514650 0.655700 -0.489319
O4    O     O_R   0.305810 0.485300 0.344290 -0.569719
C2    C     C_R   0.259735 0.497952 0.500743 0.898322
Cu1   Cu    Cu3+1 0.514070 0.517380 0.684380 1.162465
Cu2   Cu    Cu3+1 0.485930 0.482620 0.315620 1.138021
O5    O     O_R   0.514620 0.743230 0.691640 -0.541119
O6    O     O_R   0.490860 0.713870 0.380230 -0.546390
O7    O     O_R   0.694190 0.514700 0.655710 -0.532702
O8    O     O_R   0.670430 0.485350 0.344300 -0.568934
C3    C     C_R   0.505941 0.798801 0.544958 0.940752
C4    C     C_R   0.736985 0.493568 0.498502 0.855193
C5    C     C_3   0.072296 0.440264 0.674183 0.074220
C6    C     C_3   0.927194 0.400363 0.636231 0.046031
H1    H     H_    0.910846 0.281455 0.552301 0.214641
H2    H     H_    0.920194 0.699678 0.697084 0.234880
C7    C     C_3   0.075373 0.676074 0.522442 0.067035
C8    C     C_3   0.046747 0.372786 0.323060 -0.003898
C9    C     C_3   0.118829 0.497883 0.501550 -0.363274
C10   C     C_3   0.872719 0.495424 0.502112 -0.241859
C11   C     C_3   0.931701 0.667142 0.553011 0.080602
C12   C     C_3   0.909934 0.415272 0.315059 -0.478648
H3    H     H_    0.845859 0.310971 0.252317 0.273164
H4    H     H_    0.897372 0.496728 0.226750 0.264844
C13   C     C_2   0.502515 0.033734 0.423408 0.224024
C14   C     C_2   0.506119 0.965965 0.563663 -0.308023
H5    H     H_    0.506808 0.035092 0.697702 0.177229
N1    N     N_2   0.464720 0.456420 0.038520 -0.177276
N2    N     N_2   0.535280 0.543580 0.961480 -0.193813
H6    H     H_    0.562706 0.651890 0.042325 0.287667
N3    N     N_R   0.104453 0.565434 0.839907 0.135597
O9    O     O_R   0.021571 0.630728 0.935082 -0.323206
O10   O     O_R   0.217160 0.621624 0.893617 -0.229525
C15   C     C_2   0.106822 0.745736 0.365223 0.815999
O11   O     O_2   0.214944 0.775652 0.345070 -0.519199
O12   O     O_R   0.017883 0.793741 0.256486 -0.601318
H7    H     H_    0.055179 0.857619 0.177216 0.440013
N4    N     N_R   0.860690 0.780052 0.482691 0.144440
O13   O     O_R   0.852675 0.917918 0.584824 -0.234563
O14   O     O_R   0.796177 0.741980 0.328065 -0.271273
N5    N     N_R   0.506086 0.946880 0.242019 0.127125
O15   O     O_R   0.604301 0.962910 0.160257 -0.297708
O16   O     O_R   0.403887 0.885280 0.148194 -0.254687
C16   C     C_2   0.473122 0.295227 0.969881 1.170482
O17   O     O_2   0.574098 0.246684 0.943390 -0.553860
O18   O     O_R   0.371687 0.190743 0.969239 -0.657628
H8    H     H_    0.390862 0.077820 0.934851 0.366340
C17   C     C_2   0.128822 0.291201 0.700230 0.973142
O19   O     O_2   0.238045 0.291576 0.742341 -0.527576
O20   O     O_R   0.057466 0.149691 0.668769 -0.625553
H9    H     H_    0.109980 0.059660 0.634372 0.393721
N6    N     N_R   0.859532 0.379630 0.791438 0.173163
O21   O     O_R   0.826756 0.494562 0.913046 -0.269027
O22   O     O_R   0.813230 0.240238 0.791366 -0.226281
N7    N     N_R   0.142830 0.789846 0.679289 0.148070
O23   O     O_R   0.085549 0.874975 0.804412 -0.239375
O24   O     O_R   0.261389 0.819668 0.686798 -0.334682
C18   C     C_2   0.077635 0.351822 0.130536 0.993979
O25   O     O_2   0.018461 0.248526 0.017164 -0.410671
O26   O     O_R   0.175610 0.426243 0.077512 -0.667272
H10   H     H_    0.180294 0.538560 0.139252 0.352001
N8    N     N_R   0.058273 0.211055 0.341219 0.097765
O27   O     O_R   0.963900 0.107728 0.299405 -0.259215
O28   O     O_R   0.167407 0.159412 0.341070 -0.357679

loop_
_geom_bond_atom_site_label_1
_geom_bond_atom_site_label_2
_geom_bond_distance
_ccdc_geom_bond_type
C8    N8    1.482075 S    
O4    Cu2   1.998920 S    
C7    C11   1.605279 S    
N5    O15   1.300884 A    
C3    C14   1.452026 S    
O26   H10   0.993302 S    
N6    O22   1.303087 A    
C8    C18   1.519043 S    
C17   O20   1.393875 S    
N2    H6    1.027401 S    
Cu2   O8    2.011601 S    
Cu2   N1    2.090223 S    
N8    O27   1.303830 A    
C4    C10   1.481496 S    
C1    C13   1.451363 S    
N3    O9    1.288266 A    
C12   H3    1.112624 S    
Cu1   Cu2   2.781732 S    
C17   O19   1.214391 D    
C8    C9    1.662954 S    
C18   O26   1.359660 S    
Cu1   O7    1.998920 S    
N5    O16   1.300759 A    
C12   H4    1.109059 S    
C14   H5    1.071199 S    
N7    O23   1.304014 A    
O4    C2    1.325160 A    
C15   O11   1.224113 D    
O3    Cu1   2.011602 S    
C7    N7    1.493765 S    
C15   O12   1.389164 S    
N4    O13   1.300949 A    
C7    C9    1.650657 S    
O8    C4    1.333356 A    
O2    C1    1.321695 A    
C6    N6    1.492945 S    
C7    C15   1.533444 S    
C10   C11   1.562063 S    
N1    N2    1.322177 D    
C8    C12   1.565815 S    
O7    C4    1.308842 A    
C10   C12   1.548099 S    
N7    O24   1.300981 A    
O3    C2    1.343649 A    
Cu1   N2    2.090224 S    
C5    C6    1.594275 S    
C11   N4    1.477988 S    
C16   O18   1.397303 S    
C13   N5    1.435861 S    
N4    O14   1.301992 A    
C5    C9    1.635447 S    
O12   H7    1.013824 S    
O20   H9    1.008039 S    
Cu2   O6    1.986122 S    
C16   O17   1.223624 D    
C5    C17   1.539504 S    
C13   C14   1.353143 D    
Cu1   O5    1.985507 S    
O5    C3    1.334516 A    
N6    O21   1.301325 A    
O18   H8    1.011748 S    
C6    C10   1.584938 S    
N3    O10   1.300159 A    
O1    Cu1   1.986122 S    
C2    C9    1.541253 S    
N1    C16   1.412354 S    
O2    Cu2   1.985508 S    
H2    C11   1.100127 S    
C6    H1    1.095595 S    
C5    N3    1.487042 S    
C18   O25   1.220669 D    
O1    C1    1.322413 A    
O6    C3    1.310149 A    
N8    O28   1.304524 A    
