data_mof_unit_38649.cif
_audit_creation_date              2012-12-10T18:47:41-0500
_audit_creation_method            fapswitch 2.2
_symmetry_space_group_name_H-M    P1
_symmetry_Int_Tables_number       1
_space_group_crystal_system       triclinic
_cell_length_a                    10.08487
_cell_length_b                    10.617503
_cell_length_c                    15.382946
_cell_angle_alpha                 90.562186
_cell_angle_beta                  69.364779
_cell_angle_gamma                 90.861037
_cell_volume                      1541.27858047

loop_
_atom_site_label
_atom_site_type_symbol
_atom_type_description
_atom_site_fract_x
_atom_site_fract_y
_atom_site_fract_z
_atom_type_partial_charge
C1    C     C_R   0.501499 0.738792 0.498826 0.955487
C2    C     C_R   0.497812 0.261331 0.502313 0.966263
C3    C     C_R   0.339952 0.639328 0.099038 -0.252753
C4    C     C_R   0.664482 0.655070 0.903709 -0.156057
C5    C     C_R   0.245266 0.652876 0.052246 0.093996
C6    C     C_R   0.756099 0.681231 0.951820 0.084460
C7    C     C_R   0.507080 0.933816 0.578475 0.026866
C8    C     C_R   0.489322 0.066224 0.424569 0.010364
C9    C     C_R   0.502724 0.064773 0.581617 -0.063502
C10   C     C_R   0.493026 0.935732 0.421831 -0.068137
C11   C     C_R   0.494446 0.128450 0.503874 -0.129116
C12   C     C_R   0.503280 0.871833 0.498687 -0.130142
C13   C     C_R   0.948929 0.404166 0.459346 0.021143
C14   C     C_R   0.052025 0.597711 0.538376 0.005925
C15   C     C_R   0.090169 0.402978 0.460710 0.061149
C16   C     C_R   0.910038 0.597625 0.538462 0.057524
C17   C     C_R   0.411662 0.498745 0.676031 0.933194
C18   C     C_R   0.589069 0.503153 0.324286 0.942624
C19   C     C_R   0.363158 0.512741 0.778345 -0.104205
C20   C     C_R   0.641798 0.534382 0.224398 -0.022945
C21   C     C_R   0.179523 0.564009 0.925669 -0.203441
C22   C     C_R   0.811494 0.645427 0.093280 -0.259149
C23   C     C_R   0.217724 0.519223 0.834654 0.090158
C24   C     C_R   0.775485 0.593180 0.182114 0.147098
C25   C     C_R   0.466129 0.529654 0.821206 0.011259
C26   C     C_R   0.546891 0.527977 0.176226 0.007038
C27   C     C_R   0.426556 0.584301 0.909650 0.056566
C28   C     C_R   0.579798 0.592335 0.091413 0.046636
C29   C     C_R   0.282229 0.603091 0.961840 0.068601
C30   C     C_R   0.717696 0.640186 0.045176 0.065276
C31   C     C_R   0.526329 0.610939 0.952115 0.048629
C32   C     C_R   0.479941 0.606373 0.048901 0.027022
H1    H     H_    0.069625 0.561247 0.969847 0.164251
H2    H     H_    0.910909 0.692841 0.062440 0.161862
H3    H     H_    0.309409 0.668435 0.170941 0.150763
H4    H     H_    0.696754 0.680541 0.831172 0.164401
N1    N     N_R   0.142780 0.500030 0.500020 -0.155380
N2    N     N_R   0.857220 0.499970 0.499980 -0.153951
O1    O     O_R   0.385370 0.683250 0.500010 -0.603634
O2    O     O_R   0.614630 0.316750 0.499990 -0.610820
O3    O     O_R   0.614700 0.683220 0.500000 -0.634301
O4    O     O_R   0.385300 0.316780 0.500000 -0.632050
O5    O     O_R   0.319830 0.500020 0.632250 -0.589783
O6    O     O_R   0.680170 0.499980 0.367750 -0.555618
O7    O     O_R   0.549160 0.499990 0.632240 -0.645387
O8    O     O_R   0.450840 0.500010 0.367760 -0.624265
Zn1   Zn    Zn3+2 0.346870 0.500020 0.500000 0.980061
Zn2   Zn    Zn3+2 0.653130 0.499980 0.500000 0.982182
N3    N     N_3   0.122710 0.729172 0.091087 -0.507818
H5    H     H_    0.121407 0.769771 0.153598 0.194430
H6    H     H_    0.133010 0.804578 0.045837 0.192775
N4    N     N_3   0.884811 0.749016 0.904387 -0.437130
H7    H     H_    0.970304 0.691186 0.897030 0.202212
H8    H     H_    0.890505 0.827805 0.944258 0.193536
N5    N     N_3   0.427639 0.442266 0.207866 -0.457158
H9    H     H_    0.333630 0.491794 0.236916 0.206351
H10   H     H_    0.423104 0.387500 0.152092 0.203403
N6    N     N_3   0.601842 0.469162 0.785493 -0.445075
H11   H     H_    0.673994 0.523164 0.733428 0.203702
H12   H     H_    0.590619 0.379463 0.760300 0.230757
N7    N     N_3   0.873085 0.603181 0.230494 -0.396839
H13   H     H_    0.893263 0.698479 0.238680 0.215287
H14   H     H_    0.966443 0.557496 0.191592 0.213587
N8    N     N_3   0.107248 0.469620 0.805355 -0.449407
H15   H     H_    0.136105 0.380398 0.775999 0.227323
H16   H     H_    0.092579 0.529137 0.756294 0.253289
N9    N     N_3   0.506120 0.861411 0.657264 -0.462265
H17   H     H_    0.599346 0.880289 0.670246 0.240150
H18   H     H_    0.419207 0.887634 0.715267 0.203201
N10   N     N_3   0.488939 0.137699 0.345669 -0.457507
H19   H     H_    0.396855 0.115641 0.332058 0.238894
H20   H     H_    0.576896 0.112614 0.287968 0.200624
C33   C     C_2   0.499808 0.133462 0.666959 0.890811
O9    O     O_2   0.409478 0.212753 0.701428 -0.681837
O10   O     O_R   0.598809 0.106095 0.708557 -0.796611
H21   H     H_    0.582220 0.154947 0.768303 0.339021
C34   C     C_2   0.493843 0.867658 0.337209 0.897619
O11   O     O_2   0.593791 0.800866 0.295423 -0.675649
O12   O     O_R   0.382011 0.881655 0.304599 -0.787445
H22   H     H_    0.397084 0.832776 0.245065 0.334314
C35   C     C_2   0.903672 0.300022 0.411883 0.990419
O13   O     O_2   0.876186 0.320547 0.342144 -0.622576
O14   O     O_R   0.897167 0.177208 0.445209 -0.779566
H23   H     H_    0.864561 0.113724 0.407071 0.344029
C36   C     C_2   0.100888 0.709205 0.577033 0.994316
O15   O     O_2   0.135606 0.699438 0.645018 -0.646492
O16   O     O_R   0.103774 0.827068 0.536610 -0.771631
H24   H     H_    0.139687 0.896496 0.568657 0.348460
N11   N     N_3   0.176955 0.298274 0.418182 -0.436993
H25   H     H_    0.184365 0.240111 0.470503 0.244298
H26   H     H_    0.276525 0.330725 0.375900 0.244073
N12   N     N_3   0.824246 0.703880 0.578804 -0.442437
H27   H     H_    0.819095 0.760809 0.525197 0.249928
H28   H     H_    0.723599 0.673470 0.620670 0.221471

loop_
_geom_bond_atom_site_label_1
_geom_bond_atom_site_label_2
_ccdc_geom_bond_type
O16   H24   S    
C4    H4    S    
C24   N7    S    
C27   C29   A    
C33   O9    D    
N5    H9    S    
C26   N5    S    
C35   O13   D    
C36   O15   D    
C17   O7    A    
C21   H1    S    
N6    H12   S    
C13   C35   S    
C18   C20   S    
C7    C9    A    
N7    H14   S    
C15   N1    A    
O14   H23   S    
N3    H6    S    
N10   H19   S    
N1    Zn1   S    
N2    Zn2   S    
C36   O16   S    
C33   O10   S    
C5    N3    S    
C3    C32   A    
C1    C12   S    
C9    C33   S    
C2    C11   S    
C18   O8    A    
C35   O14   S    
C10   C34   S    
N4    H8    S    
C5    C29   A    
C34   O12   S    
C21   C23   A    
C7    C12   A    
C22   H2    S    
C27   C31   A    
N9    H17   S    
C20   C24   A    
C28   C32   A    
C4    C6    A    
N6    H11   S    
C34   O11   D    
C21   C29   A    
N9    H18   S    
N8    H16   S    
C19   C23   A    
O10   H21   S    
C17   O5    A    
C18   O6    A    
C15   N11   S    
C31   C32   A    
C3    H3    S    
N12   H28   S    
C9    C11   A    
C13   N2    A    
C10   C12   A    
C1    O3    A    
C23   N8    S    
C6    C30   A    
C16   N12   S    
C13   C15   A    
C14   C16   A    
N11   H26   S    
C25   N6    S    
N4    H7    S    
O1    Zn1   S    
O7    Zn2   S    
O2    Zn2   S    
O8    Zn1   S    
C22   C30   A    
C8    N10   S    
C14   C36   S    
C3    C5    A    
C25   C27   A    
C26   C28   A    
N8    H15   S    
N5    H10   S    
C14   N1    A    
C20   C26   A    
C2    O4    A    
C8    C11   A    
C28   C30   A    
N12   H27   S    
C17   C19   S    
O3    Zn2   S    
C22   C24   A    
O4    Zn1   S    
N7    H13   S    
C19   C25   A    
C4    C31   A    
C1    O1    A    
C7    N9    S    
O12   H22   S    
C2    O2    A    
C8    C10   A    
N3    H5    S    
N10   H20   S    
C6    N4    S    
N11   H25   S    
O5    Zn1   S    
O6    Zn2   S    
C16   N2    A    
