data_mof_unit_32063.cif
_audit_creation_date              2012-12-11T14:01:17-0500
_audit_creation_method            fapswitch 2.2
_symmetry_space_group_name_H-M    P1
_symmetry_Int_Tables_number       1
_space_group_crystal_system       triclinic
_cell_length_a                    19.011633
_cell_length_b                    10.9753
_cell_length_c                    18.769754
_cell_angle_alpha                 90.170223
_cell_angle_beta                  90.385039
_cell_angle_gamma                 89.998253
_cell_volume                      3916.36066144

loop_
_atom_site_label
_atom_site_type_symbol
_atom_type_description
_atom_site_fract_x
_atom_site_fract_y
_atom_site_fract_z
_atom_type_partial_charge
C1    C     C_R   0.272609 0.042391 0.853550 0.556875
C2    C     C_R   0.727416 0.042244 0.146479 0.555223
C3    C     C_R   0.772611 0.542385 0.853553 0.559190
C4    C     C_R   0.227415 0.542240 0.146477 0.556133
C5    C     C_R   0.481606 0.051280 0.073797 -0.073101
C6    C     C_R   0.509632 0.057149 0.928347 -0.069909
C7    C     C_R   0.981565 0.551255 0.073808 -0.073191
C8    C     C_R   0.009592 0.557166 0.928359 -0.069909
C9    C     C_R   0.984027 0.662407 0.038154 -0.110487
C10   C     C_R   0.000167 0.665548 0.966041 -0.108745
C11   C     C_R   0.484092 0.162425 0.038136 -0.110445
C12   C     C_R   0.500232 0.165544 0.966023 -0.108913
C13   C     C_2   0.249434 0.580118 0.920538 -0.125679
C14   C     C_2   0.750702 0.579417 0.079498 -0.130900
C15   C     C_2   0.749439 0.080131 0.920543 -0.125536
C16   C     C_2   0.250696 0.079439 0.079489 -0.131308
C17   C     C_2   0.249768 0.586982 0.077279 -0.105664
C18   C     C_2   0.750362 0.587043 0.922927 -0.102683
C19   C     C_2   0.749772 0.086996 0.077284 -0.105655
C20   C     C_2   0.250355 0.087065 0.922918 -0.102259
C21   C     C_2   0.295277 0.522570 0.037759 -0.137030
C22   C     C_2   0.704801 0.522479 0.962096 -0.124844
C23   C     C_2   0.795286 0.022595 0.037764 -0.136980
C24   C     C_2   0.204789 0.022514 0.962087 -0.124401
C25   C     C_2   0.304271 0.547743 0.961822 -0.155702
C26   C     C_2   0.695898 0.546946 0.038157 -0.151241
C27   C     C_2   0.804278 0.047770 0.961828 -0.155635
C28   C     C_2   0.195889 0.046981 0.038149 -0.151578
C29   C     C_2   0.485704 0.828943 0.571486 -0.092600
C30   C     C_2   0.487886 0.839643 0.415343 -0.105948
C31   C     C_2   0.985475 0.329052 0.571394 -0.102649
C32   C     C_2   0.987664 0.339844 0.415234 -0.105673
C33   C     C_2   0.468150 0.741877 0.451876 -0.164518
C34   C     C_2   0.453524 0.748918 0.527455 -0.148803
C35   C     C_2   0.967725 0.242214 0.451767 -0.160435
C36   C     C_2   0.953010 0.249424 0.527340 -0.150672
C37   C     C_2   0.254702 0.612556 0.569209 -0.101745
C38   C     C_2   0.754050 0.565184 0.416429 -0.105924
C39   C     C_2   0.754984 0.113404 0.568975 -0.104628
C40   C     C_2   0.245838 0.111599 0.430361 -0.089533
C41   C     C_2   0.257169 0.604515 0.413992 -0.108784
C42   C     C_2   0.762090 0.567546 0.571672 -0.103495
C43   C     C_2   0.757404 0.105156 0.413754 -0.105668
C44   C     C_2   0.243319 0.103166 0.585647 -0.107982
C45   C     C_R   0.472527 0.822385 0.852644 0.560494
C46   C     C_R   0.528332 0.821610 0.146668 0.553891
C47   C     C_R   0.972528 0.322388 0.852643 0.560893
C48   C     C_R   0.028332 0.321608 0.146668 0.553588
C49   C     C_2   0.217858 0.682230 0.450704 -0.164564
C50   C     C_2   0.817888 0.557850 0.528119 -0.150927
C51   C     C_2   0.718290 0.183272 0.450427 -0.162659
C52   C     C_2   0.282905 0.180528 0.549202 -0.166065
C53   C     C_2   0.229918 0.701034 0.526111 -0.151012
C54   C     C_2   0.813465 0.583716 0.452646 -0.161865
C55   C     C_2   0.730380 0.202060 0.525887 -0.150569
C56   C     C_2   0.271139 0.199482 0.473849 -0.149018
C57   C     C_R   0.261086 0.636259 0.851446 0.550575
C58   C     C_R   0.738970 0.635925 0.148614 0.547900
C59   C     C_R   0.761088 0.136264 0.851448 0.550755
C60   C     C_R   0.238968 0.135930 0.148612 0.550340
C61   C     C_R   0.270960 0.048047 0.649583 0.554763
C62   C     C_R   0.729182 0.048598 0.350240 0.557652
C63   C     C_R   0.773909 0.541845 0.646071 0.550144
C64   C     C_R   0.229128 0.548429 0.350311 0.554937
C65   C     C_R   0.467693 0.823175 0.646088 0.548329
C66   C     C_R   0.527747 0.824673 0.350578 0.551907
C67   C     C_R   0.967619 0.323187 0.646039 0.545673
C68   C     C_R   0.027720 0.324701 0.350572 0.551741
C69   C     C_R   0.261580 0.641900 0.643869 0.546712
C70   C     C_R   0.740197 0.633972 0.352441 0.554088
C71   C     C_R   0.761681 0.142265 0.643733 0.546268
C72   C     C_R   0.238548 0.141710 0.355948 0.549582
C73   C     C_R   0.500866 0.827786 0.073560 -0.058343
C74   C     C_R   0.503450 0.831218 0.924265 -0.060257
C75   C     C_R   0.000870 0.327777 0.073558 -0.058405
C76   C     C_R   0.003453 0.331230 0.924264 -0.060559
C77   C     C_R   0.495097 0.940731 0.037451 -0.046641
C78   C     C_R   0.502855 0.943088 0.962522 -0.047550
C79   C     C_R   0.995078 0.440722 0.037456 -0.046515
C80   C     C_R   0.002836 0.443094 0.962527 -0.047706
C81   C     C_R   0.509769 0.721156 0.961442 0.376315
C82   C     C_R   0.503514 0.718775 0.034003 0.373858
C83   C     C_R   0.009794 0.221167 0.961435 0.376204
C84   C     C_R   0.003540 0.218772 0.033996 0.373789
Cr1   Cr    Cr6+3 0.230530 0.836340 0.748870 1.034242
Cr2   Cr    Cr6+3 0.769470 0.836340 0.251130 1.028990
Cr3   Cr    Cr6+3 0.730530 0.336340 0.748870 1.034918
Cr4   Cr    Cr6+3 0.269470 0.336340 0.251130 1.026975
Cr5   Cr    Cr6+3 0.387420 0.989430 0.750820 1.022781
Cr6   Cr    Cr6+3 0.612580 0.989430 0.249180 1.023304
Cr7   Cr    Cr6+3 0.887420 0.489430 0.750820 1.020573
Cr8   Cr    Cr6+3 0.112580 0.489430 0.249180 1.020353
Cr9   Cr    Cr6+3 0.385640 0.677860 0.749230 1.057477
Cr10  Cr    Cr6+3 0.614360 0.677860 0.250770 1.059097
Cr11  Cr    Cr6+3 0.885640 0.177860 0.749230 1.059606
Cr12  Cr    Cr6+3 0.114360 0.177860 0.250770 1.060319
H1    H     H_    0.171439 0.724422 0.427369 0.154168
H2    H     H_    0.870234 0.539349 0.549150 0.158513
H3    H     H_    0.671897 0.225538 0.427090 0.153708
H4    H     H_    0.329177 0.222932 0.572856 0.155118
H5    H     H_    0.212295 0.787926 0.547526 0.155103
H6    H     H_    0.858085 0.629594 0.428736 0.152851
H7    H     H_    0.712783 0.288899 0.547379 0.159280
H8    H     H_    0.289090 0.286270 0.452866 0.152799
H9    H     H_    0.305794 0.568259 0.436195 0.096753
H10   H     H_    0.709140 0.585438 0.552424 0.093381
H11   H     H_    0.806052 0.068944 0.435919 0.102569
H12   H     H_    0.194852 0.066600 0.563173 0.105954
H13   H     H_    0.272912 0.525015 0.549566 0.084889
H14   H     H_    0.711249 0.512520 0.439007 0.102121
H15   H     H_    0.773160 0.025908 0.549270 0.093367
H16   H     H_    0.227327 0.024175 0.449586 0.086969
H17   H     H_    0.467574 0.052657 0.129536 0.132138
H18   H     H_    0.523789 0.063722 0.872787 0.134980
H19   H     H_    0.967534 0.552612 0.129549 0.131353
H20   H     H_    0.023751 0.563759 0.872801 0.135293
H21   H     H_    0.974392 0.746446 0.066812 0.142308
H22   H     H_    0.004513 0.752166 0.938981 0.146784
H23   H     H_    0.474476 0.246476 0.066789 0.142521
H24   H     H_    0.504596 0.252154 0.938957 0.146569
H25   H     H_    0.325496 0.448130 0.060606 0.173664
H26   H     H_    0.674465 0.448312 0.938851 0.180231
H27   H     H_    0.825508 0.948158 0.060611 0.173689
H28   H     H_    0.174449 0.948350 0.938842 0.180396
H29   H     H_    0.357180 0.542582 0.940508 0.202582
H30   H     H_    0.643078 0.541262 0.059544 0.219570
H31   H     H_    0.857187 0.042616 0.940513 0.202584
H32   H     H_    0.143069 0.041297 0.059537 0.219525
H33   H     H_    0.221398 0.663666 0.054457 0.113802
H34   H     H_    0.778842 0.663512 0.946118 0.111769
H35   H     H_    0.721398 0.163677 0.054462 0.113723
H36   H     H_    0.278838 0.163533 0.946108 0.111665
H37   H     H_    0.196430 0.581884 0.941907 0.114278
H38   H     H_    0.803689 0.581442 0.058098 0.113497
H39   H     H_    0.696435 0.081892 0.941913 0.114253
H40   H     H_    0.303682 0.081462 0.058088 0.113534
H41   H     H_    0.468330 0.651671 0.427839 0.153178
H42   H     H_    0.418927 0.678743 0.548198 0.156042
H43   H     H_    0.967907 0.151974 0.427779 0.153800
H44   H     H_    0.918243 0.179522 0.548095 0.157872
H45   H     H_    0.483620 0.930531 0.438052 0.111214
H46   H     H_    0.520226 0.900459 0.552558 0.094960
H47   H     H_    0.983350 0.430780 0.437890 0.101760
H48   H     H_    0.020144 0.400349 0.552458 0.094215
O1    O     O_R   0.215090 0.709860 0.828130 -0.516865
O2    O     O_R   0.784910 0.709860 0.171870 -0.521462
O3    O     O_R   0.715090 0.209860 0.828130 -0.517107
O4    O     O_R   0.284910 0.209860 0.171870 -0.519109
O5    O     O_R   0.445660 0.919250 0.676780 -0.497409
O6    O     O_R   0.554340 0.919250 0.323220 -0.501617
O7    O     O_R   0.945660 0.419250 0.676780 -0.506401
O8    O     O_R   0.054340 0.419250 0.323220 -0.503602
O9    O     O_R   0.456260 0.718170 0.670000 -0.514699
O10   O     O_R   0.543740 0.718170 0.330000 -0.514100
O11   O     O_R   0.956260 0.218170 0.670000 -0.511279
O12   O     O_R   0.043740 0.218170 0.330000 -0.513681
O13   O     O_R   0.320940 0.626760 0.674370 -0.505932
O14   O     O_R   0.679060 0.626760 0.325630 -0.501500
O15   O     O_R   0.820940 0.126760 0.674370 -0.504121
O16   O     O_R   0.179060 0.126760 0.325630 -0.497268
O17   O     O_3   0.334530 0.834540 0.749640 -0.259493
O18   O     O_3   0.665470 0.834540 0.250360 -0.254840
O19   O     O_3   0.834530 0.334540 0.749640 -0.261682
O20   O     O_3   0.165470 0.334540 0.250360 -0.256069
O21   O     O_R   0.236990 0.958390 0.823710 -0.491556
O22   O     O_R   0.763010 0.958390 0.176290 -0.495366
O23   O     O_R   0.736990 0.458390 0.823710 -0.490398
O24   O     O_R   0.263010 0.458390 0.176290 -0.494361
O25   O     O_R   0.332380 0.074750 0.830850 -0.511030
O26   O     O_R   0.667620 0.074750 0.169150 -0.509230
O27   O     O_R   0.832380 0.574750 0.830850 -0.508678
O28   O     O_R   0.167620 0.574750 0.169150 -0.508753
O29   O     O_R   0.445800 0.917770 0.825070 -0.520885
O30   O     O_R   0.554200 0.917770 0.174930 -0.519789
O31   O     O_R   0.945800 0.417770 0.825070 -0.520086
O32   O     O_R   0.054200 0.417770 0.174930 -0.519838
O33   O     O_R   0.456410 0.716580 0.829970 -0.434186
O34   O     O_R   0.543590 0.716580 0.170030 -0.435487
O35   O     O_R   0.956410 0.216580 0.829970 -0.433950
O36   O     O_R   0.043590 0.216580 0.170030 -0.435648
O37   O     O_R   0.321080 0.625290 0.822650 -0.490545
O38   O     O_R   0.678920 0.625290 0.177350 -0.488840
O39   O     O_R   0.821080 0.125290 0.822650 -0.489984
O40   O     O_R   0.178920 0.125290 0.177350 -0.487516
O41   O     O_R   0.214930 0.711450 0.668160 -0.512933
O42   O     O_R   0.785070 0.711450 0.331840 -0.514884
O43   O     O_R   0.714930 0.211450 0.668160 -0.513414
O44   O     O_R   0.285070 0.211450 0.331840 -0.517026
O45   O     O_R   0.236850 0.959870 0.675420 -0.505048
O46   O     O_R   0.763150 0.959870 0.324580 -0.498150
O47   O     O_R   0.736850 0.459870 0.675420 -0.500301
O48   O     O_R   0.263150 0.459870 0.324580 -0.506538
O49   O     O_R   0.332230 0.076350 0.670880 -0.511165
O50   O     O_R   0.667770 0.076350 0.329120 -0.512709
O51   O     O_R   0.832230 0.576350 0.670880 -0.511704
O52   O     O_R   0.167770 0.576350 0.329120 -0.511696
F1    F     F_    0.518001 0.612627 0.927288 -0.598901
F2    F     F_    0.502834 0.607267 0.065438 -0.603199
F3    F     F_    0.018047 0.112649 0.927273 -0.598880
F4    F     F_    0.002881 0.107259 0.065424 -0.603334

loop_
_geom_bond_atom_site_label_1
_geom_bond_atom_site_label_2
_ccdc_geom_bond_type
C16   C28   D    
C69   O41   A    
Cr3   O19   S    
C38   C70   S    
C60   O40   A    
C37   C69   S    
C9    H21   S    
C46   O34   A    
C19   C23   D    
C35   C36   S    
Cr2   O22   S    
Cr5   O29   S    
Cr6   O6    S    
C11   H23   S    
Cr10  O38   S    
C57   O37   A    
C81   C82   A    
C3    O23   A    
C40   H16   S    
C77   C78   A    
C84   F4    S    
C31   C67   S    
C50   C54   S    
C30   H45   S    
C41   H9    S    
Cr6   O18   S    
Cr11  O15   S    
C7    C79   A    
Cr1   O1    S    
C47   C76   S    
C66   O6    A    
C57   O1    A    
C81   F1    S    
C49   C53   S    
C75   C84   A    
C6    C78   A    
C15   H39   S    
Cr1   O45   S    
C55   H7    S    
C24   H28   S    
Cr1   O17   S    
C3    C18   S    
C67   O11   A    
C16   C60   S    
C7    H19   S    
C31   H48   S    
C25   H29   S    
C6    H18   S    
C32   H47   S    
C65   O9    A    
C35   H43   S    
C12   H24   S    
Cr9   O37   S    
C39   C55   D    
C20   C24   D    
C53   H5    S    
C40   C56   D    
Cr6   O50   S    
Cr8   O8    S    
C69   O13   A    
C46   O30   A    
Cr2   O18   S    
Cr9   O17   S    
C38   H14   S    
C4    O28   A    
C9    C10   A    
Cr10  O18   S    
C37   H13   S    
Cr5   O17   S    
C45   O33   A    
C32   C68   S    
C37   C53   D    
Cr8   O20   S    
Cr5   O5    S    
C28   H32   S    
Cr10  O14   S    
Cr10  O34   S    
C61   O45   A    
C48   C75   S    
Cr7   O19   S    
C27   H31   S    
Cr12  O40   S    
Cr2   O2    S    
C76   C83   A    
C41   C49   D    
C64   O48   A    
C22   H26   S    
C44   H12   S    
C19   H35   S    
C14   C58   S    
Cr3   O23   S    
Cr2   O46   S    
C50   H2    S    
C67   O7    A    
C32   C35   D    
C76   C80   A    
C56   H8    S    
C62   O46   A    
C21   C25   S    
C33   H41   S    
C66   O10   A    
Cr9   O33   S    
Cr3   O43   S    
C14   H38   S    
C51   C55   S    
Cr4   O24   S    
Cr4   O20   S    
C17   H33   S    
C29   C34   D    
C52   H4    S    
Cr8   O32   S    
Cr12  O20   S    
C45   C74   S    
C70   O14   A    
C20   H36   S    
C47   O35   A    
C14   C26   D    
C30   C33   D    
C68   O8    A    
C45   O29   A    
C10   H22   S    
C51   H3    S    
Cr7   O51   S    
C15   C27   D    
C83   C84   A    
C38   C54   D    
C1    O21   A    
Cr10  O10   S    
Cr5   O49   S    
Cr6   O26   S    
C33   C34   S    
Cr4   O4    S    
Cr7   O31   S    
C39   H15   S    
C43   H11   S    
Cr12  O36   S    
C59   O39   A    
C36   H44   S    
C30   C66   S    
C22   C26   S    
Cr3   O3    S    
C42   C50   D    
C29   C65   S    
C4    C17   S    
Cr11  O35   S    
Cr12  O16   S    
C2    O26   A    
Cr2   O42   S    
C23   C27   S    
C3    O27   A    
C5    C11   A    
C72   O44   A    
C63   O51   A    
C18   H34   S    
C62   O50   A    
C74   C81   A    
C5    C77   A    
C16   H40   S    
C6    C12   A    
C61   O49   A    
C73   C82   A    
C48   O36   A    
Cr3   O47   S    
Cr4   O48   S    
C2    O22   A    
C1    C20   S    
C39   C71   S    
C40   C72   S    
Cr11  O39   S    
C5    H17   S    
C2    C19   S    
C18   C22   D    
C4    O24   A    
C13   H37   S    
C54   H6    S    
C24   C28   S    
C71   O43   A    
Cr8   O52   S    
C68   O12   A    
C44   C52   D    
C23   H27   S    
C11   C12   A    
C58   O2    A    
C82   F2    S    
C44   C61   S    
C71   O15   A    
Cr6   O30   S    
C72   O16   A    
Cr7   O27   S    
Cr11  O19   S    
C58   O38   A    
Cr1   O21   S    
Cr9   O9    S    
C70   O42   A    
Cr5   O25   S    
Cr1   O41   S    
Cr7   O7    S    
Cr9   O13   S    
C43   C51   D    
Cr12  O12   S    
C75   C79   A    
C13   C25   D    
Cr8   O28   S    
C63   O47   A    
C29   H46   S    
C64   O52   A    
C1    O25   A    
C34   H42   S    
Cr11  O11   S    
C65   O5    A    
C15   C59   S    
C8    H20   S    
C49   H1    S    
C79   C80   A    
C42   H10   S    
C7    C9    A    
Cr4   O44   S    
C13   C57   S    
C73   C77   A    
C8    C10   A    
C74   C78   A    
C8    C80   A    
C26   H30   S    
C31   C36   D    
C21   H25   S    
C60   O4    A    
C41   C64   S    
C83   F3    S    
C42   C63   S    
C46   C73   S    
C47   O31   A    
C52   C56   S    
C43   C62   S    
C59   O3    A    
C48   O32   A    
C17   C21   D    
