data_mof_unit_20001.cif
_audit_creation_date              2012-10-26T20:43:03-0400
_audit_creation_method            fapswitch 2.2
_symmetry_space_group_name_H-M    P1
_symmetry_Int_Tables_number       1
_space_group_crystal_system       triclinic
_cell_length_a                    10.97628
_cell_length_b                    9.752915
_cell_length_c                    15.007797
_cell_angle_alpha                 90.42875
_cell_angle_beta                  88.689171
_cell_angle_gamma                 87.286451
_cell_volume                      1604.31510341

loop_
_atom_site_label
_atom_site_type_symbol
_atom_type_description
_atom_site_fract_x
_atom_site_fract_y
_atom_site_fract_z
_atom_type_partial_charge
C1    C     C_R   0.262448 0.502819 0.506547 0.571115
C2    C     C_R   0.127199 0.506402 0.513193 -0.010739
C3    C     C_R   0.507695 0.070263 0.422043 0.252144
C4    C     C_R   0.493086 0.930025 0.577875 0.317035
C5    C     C_R   0.517051 0.071562 0.576744 0.308936
C6    C     C_R   0.483665 0.928751 0.423220 0.316279
C7    C     C_R   0.498332 0.499017 0.329296 0.573208
C8    C     C_R   0.500201 0.500255 0.670650 0.587174
C9    C     C_R   0.612415 0.494910 0.811586 0.124226
C10   C     C_R   0.387944 0.466687 0.188637 0.077961
C11   C     C_R   0.500572 0.498301 0.767664 0.045536
C12   C     C_R   0.737741 0.497413 0.494348 0.569926
C13   C     C_R   0.497522 0.492685 0.232112 0.048036
C14   C     C_R   0.390199 0.484223 0.815007 0.063924
C15   C     C_R   0.609372 0.490893 0.184652 0.104109
C16   C     C_R   0.391293 0.464353 0.907446 -0.012245
C17   C     C_R   0.611133 0.475519 0.091717 -0.002747
C18   C     C_R   0.502217 0.465467 0.952550 -0.017485
C19   C     C_R   0.500839 0.462639 0.046712 -0.005973
C20   C     C_R   0.614316 0.468706 0.904042 0.022319
C21   C     C_R   0.390133 0.444584 0.095096 0.028458
C22   C     C_R   0.285697 0.431142 0.954926 -0.038096
C23   C     C_R   0.287549 0.406315 0.046189 0.256689
C24   C     C_R   0.721492 0.461442 0.042886 -0.046693
C25   C     C_R   0.723067 0.443031 0.950883 0.261896
C26   C     C_R   0.067851 0.382151 0.526337 0.080154
C27   C     C_R   0.932300 0.620054 0.477315 0.079579
C28   C     C_R   0.944733 0.373971 0.506077 0.089444
C29   C     C_R   0.055860 0.627853 0.496659 0.096370
C30   C     C_R   0.873153 0.495052 0.489246 -0.013701
Cu1   Cu    Cu3+1 0.500000 0.640660 0.500000 1.194901
Cu2   Cu    Cu3+1 0.500000 0.359340 0.500000 1.164288
H1    H     H_    0.204149 0.408669 0.920088 0.200244
H2    H     H_    0.807576 0.449923 0.075949 0.209212
H3    H     H_    0.108130 0.103963 0.028489 0.407316
H4    H     H_    0.018549 0.374590 0.842752 0.384587
H5    H     H_    0.426815 0.207901 0.271437 0.371381
H6    H     H_    0.454786 0.805042 0.806338 0.369087
H7    H     H_    0.785185 0.210516 0.665001 0.391005
H8    H     H_    0.220702 0.783137 0.323906 0.380260
I1    I     I_    0.768188 0.567191 0.740067 -0.081992
I2    I     I_    0.221078 0.485334 0.266298 -0.142522
I3    I     I_    0.221674 0.509642 0.747292 -0.197536
I4    I     I_    0.775819 0.510201 0.254355 -0.124621
I5    I     I_    0.152444 0.210630 0.595552 -0.097229
I6    I     I_    0.846893 0.794794 0.411794 -0.084275
I7    I     I_    0.885417 0.172402 0.479224 -0.054111
I8    I     I_    0.117879 0.829761 0.520343 -0.045424
N1    N     N_R   0.500000 0.852070 0.500000 -0.307549
N2    N     N_R   0.500000 0.147930 0.500000 -0.312164
O1    O     O_R   0.319640 0.618740 0.499990 -0.424920
O2    O     O_2   0.062658 0.361626 0.110996 -0.209894
O3    O     O_3   0.154792 0.177474 0.000587 -0.461021
O4    O     O_2   0.888045 0.237482 0.975873 -0.195944
O5    O     O_2   0.808065 0.261105 0.826294 -0.234024
O6    O     O_3   0.963467 0.436401 0.879562 -0.481052
O7    O     O_2   0.683132 0.223742 0.344821 -0.223409
O8    O     O_2   0.666020 0.992411 0.290082 -0.180527
O9    O     O_3   0.503400 0.172017 0.242132 -0.433120
O10   O     O_2   0.342098 0.006134 0.715344 -0.215276
O11   O     O_2   0.318137 0.778972 0.655158 -0.242518
O12   O     O_R   0.680360 0.381260 0.500010 -0.427864
O13   O     O_3   0.506564 0.819006 0.752532 -0.460342
O14   O     O_2   0.526962 0.172878 0.744992 -0.192373
O15   O     O_2   0.681876 0.998674 0.698820 -0.216853
O16   O     O_3   0.705187 0.244027 0.642636 -0.486757
O17   O     O_2   0.318568 0.001919 0.301342 -0.260252
O18   O     O_2   0.473510 0.827051 0.255257 -0.197168
O19   O     O_3   0.294444 0.759693 0.358581 -0.490288
O20   O     O_R   0.680360 0.618740 0.500010 -0.495459
O21   O     O_R   0.319640 0.381260 0.499990 -0.498024
O22   O     O_R   0.499970 0.618800 0.370260 -0.430238
O23   O     O_R   0.500030 0.381200 0.629740 -0.437206
O24   O     O_R   0.500030 0.618800 0.629740 -0.442715
O25   O     O_R   0.499970 0.381200 0.370260 -0.493141
O26   O     O_2   0.230272 0.205968 0.161334 -0.211648
S1    S     S_3+6 0.181039 0.287191 0.084286 0.095980
S2    S     S_3+6 0.846675 0.338959 0.906677 0.091039
S3    S     S_3+6 0.593933 0.117016 0.324832 0.135840
S4    S     S_3+6 0.410188 0.882085 0.675783 0.121190
S5    S     S_3+6 0.607676 0.122500 0.668213 0.135885
S6    S     S_3+6 0.393104 0.878623 0.331926 0.110406

loop_
_geom_bond_atom_site_label_1
_geom_bond_atom_site_label_2
_ccdc_geom_bond_type
C28   I7    S    
C6    S6    S    
H3    O3    S    
O7    S3    D    
O13   S4    S    
C3    C6    A    
C3    S3    S    
Cu2   O25   S    
C1    O21   A    
C2    C29   A    
C19   C21   A    
C15   I4    S    
C4    S4    S    
C11   C14   A    
C10   I2    S    
C20   C25   A    
O11   S4    D    
O6    S2    S    
C27   C29   A    
C1    C2    S    
O19   S6    S    
C26   I5    S    
C5    S5    S    
Cu1   O20   S    
C9    C11   A    
C10   C21   A    
C27   C30   A    
Cu1   N1    S    
C3    N2    A    
Cu2   O21   S    
O26   S1    D    
C21   C23   A    
C17   C24   A    
H8    O19   S    
C29   I8    S    
C25   S2    S    
C24   C25   A    
O9    S3    S    
Cu2   O23   S    
O5    S2    D    
C18   C19   A    
Cu1   O24   S    
C7    O25   A    
C24   H2    S    
O3    S1    S    
H4    O6    S    
C12   O12   A    
C9    C20   A    
O15   S5    D    
Cu1   Cu2   S    
C8    O24   A    
C2    C26   A    
C23   S1    S    
C1    O1    A    
Cu2   N2    S    
H5    O9    S    
O8    S3    D    
C27   I6    S    
Cu1   O22   S    
C13   C15   A    
H7    O16   S    
C14   C16   A    
C5    N2    A    
O2    S1    D    
C7    O22   A    
H6    O13   S    
C15   C17   A    
C22   H1    S    
C12   O20   A    
O10   S4    D    
C16   C22   A    
C12   C30   S    
C26   C28   A    
Cu1   O1    S    
C4    C5    A    
C10   C13   A    
C9    I1    S    
C4    N1    A    
O18   S6    D    
C28   C30   A    
Cu2   O12   S    
O16   S5    S    
C8    C11   S    
C8    O23   A    
C17   C19   A    
C18   C20   A    
C6    N1    A    
O14   S5    D    
C7    C13   S    
O17   S6    D    
C16   C18   A    
C22   C23   A    
C14   I3    S    
O4    S2    D    
