data_mof_unit_52477.cif
_audit_creation_date              2012-12-10T18:23:16-0500
_audit_creation_method            fapswitch 2.2
_symmetry_space_group_name_H-M    P1
_symmetry_Int_Tables_number       1
_space_group_crystal_system       triclinic
_cell_length_a                    27.815466
_cell_length_b                    10.606645
_cell_length_c                    9.477167
_cell_angle_alpha                 90.105704
_cell_angle_beta                  90.657086
_cell_angle_gamma                 89.714395
_cell_volume                      2795.81388303

loop_
_atom_site_label
_atom_site_type_symbol
_atom_type_description
_atom_site_fract_x
_atom_site_fract_y
_atom_site_fract_z
_atom_type_partial_charge
C1    C     C_R   0.500891 0.259792 0.499977 0.815225
C2    C     C_R   0.499047 0.740202 0.500010 0.816034
C3    C     C_R   0.101885 0.494658 0.492568 -0.112184
C4    C     C_R   0.897856 0.505785 0.502351 -0.110543
C5    C     C_R   0.127614 0.386614 0.538167 -0.141547
C6    C     C_R   0.871921 0.608211 0.443224 -0.139413
C7    C     C_R   0.101954 0.278800 0.579369 0.519608
C8    C     C_R   0.897353 0.709785 0.384878 0.516424
C9    C     C_R   0.127422 0.600738 0.445458 -0.001504
C10   C     C_R   0.872524 0.405401 0.563744 -0.004718
C11   C     C_R   0.354772 0.497934 0.497362 -0.280949
C12   C     C_R   0.645165 0.501852 0.502655 -0.279952
C13   C     C_R   0.974348 0.397310 0.555846 0.092420
C14   C     C_R   0.025487 0.605667 0.444871 0.093469
C15   C     C_R   0.974333 0.606070 0.441844 -0.029563
C16   C     C_R   0.025321 0.391717 0.546180 -0.028904
C17   C     C_R   0.949024 0.503257 0.500255 0.075802
C18   C     C_R   0.050717 0.497150 0.494192 0.074558
C19   C     C_R   0.947600 0.300516 0.620378 -0.207111
C20   C     C_R   0.052528 0.711183 0.401730 -0.201297
C21   C     C_R   0.897801 0.304564 0.623717 -0.147363
C22   C     C_R   0.102364 0.708188 0.401254 -0.142901
C23   C     C_R   0.407708 0.499253 0.499223 0.885394
C24   C     C_R   0.592269 0.500713 0.500784 0.887983
C25   C     C_R   0.051865 0.283115 0.585433 -0.286516
C26   C     C_R   0.947494 0.706003 0.381170 -0.289735
C27   C     C_3   0.517795 0.039020 0.621517 0.588621
C28   C     C_3   0.482071 0.960954 0.378397 0.588856
C29   C     C_3   0.545274 0.954880 0.517218 -0.333402
C30   C     C_3   0.454591 0.045120 0.482672 -0.332404
C31   C     C_3   0.498939 0.876946 0.500113 -0.082108
C32   C     C_3   0.500930 0.123044 0.499812 -0.082911
C33   C     C_3   0.471743 0.960111 0.606663 -0.304406
C34   C     C_3   0.528115 0.039881 0.393238 -0.305393
C35   C     C_3   0.516793 0.606032 0.052372 -0.329676
C36   C     C_3   0.483230 0.393942 0.947637 -0.330570
C37   C     C_3   0.473921 0.590724 0.950031 0.398235
C38   C     C_3   0.526109 0.409282 0.050000 0.397161
C39   C     C_3   0.542524 0.514103 0.952772 0.523539
C40   C     C_3   0.457491 0.485908 0.047191 0.523147
C41   C     C_R   0.178381 0.389891 0.540112 0.604753
C42   C     C_R   0.821148 0.605085 0.443768 0.610161
C43   C     C_R   0.177786 0.597865 0.445086 0.624646
C44   C     C_R   0.822164 0.408053 0.564447 0.619723
C45   C     C_R   0.278855 0.574446 0.591411 0.352563
C46   C     C_R   0.720984 0.421886 0.411664 0.352592
C47   C     C_R   0.329113 0.580203 0.586719 0.293512
C48   C     C_R   0.670727 0.416730 0.416441 0.297067
C49   C     C_R   0.329837 0.413205 0.408157 0.438802
C50   C     C_R   0.670105 0.589047 0.588824 0.439723
C51   C     C_R   0.279092 0.417413 0.405292 -0.290270
C52   C     C_R   0.720896 0.585543 0.590544 -0.293254
C53   C     C_R   0.253791 0.495543 0.497603 0.153571
C54   C     C_R   0.746051 0.504378 0.501260 0.157317
Cu1   Cu    Cu3+1 0.500010 0.499990 0.643150 1.059585
Cu2   Cu    Cu3+1 0.499990 0.500010 0.356850 1.060224
H1    H     H_    0.449367 0.926680 0.694688 0.194764
H2    H     H_    0.550430 0.073352 0.305087 0.196616
H3    H     H_    0.530295 0.694893 0.100181 0.183488
H4    H     H_    0.469706 0.305097 0.899846 0.183443
H5    H     H_    0.258604 0.359681 0.332447 0.173837
H6    H     H_    0.741592 0.645800 0.660196 0.172079
H7    H     H_    0.879127 0.227421 0.673627 0.185041
H8    H     H_    0.121245 0.791657 0.367044 0.174618
H9    H     H_    0.963967 0.220711 0.672279 0.142201
H10   H     H_    0.036434 0.799468 0.370519 0.132736
H11   H     H_    0.034905 0.197503 0.619104 0.154705
H12   H     H_    0.964170 0.782723 0.326348 0.158614
H13   H     H_    0.581980 0.915493 0.532706 0.161584
H14   H     H_    0.417890 0.084519 0.467077 0.160147
N1    N     N_R   0.202129 0.494541 0.494513 -0.432230
N2    N     N_R   0.797661 0.505834 0.503128 -0.432403
N3    N     N_3   0.500040 0.499970 0.858290 -0.240802
N4    N     N_3   0.499960 0.500030 0.141710 -0.240986
O1    O     O_R   0.500020 0.316850 0.620870 -0.564637
O2    O     O_R   0.499980 0.683150 0.379130 -0.564427
O3    O     O_R   0.500000 0.316860 0.379090 -0.543205
O4    O     O_R   0.500000 0.683140 0.620910 -0.543202
O5    O     O_R   0.430270 0.500020 0.620880 -0.561081
O6    O     O_R   0.569730 0.499980 0.379120 -0.561361
O7    O     O_R   0.430250 0.500030 0.379090 -0.494618
O8    O     O_R   0.569750 0.499970 0.620910 -0.495496
O9    O     O_2   0.204013 0.290365 0.588538 -0.478625
O10   O     O_2   0.795229 0.699399 0.384656 -0.478857
O11   O     O_2   0.797729 0.313434 0.625586 -0.519732
O12   O     O_2   0.202370 0.697707 0.395873 -0.521131
O13   O     O_3   0.356504 0.332628 0.322414 -0.542468
C55   C     C_3   0.333830 0.215182 0.300996 -0.311009
H15   H     H_    0.306190 0.222279 0.215854 0.177120
H16   H     H_    0.318300 0.177158 0.399961 0.172764
H17   H     H_    0.361005 0.146208 0.264912 0.180487
O14   O     O_3   0.643293 0.671264 0.672429 -0.544690
C56   C     C_3   0.666622 0.787394 0.696553 -0.312332
H18   H     H_    0.682908 0.825649 0.598803 0.171423
H19   H     H_    0.693731 0.778125 0.782915 0.178404
H20   H     H_    0.639706 0.857250 0.732238 0.180898
O15   O     O_3   0.537535 0.088393 0.747630 -0.562387
C57   C     C_3   0.542698 0.990502 0.847002 -0.266719
H21   H     H_    0.562958 0.908736 0.804139 0.163755
H22   H     H_    0.507038 0.958693 0.883767 0.176149
H23   H     H_    0.563044 0.026705 0.939743 0.215589
O16   O     O_3   0.462308 0.911551 0.252324 -0.561609
C58   C     C_3   0.457481 0.009215 0.152545 -0.265672
H24   H     H_    0.493253 0.039916 0.115554 0.175457
H25   H     H_    0.437564 0.091686 0.195113 0.162765
H26   H     H_    0.436967 0.973235 0.060011 0.215468
Cl1   Cl    Cl    0.437920 0.716538 0.883872 -0.590080
Cl2   Cl    Cl    0.562334 0.283977 0.116540 -0.585058
O17   O     O_3   0.588915 0.523178 0.895227 -0.509843
C59   C     C_3   0.621061 0.572307 0.996994 -0.161863
H27   H     H_    0.619887 0.519263 0.098103 0.197142
H28   H     H_    0.613730 0.674113 0.015263 0.124185
H29   H     H_    0.658139 0.563841 0.956043 0.210150
O18   O     O_3   0.411069 0.476875 0.104488 -0.508445
C60   C     C_3   0.378918 0.428616 0.002175 -0.159022
H30   H     H_    0.386036 0.326761 0.983552 0.123186
H31   H     H_    0.380325 0.481920 0.901287 0.198897
H32   H     H_    0.341806 0.437578 0.042736 0.210416
O19   O     O_3   0.125542 0.170044 0.622339 -0.525693
C61   C     C_3   0.124163 0.082004 0.510578 -0.216832
H33   H     H_    0.140678 0.120857 0.413470 0.156546
H34   H     H_    0.086792 0.050345 0.487828 0.122837
H35   H     H_    0.145407 0.997679 0.542249 0.217376
O20   O     O_3   0.873477 0.810236 0.322204 -0.529779
C62   C     C_3   0.875469 0.914596 0.414642 -0.206679
H36   H     H_    0.912898 0.949498 0.428012 0.125848
H37   H     H_    0.859854 0.891719 0.519189 0.156055
H38   H     H_    0.853718 0.992430 0.368304 0.219216
O21   O     O_3   0.646654 0.328724 0.334957 -0.501391
C63   C     C_3   0.641612 0.217774 0.415362 -0.132166
H39   H     H_    0.676206 0.186195 0.464512 0.166654
H40   H     H_    0.629699 0.140901 0.344099 0.190674
H41   H     H_    0.613889 0.230801 0.497814 0.129641
O22   O     O_3   0.353077 0.666125 0.671217 -0.503044
C64   C     C_3   0.357797 0.779446 0.594832 -0.126119
H42   H     H_    0.369807 0.854326 0.668612 0.192842
H43   H     H_    0.323044 0.812096 0.547580 0.167544
H44   H     H_    0.385333 0.769113 0.511383 0.126962
Cl3   Cl    Cl    0.752325 0.323798 0.293216 -0.531698
Cl4   Cl    Cl    0.247635 0.667007 0.715547 -0.525049

loop_
_geom_bond_atom_site_label_1
_geom_bond_atom_site_label_2
_ccdc_geom_bond_type
C64   H44   S    
Cu1   Cu2   S    
C35   N4    S    
C56   H18   S    
Cu2   O2    S    
C27   C29   S    
C1    O3    A    
C14   C18   A    
C11   C47   A    
C51   H5    S    
C12   C48   A    
O18   C60   S    
C64   H42   S    
C27   C33   S    
C11   C49   A    
C20   H10   S    
C35   C37   S    
C37   Cl1   S    
C37   C40   S    
C38   C39   S    
C9    C22   A    
C60   H30   S    
C41   O9    S    
C8    C26   A    
C3    C18   A    
C35   H3    S    
C49   O13   S    
C59   H27   S    
C24   O8    A    
C24   O6    A    
C40   O18   S    
C61   H34   S    
C49   C51   A    
C25   H11   S    
C62   H38   S    
C50   C52   A    
C31   C33   S    
C19   H9    S    
C63   H40   S    
C61   H35   S    
C41   N1    A    
Cu1   O1    S    
C39   N3    S    
C28   C34   S    
C56   H19   S    
C30   H14   S    
C52   C54   A    
O15   C57   S    
C29   H13   S    
C45   C47   A    
C10   C21   A    
C46   C48   A    
C9    C43   A    
Cu2   N4    S    
C13   C19   A    
C10   C44   A    
C1    O1    A    
C14   C20   A    
Cu2   O7    S    
C42   O10   S    
C4    C6    A    
C5    C7    A    
Cu1   O4    S    
C8    O20   S    
C15   C26   A    
C6    C8    A    
C60   H31   S    
C22   H8    S    
C29   C34   S    
C45   Cl4   S    
Cu2   O3    S    
C2    C31   S    
C51   C53   A    
C32   C34   S    
C35   C39   S    
C3    C9    A    
C7    O19   S    
Cu1   O5    S    
C55   H17   S    
C36   C40   S    
C60   H32   S    
C46   C54   A    
C42   N2    A    
C58   H25   S    
Cu1   O8    S    
C59   H29   S    
C4    C17   A    
C50   O14   S    
C55   H16   S    
C56   H20   S    
C57   H22   S    
C47   O22   S    
C62   H36   S    
C48   O21   S    
C63   H41   S    
C4    C10   A    
C44   O11   S    
C53   N1    S    
C2    O2    A    
C2    O4    A    
C62   H37   S    
O21   C63   S    
C38   N4    S    
C16   C25   A    
C64   H43   S    
C5    C41   A    
C27   O15   S    
C43   N1    A    
C23   O7    A    
C30   C33   S    
C19   C21   A    
C27   C32   S    
C14   C15   A    
C43   O12   S    
C28   C31   S    
C20   C22   A    
C3    C5    A    
Cu2   O6    S    
C12   C50   A    
O19   C61   S    
C15   C17   A    
O22   C64   S    
C33   H1    S    
C57   H23   S    
C12   C24   S    
C37   N3    S    
C7    C25   A    
C13   C17   A    
C26   H12   S    
C28   C30   S    
C63   H39   S    
C29   C31   S    
C52   H6    S    
O17   C59   S    
C36   C38   S    
C30   C32   S    
C11   C23   S    
O14   C56   S    
C40   N4    S    
C44   N2    A    
C58   H26   S    
C1    C32   S    
C38   Cl2   S    
O16   C58   S    
C59   H28   S    
C21   H7    S    
C36   N3    S    
C45   C53   A    
Cu1   N3    S    
C28   O16   S    
C39   O17   S    
C54   N2    S    
C55   H15   S    
O13   C55   S    
C16   C18   A    
C57   H21   S    
C6    C42   A    
C13   C16   A    
C58   H24   S    
C34   H2    S    
C36   H4    S    
C61   H33   S    
O20   C62   S    
C23   O5    A    
C46   Cl3   S    
