data_mof_unit_32045.cif
_audit_creation_date              2012-12-10T20:25:43-0500
_audit_creation_method            fapswitch 2.2
_symmetry_space_group_name_H-M    P1
_symmetry_Int_Tables_number       1
_space_group_crystal_system       triclinic
_cell_length_a                    8.589998
_cell_length_b                    10.675965
_cell_length_c                    9.901543
_cell_angle_alpha                 90.298744
_cell_angle_beta                  98.397226
_cell_angle_gamma                 90.472282
_cell_volume                      898.251923425

loop_
_atom_site_label
_atom_site_type_symbol
_atom_type_description
_atom_site_fract_x
_atom_site_fract_y
_atom_site_fract_z
_atom_type_partial_charge
C1    C     C_R   0.503919 0.260141 0.500360 0.872710
C2    C     C_R   0.567710 0.935069 0.391336 -0.217880
C3    C     C_R   0.526734 0.871627 0.504991 -0.104521
C4    C     C_R   0.513369 0.936972 0.624573 0.171979
C5    C     C_3   0.388792 0.929548 0.715202 -0.457156
C6    C     C_3   0.388919 0.071533 0.715100 -0.496930
C7    C     C_R   0.418037 0.410488 0.060367 0.203740
C8    C     C_R   0.594666 0.578932 0.085469 -0.160981
C9    C     C_R   0.596162 0.578834 0.942427 0.189542
C10   C     C_R   0.417064 0.411061 0.918024 0.170710
C11   C     C_3   0.243618 0.389344 0.892550 -0.494612
C12   C     C_R   0.201342 0.500341 0.464238 0.965298
C13   C     C_3   0.245646 0.386106 0.045938 -0.483976
C14   C     C_R   0.504209 0.739916 0.500785 0.889062
C15   C     C_R   0.798483 0.501480 0.535458 0.980502
C16   C     C_2   0.036130 0.499286 0.444603 -0.392272
C17   C     C_2   0.963250 0.506396 0.553795 -0.368394
C18   C     C_R   0.513298 0.064632 0.624297 0.143046
C19   C     C_R   0.526139 0.128752 0.504317 -0.107231
C20   C     C_R   0.567240 0.064655 0.390942 -0.223255
H1    H     H_    0.974907 0.490823 0.340655 0.184108
H2    H     H_    0.180120 0.471749 0.845745 0.219960
H3    H     H_    0.211245 0.298023 0.841264 0.201709
H4    H     H_    0.180125 0.464600 0.084976 0.226862
H5    H     H_    0.218367 0.291930 0.084218 0.201076
H6    H     H_    0.023956 0.516916 0.656897 0.180254
H7    H     H_    0.589264 0.113526 0.299891 0.175111
H8    H     H_    0.590134 0.885483 0.300484 0.176504
H9    H     H_    0.277003 0.887179 0.663264 0.203555
H10   H     H_    0.433641 0.889441 0.816681 0.226975
H11   H     H_    0.277115 0.111988 0.663280 0.201311
H12   H     H_    0.434215 0.113414 0.816419 0.211493
H13   H     H_    0.668807 0.644012 0.150448 0.167105
N1    N     N_R   0.498950 0.499140 0.142680 -0.120361
N2    N     N_R   0.498950 0.499180 0.857030 -0.123675
O1    O     O_R   0.500020 0.316790 0.614690 -0.616590
O2    O     O_R   0.500000 0.316760 0.385350 -0.624530
O3    O     O_R   0.271760 0.500010 0.587850 -0.615989
O4    O     O_R   0.271740 0.499970 0.358500 -0.623259
O5    O     O_R   0.500000 0.683240 0.614650 -0.593084
O6    O     O_R   0.499980 0.683210 0.385310 -0.627831
O7    O     O_R   0.728260 0.500030 0.641500 -0.595846
O8    O     O_R   0.728240 0.499990 0.412150 -0.622618
Zn1   Zn    Zn3+2 0.500010 0.500020 0.653130 0.972310
Zn2   Zn    Zn3+2 0.499990 0.499980 0.346870 0.945274
I1    I     I_    0.755284 0.706705 0.872110 -0.409205

loop_
_geom_bond_atom_site_label_1
_geom_bond_atom_site_label_2
_ccdc_geom_bond_type
C7    C10   A    
C6    H12   S    
O3    Zn1   S    
C16   H1    S    
C20   H7    S    
C11   C13   S    
O2    Zn2   S    
C11   H2    S    
C19   C20   A    
C1    O2    A    
O4    Zn2   S    
C4    C18   A    
C12   O4    A    
C7    C13   S    
C2    C3    A    
C15   O8    A    
C9    I1    S    
N1    Zn2   S    
C8    N1    A    
N2    Zn1   S    
O8    Zn2   S    
C13   H5    S    
C10   N2    A    
C3    C14   S    
O7    Zn1   S    
C14   O6    A    
C17   H6    S    
C11   H3    S    
C6    H11   S    
C5    H9    S    
C8    H13   S    
C12   O3    A    
C5    C6    S    
C6    C18   S    
C7    N1    A    
O1    Zn1   S    
C1    C19   S    
C10   C11   S    
C14   O5    A    
C3    C4    A    
C16   C17   D    
O5    Zn1   S    
C15   O7    A    
C15   C17   S    
C18   C19   A    
C5    H10   S    
C9    N2    A    
O6    Zn2   S    
C8    C9    A    
C2    H8    S    
C1    O1    A    
C2    C20   A    
C12   C16   S    
C13   H4    S    
C4    C5    S    
