data_mof_unit_38934.cif
_audit_creation_date              2012-12-10T19:33:12-0500
_audit_creation_method            fapswitch 2.2
_symmetry_space_group_name_H-M    P1
_symmetry_Int_Tables_number       1
_space_group_crystal_system       triclinic
_cell_length_a                    8.723624
_cell_length_b                    15.925449
_cell_length_c                    16.935084
_cell_angle_alpha                 97.726803
_cell_angle_beta                  92.914175
_cell_angle_gamma                 85.029864
_cell_volume                      2320.79194795

loop_
_atom_site_label
_atom_site_type_symbol
_atom_type_description
_atom_site_fract_x
_atom_site_fract_y
_atom_site_fract_z
_atom_type_partial_charge
C1    C     C_R   0.498196 0.488917 0.348297 0.851132
C2    C     C_R   0.502182 0.511084 0.651722 0.847234
C3    C     C_R   0.436918 0.753472 0.453746 -0.016721
C4    C     C_R   0.564346 0.246500 0.545838 -0.016359
C5    C     C_R   0.440627 0.842595 0.454727 -0.244784
C6    C     C_R   0.561260 0.157335 0.544786 -0.245499
C7    C     C_R   0.530967 0.889427 0.513701 0.303658
C8    C     C_R   0.470372 0.110471 0.486124 0.307712
C9    C     C_R   0.613423 0.845126 0.568707 -0.303997
C10   C     C_R   0.386703 0.154782 0.431530 -0.308064
C11   C     C_R   0.607807 0.757234 0.567775 0.563907
C12   C     C_R   0.391329 0.242810 0.432597 0.568286
C13   C     C_R   0.205799 0.521629 0.501041 0.887912
C14   C     C_R   0.794203 0.478375 0.498980 0.889810
C15   C     C_2   0.041155 0.533545 0.501231 -0.302301
C16   C     C_2   0.958847 0.466457 0.498786 -0.299183
C17   C     C_R   0.490052 0.482539 0.261315 -0.077879
C18   C     C_R   0.511497 0.517570 0.738737 -0.076957
C19   C     C_R   0.398985 0.543987 0.224247 -0.264746
C20   C     C_R   0.600841 0.455317 0.775592 -0.270886
C21   C     C_R   0.388477 0.539154 0.141114 0.422840
C22   C     C_R   0.612813 0.460429 0.858726 0.421857
C23   C     C_R   0.476529 0.473310 0.094854 0.277083
C24   C     C_R   0.527581 0.527278 0.905268 0.280294
C25   C     C_R   0.564461 0.411108 0.132250 -0.188422
C26   C     C_R   0.441733 0.590357 0.868081 -0.163989
C27   C     C_R   0.572027 0.415836 0.215052 -0.184387
C28   C     C_R   0.433256 0.585549 0.785271 -0.141886
Cu1   Cu    Cu3+1 0.492520 0.415770 0.496210 1.030672
Cu2   Cu    Cu3+1 0.507480 0.584230 0.503790 1.029167
H1    H     H_    0.987466 0.597978 0.503286 0.197026
H2    H     H_    0.012539 0.402024 0.496722 0.196580
H3    H     H_    0.663768 0.403706 0.739345 0.188898
H4    H     H_    0.333879 0.594808 0.260350 0.188062
H5    H     H_    0.630269 0.359924 0.097039 0.211432
H6    H     H_    0.378064 0.642286 0.903456 0.202720
H7    H     H_    0.643935 0.368391 0.243050 0.206984
H8    H     H_    0.363026 0.633796 0.757499 0.191516
H9    H     H_    0.635099 0.281231 0.591021 0.164210
H10   H     H_    0.366725 0.718769 0.408273 0.164766
H11   H     H_    0.629129 0.126008 0.589263 0.185705
H12   H     H_    0.373711 0.873910 0.409929 0.185403
H13   H     H_    0.679658 0.881417 0.614973 0.219483
H14   H     H_    0.319957 0.118403 0.385515 0.209497
N1    N     N_2   0.479259 0.467856 0.011014 -0.142164
N2    N     N_2   0.525017 0.532719 0.989137 -0.119374
N3    N     N_R   0.518730 0.710760 0.509500 -0.235445
N4    N     N_R   0.481270 0.289240 0.490500 -0.232939
N5    N     N_2   0.544263 0.979767 0.522355 -0.199457
N6    N     N_2   0.457388 0.020106 0.477439 -0.199543
O1    O     O_R   0.493000 0.421040 0.382520 -0.506623
O2    O     O_R   0.507000 0.578960 0.617480 -0.510766
O3    O     O_R   0.505640 0.563310 0.388930 -0.609496
O4    O     O_R   0.494360 0.436690 0.611070 -0.610799
O5    O     O_R   0.269980 0.445280 0.497530 -0.542401
O6    O     O_R   0.730020 0.554720 0.502470 -0.541735
O7    O     O_R   0.282610 0.587550 0.503940 -0.597622
O8    O     O_R   0.717390 0.412450 0.496060 -0.595665
S1    S     S_3+6 0.739221 0.384956 0.902323 0.041149
O9    O     O_2   0.648262 0.315436 0.922791 -0.274416
O10   O     O_2   0.860047 0.347102 0.844785 -0.263864
O11   O     O_3   0.825547 0.432007 0.985758 -0.487023
H15   H     H_    0.884012 0.384994 0.009800 0.381677
S2    S     S_3+6 0.261436 0.614150 0.097201 0.037675
O12   O     O_2   0.184204 0.571745 0.022816 -0.251064
O13   O     O_2   0.140827 0.652301 0.154753 -0.266134
O14   O     O_3   0.362984 0.691775 0.073843 -0.513235
H16   H     H_    0.287147 0.729734 0.047154 0.379671
S3    S     S_3+6 0.706453 0.718754 0.652517 0.022253
O15   O     O_2   0.592009 0.720823 0.716190 -0.296654
O16   O     O_2   0.785658 0.631313 0.636801 -0.288249
O17   O     O_3   0.842262 0.784420 0.688235 -0.545882
H17   H     H_    0.878734 0.765864 0.739980 0.390725
S4    S     S_3+6 0.290510 0.281403 0.348295 0.026072
O18   O     O_2   0.165938 0.223955 0.318618 -0.300369
O19   O     O_2   0.215774 0.369940 0.363099 -0.286489
O20   O     O_3   0.416479 0.275800 0.275640 -0.532543
H18   H     H_    0.352575 0.284466 0.226905 0.382943

loop_
_geom_bond_atom_site_label_1
_geom_bond_atom_site_label_2
_ccdc_geom_bond_type
C14   O6    A    
C5    H12   S    
C23   N1    S    
C12   S4    S    
C2    C18   S    
C11   N3    A    
C12   N4    A    
O20   H18   S    
Cu1   Cu2   S    
S4    O19   D    
C19   C21   A    
C24   C26   A    
C4    N4    A    
C13   O7    A    
Cu1   O4    S    
C15   C16   D    
Cu2   O7    S    
S3    O16   D    
C1    O3    A    
C21   S2    S    
S4    O20   S    
C18   C20   A    
S1    O9    D    
C10   C12   A    
C14   O8    A    
Cu2   O3    S    
C9    H13   S    
S1    O10   D    
S4    O18   D    
Cu1   N4    S    
C10   H14   S    
O14   H16   S    
C17   C27   A    
S2    O14   S    
Cu2   N3    S    
C18   C28   A    
C7    N5    S    
C4    C6    A    
C2    O4    A    
C22   S1    S    
C5    C7    A    
C6    C8    A    
Cu1   O5    S    
N1    N2    D    
Cu2   O6    S    
C6    H11   S    
S2    O13   D    
S3    O17   S    
O11   H15   S    
C9    C11   A    
C4    H9    S    
C28   H8    S    
C1    O1    A    
C2    O2    A    
C25   H5    S    
C20   H3    S    
C26   H6    S    
C20   C22   A    
C3    H10   S    
C13   C15   S    
C22   C24   A    
C16   H2    S    
C8    N6    S    
Cu1   O1    S    
C7    C9    A    
Cu2   O2    S    
S1    O11   S    
C1    C17   S    
O17   H17   S    
C3    C5    A    
C19   H4    S    
C11   S3    S    
C15   H1    S    
C25   C27   A    
C26   C28   A    
C24   N2    S    
S2    O12   D    
C21   C23   A    
C27   H7    S    
C3    N3    A    
C17   C19   A    
C14   C16   S    
C23   C25   A    
S3    O15   D    
Cu1   O8    S    
C8    C10   A    
N5    N6    D    
C13   O5    A    
