data_mof_unit_27615.cif
_audit_creation_date              2012-12-10T17:20:53-0500
_audit_creation_method            fapswitch 2.2
_symmetry_space_group_name_H-M    P1
_symmetry_Int_Tables_number       1
_space_group_crystal_system       triclinic
_cell_length_a                    14.309497
_cell_length_b                    10.847043
_cell_length_c                    9.660796
_cell_angle_alpha                 90.892281
_cell_angle_beta                  92.192732
_cell_angle_gamma                 90.044526
_cell_volume                      1498.22641156

loop_
_atom_site_label
_atom_site_type_symbol
_atom_type_description
_atom_site_fract_x
_atom_site_fract_y
_atom_site_fract_z
_atom_type_partial_charge
C1    C     C_R   0.504913 0.262816 0.498930 0.855304
C2    C     C_1   0.771023 0.504479 0.500937 -0.084700
C3    C     C_R   0.671651 0.119018 0.606705 0.052564
C4    C     C_R   0.730388 0.059125 0.702900 -0.145569
C5    C     C_R   0.713573 0.937547 0.735341 -0.082164
C6    C     C_R   0.641197 0.873059 0.667024 -0.143508
C7    C     C_R   0.575550 0.934519 0.578691 0.023838
C8    C     C_R   0.585947 0.062966 0.560512 0.096438
C9    C     C_R   0.511778 0.128584 0.493869 -0.125674
C10   C     C_R   0.437712 0.065509 0.427261 -0.241316
C11   C     C_R   0.433145 0.937732 0.427844 0.330654
C12   C     C_R   0.331321 0.499151 0.497754 0.856205
C13   C     C_R   0.501952 0.871416 0.504503 -0.189434
C14   C     C_R   0.633567 0.640565 0.147107 -0.286801
C15   C     C_R   0.714314 0.680089 0.085199 0.318023
C16   C     C_R   0.736384 0.627587 0.955442 0.212147
C17   C     C_R   0.671286 0.542760 0.890776 -0.145855
C18   C     C_R   0.577684 0.540997 0.934647 0.157106
C19   C     C_R   0.568988 0.561249 0.078871 0.119012
C20   C     C_R   0.428491 0.449341 0.066600 0.104973
C21   C     C_R   0.426465 0.457116 0.919701 -0.062210
C22   C     C_R   0.499638 0.737241 0.501190 0.863667
C23   C     C_R   0.668581 0.504003 0.501423 0.802286
C24   C     C_1   0.228811 0.499090 0.493225 -0.103975
C25   C     C_1   0.143250 0.499571 0.491837 0.049324
C26   C     C_1   0.042509 0.500471 0.492165 0.067729
C27   C     C_1   0.957036 0.501407 0.493667 0.097105
C28   C     C_1   0.856435 0.502824 0.496838 0.113126
Cu1   Cu    Cu3+1 0.499990 0.499990 0.640660 0.998580
Cu2   Cu    Cu3+1 0.500010 0.500010 0.359340 1.066725
H1    H     H_    0.382100 0.117202 0.376118 0.224376
H2    H     H_    0.367219 0.419916 0.859822 0.132691
H3    H     H_    0.793890 0.102925 0.744015 0.159309
H4    H     H_    0.760896 0.890840 0.806353 0.229926
H5    H     H_    0.638398 0.775681 0.686326 0.173970
H6    H     H_    0.622650 0.675049 0.248336 0.252105
N1    N     N_R   0.500820 0.501210 0.147910 -0.166747
N2    N     N_R   0.500850 0.501290 0.852040 -0.154550
O1    O     O_R   0.499990 0.319640 0.618810 -0.559845
O2    O     O_R   0.500000 0.319660 0.381240 -0.495852
O3    O     O_R   0.376050 0.499990 0.618810 -0.581350
O4    O     O_R   0.376060 0.500010 0.381240 -0.526876
O5    O     O_R   0.500000 0.680340 0.618760 -0.589589
O6    O     O_R   0.500010 0.680360 0.381190 -0.557760
O7    O     O_R   0.623940 0.499990 0.618760 -0.584444
O8    O     O_R   0.623950 0.500010 0.381190 -0.549015
S1    S     S_3+6 0.846252 0.653984 0.879325 0.003902
O9    O     O_2   0.910140 0.547094 0.909937 -0.280869
O10   O     O_2   0.829279 0.663035 0.725990 -0.370200
O11   O     O_3   0.900723 0.784311 0.933186 -0.434287
H7    H     H_    0.958035 0.787998 0.879045 0.385202
C29   C     C_2   0.710339 0.423640 0.840452 0.474697
H8    H     H_    0.780372 0.418229 0.802402 0.105640
O12   O     O_2   0.664340 0.328803 0.842630 -0.541740
C30   C     C_2   0.713889 0.222127 0.534498 0.342033
H9    H     H_    0.768279 0.276187 0.587588 0.043629
O13   O     O_2   0.695731 0.239390 0.411805 -0.520531
S2    S     S_3+6 0.335912 0.865059 0.340436 0.046280
O14   O     O_2   0.291556 0.776799 0.436616 -0.281871
O15   O     O_2   0.264108 0.958506 0.294542 -0.239651
O16   O     O_3   0.371333 0.786552 0.200440 -0.491082
H10   H     H_    0.409480 0.846037 0.150018 0.344566
C31   C     C_2   0.348012 0.387389 0.125485 0.434695
H11   H     H_    0.277634 0.413164 0.091523 0.059177
O17   O     O_2   0.358837 0.300848 0.203196 -0.525678
S3    S     S_3+6 0.789259 0.780234 0.185816 0.070934
O18   O     O_2   0.884951 0.723984 0.202184 -0.196552
O19   O     O_2   0.795473 0.902255 0.115083 -0.222596
O20   O     O_3   0.747490 0.804629 0.344532 -0.575422
H12   H     H_    0.792076 0.863005 0.391385 0.389778

loop_
_geom_bond_atom_site_label_1
_geom_bond_atom_site_label_2
_ccdc_geom_bond_type
Cu1   N2    S    
S3    O19   D    
C30   H9    S    
C31   O17   D    
Cu1   Cu2   S    
C23   O7    A    
C11   S2    S    
C9    C10   A    
C12   C24   S    
C22   O5    A    
C6    C7    A    
Cu1   O3    S    
C5    H4    S    
Cu1   O1    S    
S2    O16   S    
C17   C18   A    
C18   N2    A    
Cu2   O2    S    
C7    C8    A    
S1    O10   D    
C23   O8    A    
C3    C4    A    
C29   H8    S    
C4    C5    A    
C20   N1    A    
C11   C13   A    
Cu2   O6    S    
C26   C27   T    
O20   H12   S    
C12   O4    A    
C22   O6    A    
C20   C31   S    
C5    C6    A    
C10   H1    S    
C17   C29   S    
C29   O12   D    
C13   C22   S    
S3    O18   D    
S1    O11   S    
C30   O13   D    
C14   H6    S    
O16   H10   S    
C21   H2    S    
S2    O14   D    
C3    C8    A    
S3    O20   S    
C16   C17   A    
C10   C11   A    
C1    O1    A    
S2    O15   D    
C15   C16   A    
S1    O9    D    
C7    C13   A    
C1    C9    S    
C24   C25   T    
C16   S1    S    
C12   O3    A    
C20   C21   A    
C18   C19   A    
C6    H5    S    
C2    C23   S    
C4    H3    S    
Cu2   O4    S    
C2    C28   T    
C19   N1    A    
C1    O2    A    
O11   H7    S    
C25   C26   S    
C14   C15   A    
C15   S3    S    
C3    C30   S    
C14   C19   A    
Cu2   O8    S    
Cu1   O5    S    
C21   N2    A    
C31   H11   S    
Cu2   N1    S    
Cu1   O7    S    
C8    C9    A    
C27   C28   S    
