data_mof_unit_28715.cif
_audit_creation_date              2013-03-05T15:45:21-0500
_audit_creation_method            fapswitch 2.2
_symmetry_space_group_name_H-M    P1
_symmetry_Int_Tables_number       1
_space_group_crystal_system       triclinic
_cell_length_a                    10.791868
_cell_length_b                    11.028434
_cell_length_c                    9.828648
_cell_angle_alpha                 111.233168
_cell_angle_beta                  97.922767
_cell_angle_gamma                 91.013032
_cell_volume                      1077.06202676

loop_
_atom_site_label
_atom_site_type_symbol
_atom_site_description
_atom_site_fract_x
_atom_site_fract_y
_atom_site_fract_z
_atom_type_partial_charge
O1    O     O_R   0.511700 0.332340 0.577400 -0.582417
O2    O     O_R   0.488300 0.667660 0.422600 -0.582417
O3    O     O_R   0.474680 0.295500 0.332650 -0.556549
O4    O     O_R   0.525320 0.704500 0.667350 -0.556551
C1    C     C_R   0.490708 0.254064 0.440563 0.833974
C2    C     C_R   0.509292 0.745936 0.559436 0.833973
O5    O     O_R   0.338170 0.518410 0.622370 -0.578460
O6    O     O_R   0.661830 0.481590 0.377630 -0.578459
O7    O     O_R   0.301150 0.481570 0.377630 -0.562540
O8    O     O_R   0.698850 0.518430 0.622370 -0.562541
C3    C     C_R   0.263044 0.500347 0.501610 0.779831
C4    C     C_R   0.736956 0.499653 0.498390 0.779830
Cu1   Cu    Cu3+1 0.521920 0.521810 0.644910 0.982928
Cu2   Cu    Cu3+1 0.478080 0.478190 0.355090 0.982930
H1    H     H_    0.074713 0.062824 0.211703 0.195851
H2    H     H_    0.925287 0.937175 0.788301 0.195849
C5    C     C_R   0.152436 0.734619 0.661686 -0.234106
C6    C     C_R   0.847564 0.265381 0.338314 -0.234107
C7    C     C_R   0.099451 0.850350 0.738118 0.380832
C8    C     C_R   0.900549 0.149649 0.261884 0.380831
C9    C     C_R   0.969244 0.849269 0.731782 -0.158713
C10   C     C_R   0.030756 0.150730 0.268221 -0.158708
C11   C     C_R   0.893670 0.735147 0.651752 -0.198057
C12   C     C_R   0.106330 0.264853 0.348250 -0.198056
C13   C     C_R   0.946244 0.617053 0.577009 0.072849
C14   C     C_R   0.053756 0.382947 0.422992 0.072848
C15   C     C_R   0.077077 0.616820 0.581658 0.012471
C16   C     C_R   0.922923 0.383180 0.418343 0.012471
C17   C     C_R   0.870513 0.500274 0.495897 -0.124903
C18   C     C_R   0.129487 0.499726 0.504103 -0.124903
H3    H     H_    0.252944 0.737951 0.665285 0.179144
H4    H     H_    0.747055 0.262049 0.334715 0.179144
H5    H     H_    0.793518 0.741286 0.648706 0.157282
H6    H     H_    0.206482 0.258714 0.351297 0.157282
H7    H     H_    0.478148 0.864304 0.368578 0.191573
H8    H     H_    0.521853 0.135696 0.631422 0.191574
C19   C     C_2   0.484916 0.114581 0.407068 -0.295867
C20   C     C_2   0.515085 0.885419 0.592932 -0.295862
C21   C     C_2   0.502819 0.069610 0.516480 -0.137232
C22   C     C_2   0.497182 0.930390 0.483520 -0.137233
H9    H     H_    0.534143 0.951778 0.707672 0.195360
H10   H     H_    0.465857 0.048222 0.292327 0.195360
H11   H     H_    0.416533 0.417020 0.845886 0.170064
H12   H     H_    0.583467 0.582980 0.154114 0.170064
N1    N     N_2   0.445130 0.445420 0.137360 -0.275833
N2    N     N_2   0.554870 0.554580 0.862640 -0.275833
C23   C     C_2   0.510622 0.510537 0.081246 -0.049846
C24   C     C_2   0.489378 0.489463 0.918754 -0.049846
H13   H     H_    0.623386 0.622820 0.934348 0.227553
H14   H     H_    0.376614 0.377180 0.065652 0.227553
N3    N     N_R   0.177564 0.968507 0.821325 0.121851
O9    O     O_R   0.128171 0.075495 0.892751 -0.370146
O10   O     O_R   0.298919 0.969942 0.828247 -0.376897
N4    N     N_R   0.822436 0.031492 0.178678 0.121850
O11   O     O_R   0.871830 0.924500 0.107271 -0.370145
O12   O     O_R   0.701080 0.030063 0.171738 -0.376894

loop_
_geom_bond_atom_site_label_1
_geom_bond_atom_site_label_2
_geom_bond_distance
_ccdc_geom_bond_type
O5    C3    1.289766 A    
O7    Cu2   1.951781 S    
C2    C20   1.450063 S    
N4    O12   1.301527 A    
H2    C9    1.082738 S    
C1    C19   1.450064 S    
C4    C17   1.444847 S    
C13   C15   1.406436 A    
H11   C24   1.085064 S    
C14   C16   1.406436 A    
C23   C24   1.511811 S    
H12   C23   1.085064 S    
O6    C4    1.289765 A    
N1    C23   1.302240 D    
H7    C22   1.088119 S    
O2    Cu2   1.945787 S    
C6    C16   1.419149 A    
C19   C21   1.331228 D    
Cu1   Cu2   2.682778 S    
C15   C18   1.414307 A    
C20   C22   1.331228 D    
O7    C3    1.286564 A    
N2    H13   1.030685 S    
O2    C2    1.293632 A    
O3    Cu2   1.944899 S    
O8    C4    1.286565 A    
N1    H14   1.030685 S    
O1    C1    1.293631 A    
C8    N4    1.441069 S    
C16   C17   1.414306 A    
C5    C7    1.403588 A    
C8    C10   1.397600 A    
C14   C18   1.414796 A    
Cu2   N1    2.015467 S    
C6    C8    1.403589 A    
C9    C11   1.392017 A    
C13   C17   1.414796 A    
Cu1   N2    2.015466 S    
C5    H3    1.079900 S    
C10   C12   1.392017 A    
C6    H4    1.079899 S    
C21   C22   1.448106 S    
N3    O9    1.301758 A    
C5    C15   1.419149 A    
N2    C24   1.302240 D    
C7    N3    1.441069 S    
O5    Cu1   1.962916 S    
C11   C13   1.416268 A    
O1    Cu1   1.945788 S    
C11   H5    1.081115 S    
C20   H9    1.087483 S    
O4    C2    1.291127 A    
H1    C10   1.082738 S    
C19   H10   1.087484 S    
N4    O11   1.301755 A    
O6    Cu2   1.962916 S    
N3    O10   1.301529 A    
C7    C9    1.397600 A    
H8    C21   1.088119 S    
C12   H6    1.081114 S    
O4    Cu1   1.944899 S    
C3    C18   1.444847 S    
C12   C14   1.416268 A    
O3    C1    1.291127 A    
O8    Cu1   1.951780 S    
