data_mof_unit_26033.cif
_audit_creation_date              2012-12-11T17:43:59-0500
_audit_creation_method            fapswitch 2.2
_symmetry_space_group_name_H-M    P1
_symmetry_Int_Tables_number       1
_space_group_crystal_system       triclinic
_cell_length_a                    20.260297
_cell_length_b                    22.68758
_cell_length_c                    6.937172
_cell_angle_alpha                 89.999227
_cell_angle_beta                  86.879479
_cell_angle_gamma                 89.991795
_cell_volume                      3183.99227836

loop_
_atom_site_label
_atom_site_type_symbol
_atom_type_description
_atom_site_fract_x
_atom_site_fract_y
_atom_site_fract_z
_atom_type_partial_charge
O1    O     O_R   0.751270 0.447300 0.600030 -0.508358
O2    O     O_R   0.248730 0.947300 0.399970 -0.502126
O3    O     O_R   0.613530 0.440160 0.952150 -0.521408
O4    O     O_R   0.386470 0.940160 0.047850 -0.526455
O5    O     O_R   0.613050 0.552700 0.122560 -0.533154
O6    O     O_R   0.386950 0.052700 0.877440 -0.533236
C1    C     C_R   0.591574 0.425382 0.787029 0.720886
C2    C     C_R   0.408445 0.925396 0.212955 0.723012
O7    O     O_R   0.750780 0.440350 0.929820 -0.542654
O8    O     O_R   0.249220 0.940350 0.070180 -0.545235
O9    O     O_R   0.751280 0.552900 0.100070 -0.549935
O10   O     O_R   0.248720 0.052900 0.899930 -0.550409
C3    C     C_R   0.773256 0.425399 0.757490 0.765450
C4    C     C_R   0.226793 0.925342 0.242533 0.775305
O11   O     O_R   0.613040 0.447100 0.622520 -0.533021
O12   O     O_R   0.386960 0.947100 0.377480 -0.530324
O13   O     O_3   0.682160 0.536920 0.777780 -0.388093
O14   O     O_3   0.317840 0.036920 0.222220 -0.389312
V1    V     V_3+5 0.682160 0.493150 0.052630 1.521758
V2    V     V_3+5 0.317840 0.993150 0.947370 1.516377
O15   O     O_R   0.750790 0.559840 0.429870 -0.544231
O16   O     O_R   0.249210 0.059840 0.570130 -0.545211
C5    C     C_R   0.773758 0.574239 0.257537 0.701732
C6    C     C_R   0.226224 0.074235 0.742449 0.699725
O17   O     O_R   0.613540 0.559650 0.452200 -0.542584
O18   O     O_R   0.386460 0.059650 0.547800 -0.543223
C7    C     C_R   0.591397 0.574248 0.287178 0.747704
C8    C     C_R   0.408594 0.074252 0.712826 0.746684
V3    V     V_3+5 0.682160 0.506850 0.552630 1.495793
V4    V     V_3+5 0.317840 0.006850 0.447370 1.508390
O19   O     O_3   0.682150 0.463080 0.277610 -0.351474
O20   O     O_3   0.317850 0.963080 0.722390 -0.347906
C9    C     C_R   0.577990 0.858713 0.145149 -0.160258
C10   C     C_R   0.421960 0.358790 0.853389 -0.160274
H1    H     H_    0.537245 0.945537 0.124418 0.136968
H2    H     H_    0.462686 0.445616 0.873906 0.136925
H3    H     H_    0.667738 0.773778 0.126233 0.128223
H4    H     H_    0.332183 0.273903 0.871981 0.128093
H5    H     H_    0.627470 0.873867 0.103634 0.125536
H6    H     H_    0.372437 0.373991 0.894202 0.125799
C11   C     C_R   0.462446 0.881812 0.210971 -0.037902
C12   C     C_R   0.537584 0.381797 0.788910 -0.036074
C13   C     C_R   0.470415 0.594431 0.344026 -0.028616
C14   C     C_R   0.529595 0.094381 0.656309 -0.029116
C15   C     C_R   0.417860 0.634383 0.362137 -0.140555
C16   C     C_R   0.582162 0.134309 0.638247 -0.139907
C17   C     C_R   0.427128 0.694267 0.327307 -0.172694
C18   C     C_R   0.572897 0.194206 0.672913 -0.162346
C19   C     C_R   0.490038 0.717305 0.272665 0.083113
C20   C     C_R   0.509980 0.217280 0.727352 0.083791
C21   C     C_R   0.544450 0.677067 0.253861 0.054677
C22   C     C_R   0.455544 0.177074 0.745913 0.053739
C23   C     C_R   0.500721 0.779043 0.237154 0.075461
C24   C     C_R   0.499304 0.279033 0.762718 0.075491
C25   C     C_R   0.565693 0.798816 0.183427 0.135157
C26   C     C_R   0.434284 0.298865 0.815628 0.133414
C27   C     C_R   0.618116 0.758786 0.166916 -0.192033
C28   C     C_R   0.381837 0.258867 0.831850 -0.190700
C29   C     C_R   0.607840 0.699087 0.201477 -0.186804
C30   C     C_R   0.392126 0.199145 0.797736 -0.186034
C31   C     C_R   0.449421 0.822063 0.251486 -0.211958
C32   C     C_R   0.550654 0.322009 0.749038 -0.190293
C33   C     C_R   0.526752 0.899689 0.157440 -0.131231
C34   C     C_R   0.473214 0.399739 0.841405 -0.132163
C35   C     C_R   0.534648 0.615651 0.290092 -0.163765
C36   C     C_R   0.465347 0.115641 0.709932 -0.163343
H7    H     H_    0.398804 0.810693 0.290208 0.129344
H8    H     H_    0.601341 0.310575 0.711410 0.121049
H9    H     H_    0.383614 0.721401 0.344816 0.140699
H10   H     H_    0.616407 0.221329 0.655297 0.137940
H11   H     H_    0.368367 0.619108 0.402611 0.171218
H12   H     H_    0.631661 0.119008 0.597917 0.170879
H13   H     H_    0.650382 0.670259 0.186157 0.102584
H14   H     H_    0.349565 0.170343 0.812844 0.102389
C37   C     C_R   0.173119 0.879839 0.260350 -0.154513
C38   C     C_R   0.826993 0.379975 0.739668 -0.167804
C39   C     C_R   0.169381 0.833195 0.123730 -0.191770
C40   C     C_R   0.830317 0.332915 0.874833 -0.186767
C41   C     C_R   0.117053 0.791253 0.141776 -0.099241
C42   C     C_R   0.882302 0.290694 0.856130 -0.098943
C43   C     C_R   0.068450 0.796289 0.296308 0.338427
C44   C     C_R   0.931274 0.296050 0.702705 0.338454
C45   C     C_R   0.074167 0.841058 0.432303 -0.212776
C46   C     C_R   0.926105 0.341339 0.568198 -0.214798
C47   C     C_R   0.125131 0.883113 0.415602 0.369367
C48   C     C_R   0.875319 0.383580 0.585473 0.365753
C49   C     C_R   0.910547 0.679937 0.387904 -0.136218
C50   C     C_R   0.089325 0.179812 0.611672 -0.136191
C51   C     C_R   0.858645 0.639097 0.404699 -0.204926
C52   C     C_R   0.141283 0.139010 0.595071 -0.205546
C53   C     C_R   0.933423 0.701171 0.204792 0.433065
C54   C     C_R   0.066378 0.201075 0.794687 0.434130
N1    N     N_2   0.014970 0.755637 0.326997 -0.259987
N2    N     N_2   0.984760 0.255401 0.672136 -0.259815
N3    N     N_2   0.986462 0.742513 0.177523 -0.288435
N4    N     N_2   0.013278 0.242391 0.821716 -0.287131
C55   C     C_R   0.828360 0.618266 0.239868 -0.043996
C56   C     C_R   0.171568 0.118239 0.760001 -0.043787
H15   H     H_    0.842540 0.623594 0.547196 0.133546
H16   H     H_    0.157430 0.123485 0.452632 0.133045
H17   H     H_    0.932527 0.694681 0.518228 0.142281
H18   H     H_    0.067358 0.194506 0.481263 0.141663
H19   H     H_    0.037505 0.843654 0.551724 0.136735
H20   H     H_    0.963074 0.344215 0.449659 0.136219
C57   C     C_R   0.851153 0.639721 0.057878 -0.205242
C58   C     C_R   0.148711 0.139721 0.941904 -0.205358
C59   C     C_R   0.902846 0.680697 0.041203 -0.175915
C60   C     C_R   0.096958 0.180666 0.958387 -0.176316
H21   H     H_    0.829045 0.624905 0.927772 0.132461
H22   H     H_    0.170815 0.124950 0.072074 0.132077
H23   H     H_    0.919484 0.696416 0.899365 0.128303
H24   H     H_    0.080276 0.196411 0.100157 0.127727
O21   O     O_3   0.128113 0.928445 0.548068 -0.629354
H25   H     H_    0.091540 0.924078 0.648000 0.292054
O22   O     O_3   0.872852 0.429426 0.454739 -0.628098
H26   H     H_    0.909618 0.425254 0.355320 0.294286
C61   C     C_2   0.116567 0.739114 0.012313 0.847824
O23   O     O_2   0.117224 0.745564 0.837275 -0.534339
O24   O     O_R   0.113589 0.682522 0.092094 -0.640496
H27   H     H_    0.112493 0.650556 0.990202 0.302341
C62   C     C_2   0.882179 0.238213 0.984477 0.842201
O25   O     O_2   0.877727 0.244149 0.159846 -0.539474
O26   O     O_R   0.888273 0.181889 0.903609 -0.639278
H28   H     H_    0.888344 0.149705 0.004985 0.302521
C63   C     C_2   0.223875 0.824916 0.974352 0.831655
O27   O     O_2   0.213038 0.828659 0.803145 -0.521119
O28   O     O_R   0.288063 0.814754 0.031006 -0.681303
H29   H     H_    0.321317 0.810941 0.917087 0.287904
C64   C     C_2   0.776233 0.324791 0.025213 0.831733
O29   O     O_2   0.721019 0.310991 0.978286 -0.581382
O30   O     O_R   0.788127 0.334544 0.219186 -0.622066
H30   H     H_    0.747234 0.328430 0.307775 0.297461
C65   C     C_2   0.455870 0.530921 0.383485 0.724450
O31   O     O_2   0.491381 0.492187 0.312181 -0.563699
O32   O     O_R   0.400133 0.515326 0.500303 -0.665082
H31   H     H_    0.395256 0.471087 0.516378 0.298760
C66   C     C_2   0.544138 0.030855 0.617047 0.724480
O33   O     O_2   0.508586 0.992151 0.688308 -0.564636
O34   O     O_R   0.599916 0.015213 0.500455 -0.664772
H32   H     H_    0.604780 0.970969 0.484466 0.298758

loop_
_geom_bond_atom_site_label_1
_geom_bond_atom_site_label_2
_ccdc_geom_bond_type
C9    C25   A    
C10   C26   A    
C14   C66   S    
C44   N2    S    
C49   C53   A    
C15   H11   S    
O13   V3    S    
C14   C36   A    
C11   C31   A    
C38   C48   A    
O4    C2    A    
V1    O19   S    
C22   C36   A    
O26   H28   S    
C17   C19   A    
C57   C59   A    
O9    V1    S    
C9    H5    S    
C45   H19   S    
C51   H15   S    
C6    C56   S    
C38   C40   A    
O16   C6    A    
C40   C64   S    
C46   C48   A    
C64   O29   D    
O3    C1    A    
C61   O24   S    
V2    O20   S    
C40   C42   A    
C27   C29   A    
C28   C30   A    
O22   H26   S    
C54   N4    S    
C21   C35   A    
C1    C12   S    
C30   H14   S    
C13   C65   S    
O7    C3    A    
N1    N3    D    
C17   H9    S    
C22   C30   A    
O5    C7    A    
C23   C31   A    
C54   C60   A    
O6    C8    A    
C50   C54   A    
C14   C16   A    
C19   C21   A    
C20   C22   A    
O3    V1    S    
O14   V4    S    
C12   C32   A    
C16   H12   S    
C9    C33   A    
C55   C57   A    
C18   C20   A    
C2    O12   A    
C49   H17   S    
C65   O32   S    
C15   C17   A    
C52   H16   S    
C43   C45   A    
O7    V1    S    
O11   V3    S    
C16   C18   A    
C42   C62   S    
C23   C25   A    
O15   C5    A    
O17   V3    S    
C24   C26   A    
C53   C59   A    
O32   H31   S    
C2    C11   S    
C42   C44   A    
O8    C4    A    
O8    V2    S    
C41   C43   A    
C1    O11   A    
C24   C32   A    
O15   V3    S    
C60   H24   S    
C51   C55   A    
C48   O22   S    
C8    C36   S    
C7    C35   S    
C43   N1    S    
C31   H7    S    
C3    C38   S    
C13   C35   A    
O10   V2    S    
C10   C34   A    
C39   C41   A    
H4    C28   S    
O24   H27   S    
N2    N4    D    
C13   C15   A    
C62   O25   D    
C45   C47   A    
C50   C52   A    
O18   V4    S    
C44   C46   A    
C25   C27   A    
C65   O31   D    
C46   H20   S    
C10   H6    S    
O1    C3    A    
C11   C33   A    
O28   H29   S    
C12   C34   A    
C39   C63   S    
C37   C47   A    
O21   H25   S    
C58   H22   S    
C57   H21   S    
O16   V4    S    
C5    C55   S    
C66   O34   S    
C59   H23   S    
C18   H10   S    
C50   H18   S    
O34   H32   S    
O5    V1    S    
O17   C7    A    
O6    V2    S    
C66   O33   D    
O10   C6    A    
O18   C8    A    
C56   C58   A    
C32   H8    S    
O2    V4    S    
C4    C37   S    
C47   O21   S    
C20   C24   A    
C61   O23   D    
V4    O20   S    
O1    V3    S    
C63   O27   D    
C58   C60   A    
C19   C23   A    
C41   C61   S    
O9    C5    A    
O13   V1    S    
C26   C28   A    
O14   V2    S    
C29   H13   S    
O2    C4    A    
C62   O26   S    
C53   N3    S    
O4    V2    S    
C21   C29   A    
V3    O19   S    
C37   C39   A    
C63   O28   S    
C49   C51   A    
H1    C33   S    
H2    C34   S    
O12   V4    S    
C52   C56   A    
H3    C27   S    
O30   H30   S    
C64   O30   S    
