data_mof_unit_38496.cif
_audit_creation_date              2012-12-11T14:30:16-0500
_audit_creation_method            fapswitch 2.2
_symmetry_space_group_name_H-M    P1
_symmetry_Int_Tables_number       1
_space_group_crystal_system       triclinic
_cell_length_a                    12.655041
_cell_length_b                    12.655184
_cell_length_c                    26.903505
_cell_angle_alpha                 90.000138
_cell_angle_beta                  90.000477
_cell_angle_gamma                 120.000821
_cell_volume                      3731.36662737

loop_
_atom_site_label
_atom_site_type_symbol
_atom_type_description
_atom_site_fract_x
_atom_site_fract_y
_atom_site_fract_z
_atom_type_partial_charge
C1    C     C_R   0.555222 0.457522 0.821510 0.545924
C2    C     C_R   0.457524 0.555221 0.178491 0.545848
C3    C     C_R   0.003357 0.312783 0.474233 -0.113743
C4    C     C_R   0.314539 0.999838 0.025830 -0.112072
C5    C     C_R   0.687281 0.690519 0.474213 -0.113737
C6    C     C_R   0.312771 0.003332 0.525768 -0.113724
C7    C     C_R   0.999907 0.314572 0.974162 -0.112074
C8    C     C_R   0.690652 0.687150 0.525742 -0.113710
C9    C     C_R   0.314653 0.000064 0.974159 -0.112076
C10   C     C_R   0.996618 0.309414 0.525762 -0.113832
C11   C     C_R   0.685439 0.685327 0.974165 -0.112073
C12   C     C_3   0.087647 0.802623 0.137943 0.010382
C13   C     C_R   0.442676 0.899289 0.321937 0.558319
C14   C     C_3   0.081173 0.858277 0.187288 -0.332640
C15   C     C_3   0.756739 0.071839 0.349373 -0.013441
C16   C     C_3   0.865862 0.065335 0.329509 -0.381283
C17   C     C_3   0.197352 0.285069 0.137933 0.010417
C18   C     C_3   0.141642 0.222918 0.187271 -0.332587
C19   C     C_3   0.928200 0.684814 0.349280 -0.013444
C20   C     C_3   0.934620 0.800441 0.329478 -0.381387
C21   C     C_3   0.714955 0.912319 0.137938 0.010392
C22   C     C_3   0.777085 0.918784 0.187283 -0.332604
C23   C     C_3   0.315263 0.243386 0.349213 -0.013475
C24   C     C_R   0.097697 0.542476 0.178491 0.545857
C25   C     C_3   0.199628 0.134068 0.329480 -0.381476
C26   C     C_3   0.684754 0.928145 0.650747 -0.013408
C27   C     C_3   0.800370 0.934524 0.670548 -0.381352
C28   C     C_3   0.912302 0.714935 0.862076 0.010385
C29   C     C_3   0.918726 0.777089 0.812743 -0.332643
C30   C     C_3   0.242996 0.315008 0.650401 -0.013521
C31   C     C_3   0.134198 0.199472 0.670498 -0.381034
C32   C     C_3   0.802647 0.087717 0.862078 0.010387
C33   C     C_3   0.858389 0.081296 0.812748 -0.332634
C34   C     C_3   0.071786 0.756596 0.650735 -0.013428
C35   C     C_R   0.997875 0.506145 0.973739 0.025309
C36   C     C_3   0.065374 0.865818 0.670528 -0.381357
C37   C     C_3   0.285082 0.197337 0.862089 0.010389
C38   C     C_3   0.222954 0.141602 0.812753 -0.332653
C39   C     C_R   0.506286 0.004704 0.526044 0.023548
C40   C     C_R   0.493868 0.491714 0.973742 0.025307
C41   C     C_R   0.995246 0.501555 0.526035 0.023569
C42   C     C_R   0.508269 0.002116 0.973737 0.025310
C43   C     C_R   0.498518 0.493622 0.526013 0.023582
C44   C     C_R   0.501540 0.995208 0.473970 0.023554
C45   C     C_R   0.899289 0.442674 0.678064 0.558255
C46   C     C_R   0.002185 0.508300 0.026256 0.025311
C47   C     C_R   0.493766 0.498372 0.473940 0.023559
C48   C     C_R   0.506114 0.997806 0.026254 0.025308
C49   C     C_R   0.004745 0.506305 0.473962 0.023557
C50   C     C_R   0.491712 0.493870 0.026259 0.025307
C51   C     C_R   0.002663 0.699726 0.974090 -0.133552
C52   C     C_R   0.699132 0.006021 0.525824 -0.133393
C53   C     C_R   0.300291 0.302904 0.974093 -0.133560
C54   C     C_R   0.993913 0.693074 0.525812 -0.133411
C55   C     C_R   0.697071 0.997339 0.974088 -0.133555
C56   C     C_R   0.542475 0.097695 0.821508 0.545852
C57   C     C_R   0.307026 0.300735 0.525786 -0.133603
C58   C     C_R   0.693040 0.993836 0.474199 -0.133461
C59   C     C_R   0.997450 0.697121 0.025905 -0.133545
C60   C     C_R   0.300926 0.306832 0.474162 -0.133338
C61   C     C_R   0.699679 0.002551 0.025903 -0.133547
C62   C     C_R   0.006094 0.699165 0.474186 -0.133415
C63   C     C_R   0.302900 0.300293 0.025907 -0.133550
C64   C     C_R   0.985632 0.594669 0.894340 0.249200
C65   C     C_R   0.613418 0.028531 0.604210 0.245831
C66   C     C_R   0.405342 0.390944 0.894343 0.249213
C67   C     C_R   0.557331 0.456609 0.678060 0.558492
C68   C     C_R   0.971427 0.584864 0.604201 0.245830
C69   C     C_R   0.609043 0.014372 0.894338 0.249203
C70   C     C_R   0.415197 0.386515 0.604182 0.245835
C71   C     C_R   0.584851 0.971390 0.395805 0.245835
C72   C     C_R   0.014404 0.609055 0.105656 0.249202
C73   C     C_R   0.386613 0.415077 0.395777 0.245825
C74   C     C_R   0.594653 0.985591 0.105654 0.249198
C75   C     C_R   0.028573 0.613436 0.395797 0.245840
C76   C     C_R   0.390948 0.405338 0.105658 0.249190
C77   C     C_R   0.033122 0.519956 0.129909 0.012405
C78   C     C_R   0.902304 0.444780 0.821509 0.545867
C79   C     C_R   0.479643 0.957099 0.371145 -0.012448
C80   C     C_R   0.480044 0.513163 0.129910 0.012385
C81   C     C_R   0.042881 0.522530 0.371139 -0.012466
C82   C     C_R   0.486832 0.966869 0.129907 0.012398
C83   C     C_R   0.477503 0.520315 0.371123 -0.012494
C84   C     C_R   0.522518 0.042859 0.628865 -0.012490
C85   C     C_R   0.966894 0.486842 0.870089 0.012388
C86   C     C_R   0.520398 0.477434 0.628841 -0.012323
C87   C     C_R   0.519948 0.033101 0.870086 0.012383
C88   C     C_R   0.957113 0.479646 0.628859 -0.012457
C89   C     C_R   0.543383 0.100706 0.678066 0.558245
C90   C     C_R   0.513164 0.480042 0.870091 0.012395
C91   C     C_R   0.997238 0.602141 0.947028 0.028121
C92   C     C_R   0.606336 0.011751 0.552283 0.028073
C93   C     C_R   0.397874 0.395076 0.947031 0.028115
C94   C     C_R   0.988197 0.594557 0.552274 0.028079
C95   C     C_R   0.604906 0.002761 0.947025 0.028121
C96   C     C_R   0.405520 0.393565 0.552251 0.027883
C97   C     C_R   0.594537 0.988147 0.447734 0.028013
C98   C     C_R   0.002832 0.604938 0.052968 0.028131
C99   C     C_R   0.393712 0.405368 0.447702 0.028097
C100  C     C_R   0.456622 0.557317 0.321931 0.558248
C101  C     C_R   0.602109 0.997165 0.052966 0.028130
C102  C     C_R   0.011803 0.606359 0.447724 0.028068
C103  C     C_R   0.395075 0.397874 0.052970 0.028126
C104  C     C_R   0.988607 0.404077 0.896509 -0.172402
C105  C     C_R   0.418072 0.023194 0.602825 -0.178181
C106  C     C_R   0.595929 0.584522 0.896512 -0.172416
C107  C     C_R   0.976762 0.394859 0.602817 -0.178233
C108  C     C_R   0.415463 0.011371 0.896505 -0.172411
C109  C     C_R   0.605197 0.581862 0.602798 -0.178215
C110  C     C_R   0.394862 0.976761 0.397185 -0.178183
C111  C     C_R   0.444778 0.902301 0.178490 0.545868
C112  C     C_R   0.011414 0.415482 0.103487 -0.172396
C113  C     C_R   0.581959 0.605087 0.397160 -0.178185
C114  C     C_R   0.404057 0.988565 0.103484 -0.172388
C115  C     C_R   0.023217 0.418087 0.397179 -0.178208
C116  C     C_R   0.584521 0.595934 0.103490 -0.172386
C117  C     C_R   0.997740 0.409165 0.947991 0.005695
C118  C     C_R   0.410983 0.008122 0.551733 0.003109
C119  C     C_R   0.590846 0.588564 0.947994 0.005694
C120  C     C_R   0.991828 0.402837 0.551726 0.003058
C121  C     C_R   0.411418 0.002241 0.947987 0.005697
C122  C     C_R   0.100710 0.543385 0.321935 0.558267
C123  C     C_R   0.597230 0.588935 0.551705 0.003117
C124  C     C_R   0.402831 0.991811 0.448277 0.003127
C125  C     C_R   0.002302 0.411446 0.052005 0.005696
C126  C     C_R   0.589063 0.597097 0.448250 0.003098
C127  C     C_R   0.409136 0.997679 0.052002 0.005699
C128  C     C_R   0.008153 0.410999 0.448270 0.003096
C129  C     C_R   0.588561 0.590850 0.052008 0.005701
C130  C     C_R   0.000135 0.314686 0.025833 -0.112069
C131  C     C_R   0.309409 0.996604 0.474239 -0.113694
C132  C     C_R   0.685323 0.685444 0.025837 -0.112064
Cr1   Cr    Cr6+3 0.487630 0.241180 0.750000 1.009530
Cr2   Cr    Cr6+3 0.753550 0.512370 0.750000 1.009400
Cr3   Cr    Cr6+3 0.758820 0.246450 0.750000 1.009407
Cr4   Cr    Cr6+3 0.241180 0.487630 0.250000 1.009400
Cr5   Cr    Cr6+3 0.512370 0.753550 0.250000 1.009441
Cr6   Cr    Cr6+3 0.246450 0.758820 0.250000 1.009400
H1    H     H_    0.991318 0.769668 0.043935 0.119413
H2    H     H_    0.769597 0.991166 0.956057 0.119446
H3    H     H_    0.988741 0.765763 0.544853 0.140530
H4    H     H_    0.221592 0.230376 0.956063 0.119435
H5    H     H_    0.009931 0.339757 0.122696 0.128214
H6    H     H_    0.315665 0.969668 0.378450 0.159082
H7    H     H_    0.660242 0.670184 0.122699 0.128212
H8    H     H_    0.030324 0.345991 0.378445 0.159041
H9    H     H_    0.329807 0.990037 0.122692 0.128209
H10   H     H_    0.654047 0.684302 0.378429 0.159075
H11   H     H_    0.345978 0.030309 0.621557 0.159084
H12   H     H_    0.765720 0.988645 0.455160 0.140514
H13   H     H_    0.990073 0.329826 0.877301 0.128218
H14   H     H_    0.684396 0.653967 0.621533 0.159102
H15   H     H_    0.339740 0.009890 0.877297 0.128228
H16   H     H_    0.969642 0.315650 0.621549 0.159004
H17   H     H_    0.670176 0.660243 0.877303 0.128220
H18   H     H_    0.000875 0.240118 0.045304 0.091372
H19   H     H_    0.232831 0.993269 0.454730 0.102054
H20   H     H_    0.759892 0.760757 0.045308 0.091368
H21   H     H_    0.006701 0.239545 0.454725 0.102071
H22   H     H_    0.239225 0.999092 0.045299 0.091357
H23   H     H_    0.230366 0.221593 0.043936 0.119444
H24   H     H_    0.760516 0.767105 0.454706 0.102042
H25   H     H_    0.239531 0.006674 0.545275 0.102016
H26   H     H_    0.999163 0.239261 0.954692 0.091366
H27   H     H_    0.767232 0.760394 0.545250 0.102059
H28   H     H_    0.240081 0.000801 0.954688 0.091361
H29   H     H_    0.993272 0.232830 0.545270 0.102041
H30   H     H_    0.760751 0.759894 0.954695 0.091359
H31   H     H_    0.086332 0.862899 0.108525 0.095462
H32   H     H_    0.175213 0.803254 0.135141 0.165325
H33   H     H_    0.076250 0.799586 0.218826 0.183485
H34   H     H_    0.011273 0.777029 0.455145 0.140533
H35   H     H_    0.163290 0.949756 0.191860 0.102161
H36   H     H_    0.998941 0.868315 0.188115 0.113117
H37   H     H_    0.791166 0.146732 0.377462 0.118777
H38   H     H_    0.713830 0.094166 0.318018 0.134973
H39   H     H_    0.835540 0.990772 0.301766 0.145568
H40   H     H_    0.931098 0.153164 0.311516 0.110075
H41   H     H_    0.912856 0.047785 0.360564 0.136880
H42   H     H_    0.137073 0.223511 0.108504 0.095429
H43   H     H_    0.196770 0.372029 0.135132 0.165334
H44   H     H_    0.200344 0.276635 0.218817 0.183485
H45   H     H_    0.778362 0.008689 0.043933 0.119424
H46   H     H_    0.050188 0.213624 0.191838 0.102234
H47   H     H_    0.131519 0.130613 0.188087 0.113063
H48   H     H_    0.853161 0.644119 0.377296 0.118778
H49   H     H_    0.906140 0.619758 0.317881 0.135064
H50   H     H_    0.009334 0.844918 0.301818 0.145605
H51   H     H_    0.846875 0.777819 0.311404 0.110075
H52   H     H_    0.951879 0.864781 0.360576 0.136874
H53   H     H_    0.776535 0.913620 0.108518 0.095450
H54   H     H_    0.628009 0.824764 0.135137 0.165327
H55   H     H_    0.723373 0.923820 0.218819 0.183479
H56   H     H_    0.223070 0.234135 0.455120 0.140575
H57   H     H_    0.786348 0.836612 0.191875 0.102218
H58   H     H_    0.869402 0.000956 0.188091 0.113044
H59   H     H_    0.356164 0.209154 0.377176 0.118771
H60   H     H_    0.380151 0.286407 0.317773 0.135149
H61   H     H_    0.154961 0.164187 0.301865 0.145587
H62   H     H_    0.222287 0.069005 0.311372 0.110109
H63   H     H_    0.135439 0.086960 0.360617 0.136940
H64   H     H_    0.644008 0.853077 0.622744 0.118767
H65   H     H_    0.619723 0.906146 0.682151 0.135080
H66   H     H_    0.844909 0.009283 0.698189 0.145580
H67   H     H_    0.776990 0.011187 0.544867 0.140570
H68   H     H_    0.777704 0.846789 0.688646 0.110083
H69   H     H_    0.864677 0.951694 0.639444 0.136893
H70   H     H_    0.913609 0.776490 0.891509 0.095453
H71   H     H_    0.824755 0.627981 0.864878 0.165324
H72   H     H_    0.923650 0.723354 0.781194 0.183486
H73   H     H_    0.836591 0.786427 0.808190 0.102203
H74   H     H_    0.000937 0.869370 0.811920 0.113110
H75   H     H_    0.208264 0.354747 0.622105 0.118825
H76   H     H_    0.285730 0.380829 0.681597 0.134743
H77   H     H_    0.164836 0.156035 0.698492 0.145517
H78   H     H_    0.008836 0.778424 0.956059 0.119440
H79   H     H_    0.068646 0.221986 0.688253 0.110120
H80   H     H_    0.087460 0.134269 0.639607 0.136831
H81   H     H_    0.862895 0.086419 0.891513 0.095450
H82   H     H_    0.803231 0.175260 0.864877 0.165328
H83   H     H_    0.799735 0.076369 0.781196 0.183480
H84   H     H_    0.949861 0.163435 0.808197 0.102231
H85   H     H_    0.868465 0.999090 0.811926 0.113110
H86   H     H_    0.146854 0.790930 0.622731 0.118761
H87   H     H_    0.093801 0.713585 0.682141 0.135082
H88   H     H_    0.990628 0.835591 0.698173 0.145616
H89   H     H_    0.234357 0.222853 0.544825 0.140402
H90   H     H_    0.153108 0.930932 0.688614 0.110152
H91   H     H_    0.048160 0.912905 0.639420 0.136779
H92   H     H_    0.223504 0.137088 0.891516 0.095469
H93   H     H_    0.372039 0.196751 0.864901 0.165287
H94   H     H_    0.276742 0.200241 0.781210 0.183550
H95   H     H_    0.213582 0.050114 0.808212 0.102189
H96   H     H_    0.130687 0.131570 0.811906 0.113103
O1    O     O_R   0.460870 0.120930 0.805240 -0.551048
O2    O     O_R   0.120930 0.460870 0.194760 -0.551026
O3    O     O_R   0.539130 0.660060 0.305240 -0.518331
O4    O     O_R   0.339940 0.879070 0.194760 -0.551015
O5    O     O_R   0.498910 0.350470 0.801870 -0.492715
O6    O     O_R   0.851560 0.501090 0.698130 -0.451031
O7    O     O_R   0.649530 0.148440 0.801870 -0.492736
O8    O     O_R   0.498910 0.350470 0.698130 -0.450784
O9    O     O_R   0.851560 0.501090 0.801870 -0.492744
O10   O     O_R   0.649530 0.148440 0.698130 -0.451022
O11   O     O_R   0.350470 0.498910 0.301870 -0.451040
O12   O     O_R   0.660060 0.539130 0.694760 -0.518426
O13   O     O_R   0.501090 0.851560 0.198130 -0.492754
O14   O     O_R   0.148440 0.649530 0.301870 -0.451012
O15   O     O_R   0.350470 0.498910 0.198130 -0.492758
O16   O     O_R   0.501090 0.851560 0.301870 -0.450944
O17   O     O_R   0.148440 0.649530 0.198130 -0.492766
O18   O     O_3   0.666667 0.333333 0.750000 -0.242305
O19   O     O_3   0.333333 0.666667 0.250000 -0.242258
O20   O     O_3   0.986160 0.683683 0.133867 -0.563527
O21   O     O_3   0.672512 0.958022 0.370381 -0.551138
O22   O     O_3   0.316282 0.302478 0.133871 -0.563526
O23   O     O_R   0.879070 0.339940 0.805240 -0.551015
O24   O     O_3   0.041946 0.714469 0.370378 -0.551192
O25   O     O_3   0.697524 0.013820 0.133865 -0.563527
O26   O     O_3   0.285574 0.327406 0.370358 -0.551200
O27   O     O_3   0.714446 0.041886 0.629631 -0.551196
O28   O     O_3   0.013817 0.697520 0.866127 -0.563534
O29   O     O_3   0.327531 0.285528 0.629621 -0.551061
O30   O     O_3   0.683717 0.986197 0.866125 -0.563527
O31   O     O_3   0.958051 0.672524 0.629620 -0.551206
O32   O     O_3   0.302492 0.316264 0.866131 -0.563502
O33   O     O_R   0.460870 0.120930 0.694760 -0.518352
O34   O     O_R   0.660060 0.539130 0.805240 -0.551029
O35   O     O_R   0.879070 0.339940 0.694760 -0.518361
O36   O     O_R   0.120930 0.460870 0.305240 -0.518357
O37   O     O_R   0.539130 0.660060 0.194760 -0.551032
O38   O     O_R   0.339940 0.879070 0.305240 -0.518367

loop_
_geom_bond_atom_site_label_1
_geom_bond_atom_site_label_2
_ccdc_geom_bond_type
C51   H78   S    
C65   C92   A    
C56   O7    A    
C13   C79   S    
C17   O22   S    
C1    C90   S    
C62   C102  A    
C106  C119  A    
C83   C113  A    
C34   O31   S    
C70   C96   A    
C19   C20   S    
Cr2   O18   S    
C40   C93   A    
C60   C99   A    
C11   C119  A    
C11   C132  A    
C38   H95   S    
C71   C79   A    
Cr5   O16   S    
Cr5   O37   S    
C73   O26   S    
C60   H56   S    
C29   H72   S    
C66   C90   A    
C26   O27   S    
Cr6   O38   S    
C74   O25   S    
C1    O5    A    
C45   O35   A    
C13   O16   A    
C71   C97   A    
C115  H8    S    
C26   C27   S    
C37   C38   S    
C15   H38   S    
C29   H74   S    
C24   O2    A    
C104  H13   S    
C28   C29   S    
C26   H64   S    
C114  H9    S    
C30   O29   S    
C14   H35   S    
C25   H63   S    
C5    H24   S    
C19   H48   S    
C20   H52   S    
C116  H7    S    
Cr5   O13   S    
C67   O12   A    
C64   O28   S    
C21   H53   S    
C30   H76   S    
C18   H44   S    
C15   C16   S    
Cr4   O2    S    
Cr3   O35   S    
C47   C99   A    
C32   O30   S    
C53   H4    S    
Cr1   O1    S    
C131  H19   S    
C7    C117  A    
C7    C130  A    
C100  O11   A    
C46   C125  A    
C51   C91   A    
C66   C93   A    
C125  C130  A    
C108  H15   S    
C80   C116  A    
C19   O24   S    
C16   H40   S    
C36   H91   S    
C57   C96   A    
C5    C126  A    
C75   C102  A    
C9    C121  A    
C22   H55   S    
C29   H73   S    
C18   H46   S    
Cr6   O19   S    
Cr3   O18   S    
C34   C36   S    
C69   C87   A    
C16   H41   S    
C129  C132  A    
C19   H49   S    
C33   H84   S    
C76   C103  A    
C46   C98   A    
C50   C103  A    
C36   H90   S    
C21   C22   S    
C3    H21   S    
C22   H58   S    
C70   O29   S    
C58   C97   A    
C74   C82   A    
C76   O22   S    
C39   C92   A    
C41   C49   A    
C67   O8    A    
C34   H86   S    
Cr1   O33   S    
C69   O30   S    
Cr6   O14   S    
Cr2   O34   S    
C37   H92   S    
Cr2   O12   S    
C10   C120  A    
C61   H45   S    
C111  O4    A    
Cr3   O23   S    
C87   C108  A    
C12   H31   S    
C53   C93   A    
C52   H67   S    
C107  H16   S    
Cr4   O19   S    
C109  H14   S    
C12   O20   S    
C82   C114  A    
C55   C95   A    
Cr6   O17   S    
C13   O38   A    
C113  H10   S    
C49   C102  A    
C88   C107  A    
C3    C128  A    
C75   C81   A    
C21   H54   S    
C38   H94   S    
C113  C126  A    
C54   C62   A    
C69   C95   A    
C28   H71   S    
C44   C124  A    
C54   H3    S    
C68   C94   A    
C55   H2    S    
C27   H66   S    
C124  C131  A    
C89   O33   A    
Cr3   O10   S    
C10   H29   S    
C77   C112  A    
C61   C101  A    
C72   C77   A    
C25   H61   S    
C50   C129  A    
Cr1   O8    S    
C20   H50   S    
C44   C97   A    
C82   C111  S    
C41   C94   A    
C23   H60   S    
C75   O24   S    
C59   H1    S    
C71   O21   S    
C81   C115  A    
C43   C96   A    
C112  C125  A    
C89   O10   A    
C100  O3    A    
C56   O1    A    
C42   C48   A    
C110  H6    S    
C115  C128  A    
Cr1   O18   S    
C2    O37   A    
C68   O31   S    
C32   H82   S    
C85   C104  A    
C52   C58   A    
C108  C121  A    
C45   C88   S    
C33   H85   S    
C78   C85   S    
C72   C98   A    
C12   C14   S    
C23   O26   S    
C83   C100  S    
C74   C101  A    
C11   H30   S    
C68   C88   A    
C42   C95   A    
Cr4   O36   S    
Cr4   O15   S    
C35   C117  A    
C51   C59   A    
C84   C89   S    
C63   C103  A    
C70   C86   A    
C43   C123  A    
C64   C85   A    
C20   H51   S    
C62   H34   S    
C16   H39   S    
C112  H5    S    
C47   C126  A    
C122  O14   A    
C104  C117  A    
C7    H26   S    
C73   C99   A    
C49   C128  A    
C9    H28   S    
C67   C86   S    
C36   H88   S    
C22   H57   S    
C79   C110  A    
C65   C84   A    
Cr2   O6    S    
C24   O17   A    
C65   O27   S    
C86   C109  A    
C76   C80   A    
C72   O20   S    
C14   H33   S    
C56   C87   S    
C66   O32   S    
C38   H96   S    
C5    C8    A    
C12   H32   S    
C8    C123  A    
C39   C44   A    
C116  C129  A    
C17   H42   S    
C39   C118  A    
C105  H11   S    
C34   H87   S    
C23   H59   S    
C18   H47   S    
C78   O9    A    
C6    C131  A    
C17   C18   S    
C15   H37   S    
C81   C122  S    
C2    O15   A    
C27   H68   S    
C37   H93   S    
Cr3   O7    S    
C26   H65   S    
C45   O6    A    
C15   O21   S    
C14   H36   S    
C25   H62   S    
C63   H23   S    
C28   O28   S    
C30   H75   S    
C4    H22   S    
C114  C127  A    
C53   C63   A    
C107  C120  A    
C109  C123  A    
C30   C31   S    
C1    O34   A    
C31   H79   S    
C40   C50   A    
C84   C105  A    
C55   C61   A    
C31   H80   S    
C78   O23   A    
C6    C118  A    
Cr4   O11   S    
Cr6   O4    S    
C27   H69   S    
C37   O32   S    
C23   C25   S    
C41   C120  A    
Cr5   O3    S    
C32   C33   S    
C105  C118  A    
C132  H20   S    
Cr2   O9    S    
C54   C94   A    
C32   H81   S    
C2    C80   S    
C8    H27   S    
C122  O36   A    
C48   C101  A    
C57   H89   S    
C17   H43   S    
C24   C77   S    
C57   C60   A    
C40   C119  A    
C31   H77   S    
C6    H25   S    
C28   H70   S    
C111  O13   A    
C106  H17   S    
C90   C106  A    
C3    C10   A    
C59   C98   A    
C21   O25   S    
C130  H18   S    
Cr1   O5    S    
C64   C91   A    
C110  C124  A    
C4    C9    A    
C35   C46   A    
C43   C47   A    
C73   C83   A    
C4    C127  A    
C52   C92   A    
Cr5   O19   S    
C58   H12   S    
C42   C121  A    
C33   H83   S    
C48   C127  A    
C35   C91   A    
