data_mof_unit_23371.cif
_audit_creation_date              2012-12-10T21:23:29-0500
_audit_creation_method            fapswitch 2.2
_symmetry_space_group_name_H-M    P1
_symmetry_Int_Tables_number       1
_space_group_crystal_system       triclinic
_cell_length_a                    25.598092
_cell_length_b                    24.163677
_cell_length_c                    16.908787
_cell_angle_alpha                 89.997761
_cell_angle_beta                  90.009001
_cell_angle_gamma                 90.00023
_cell_volume                      10458.8290639

loop_
_atom_site_label
_atom_site_type_symbol
_atom_type_description
_atom_site_fract_x
_atom_site_fract_y
_atom_site_fract_z
_atom_type_partial_charge
C1    C     C_R   0.073279 0.426869 0.499911 0.881269
C2    C     C_R   0.000663 0.549218 0.250008 0.224187
C3    C     C_3   0.257609 0.636414 0.231823 -0.880340
C4    C     C_3   0.834957 0.728379 0.360835 -0.405131
C5    C     C_3   0.873800 0.720522 0.292380 -0.370877
C6    C     C_3   0.862838 0.761249 0.225415 -0.880781
C7    C     C_3   0.225916 0.335478 0.633130 -0.410409
C8    C     C_3   0.217863 0.375129 0.703097 -0.368115
C9    C     C_3   0.257572 0.363971 0.768539 -0.880328
C10   C     C_3   0.166260 0.272616 0.360514 -0.405183
C11   C     C_3   0.127476 0.280353 0.291936 -0.370884
C12   C     C_3   0.138832 0.239891 0.224803 -0.880709
C13   C     C_R   0.999354 0.549219 0.749987 0.224196
C14   C     C_3   0.774556 0.665410 0.633003 -0.410519
C15   C     C_3   0.782237 0.625539 0.702818 -0.368059
C16   C     C_3   0.742534 0.636879 0.768184 -0.880357
C17   C     C_3   0.666852 0.226937 0.639642 -0.405214
C18   C     C_3   0.628110 0.219263 0.708271 -0.370865
C19   C     C_3   0.639658 0.259615 0.775470 -0.880683
C20   C     C_3   0.273655 0.836344 0.366781 -0.410303
C21   C     C_3   0.282072 0.875791 0.296671 -0.368159
C22   C     C_3   0.242376 0.864806 0.231153 -0.880296
C23   C     C_3   0.332543 0.773568 0.639829 -0.405253
C24   C     C_R   0.999345 0.450778 0.250020 0.224114
C25   C     C_3   0.371261 0.781179 0.708522 -0.370858
C26   C     C_3   0.359519 0.740962 0.775810 -0.880632
C27   C     C_3   0.726128 0.164064 0.366868 -0.410360
C28   C     C_3   0.717907 0.124485 0.296859 -0.368121
C29   C     C_3   0.757613 0.135540 0.231396 -0.880313
C30   C     C_3   0.333315 0.227071 0.360379 -0.405215
C31   C     C_3   0.372055 0.219366 0.291756 -0.370864
C32   C     C_3   0.360557 0.259748 0.224570 -0.880692
C33   C     C_3   0.726432 0.836553 0.633315 -0.410318
C34   C     C_3   0.717871 0.875893 0.703502 -0.368181
C35   C     C_R   0.500627 0.950778 0.749984 0.223980
C36   C     C_3   0.757542 0.864932 0.769064 -0.880303
C37   C     C_3   0.668021 0.774079 0.359895 -0.405340
C38   C     C_3   0.629403 0.781736 0.291082 -0.370836
C39   C     C_3   0.641374 0.741720 0.223647 -0.880622
C40   C     C_3   0.273964 0.164224 0.633135 -0.410380
C41   C     C_3   0.282133 0.124618 0.703131 -0.368115
C42   C     C_3   0.242435 0.135709 0.768591 -0.880317
C43   C     C_3   0.002267 0.394326 0.711510 -0.403959
C44   C     C_3   0.053643 0.364153 0.729665 -0.365428
C45   C     C_3   0.057689 0.309887 0.683817 -0.878472
C46   C     C_R   0.500641 0.049219 0.250011 0.224044
C47   C     C_3   0.002279 0.605671 0.288477 -0.404078
C48   C     C_3   0.053664 0.635839 0.270385 -0.365314
C49   C     C_3   0.057658 0.690148 0.316141 -0.878468
C50   C     C_3   0.997762 0.605673 0.711511 -0.404047
C51   C     C_3   0.946406 0.635884 0.729639 -0.365447
C52   C     C_3   0.942443 0.690203 0.683895 -0.878460
C53   C     C_3   0.997727 0.394325 0.288501 -0.403941
C54   C     C_3   0.946349 0.364152 0.270359 -0.365428
C55   C     C_3   0.942314 0.309878 0.316194 -0.878417
C56   C     C_3   0.502245 0.894326 0.711504 -0.403810
C57   C     C_R   0.499367 0.049220 0.749983 0.224050
C58   C     C_3   0.553613 0.864147 0.729697 -0.365493
C59   C     C_3   0.557752 0.809968 0.683659 -0.878481
C60   C     C_3   0.502255 0.105672 0.288486 -0.403921
C61   C     C_3   0.553634 0.135843 0.270364 -0.365376
C62   C     C_3   0.557709 0.190078 0.316282 -0.878418
C63   C     C_3   0.497762 0.105673 0.711502 -0.403907
C64   C     C_3   0.446393 0.135859 0.729635 -0.365418
C65   C     C_3   0.442330 0.190100 0.683723 -0.878403
C66   C     C_3   0.497741 0.894325 0.288510 -0.403786
C67   C     C_3   0.446357 0.864164 0.270355 -0.365445
C68   C     C_R   0.499364 0.950777 0.250023 0.223949
C69   C     C_3   0.442239 0.809960 0.316340 -0.878332
C70   C     C_R   0.999998 0.499994 0.876625 0.096715
C71   C     C_R   0.000006 0.499994 0.123375 0.096725
C72   C     C_R   0.499996 0.999996 0.876624 0.096745
C73   C     C_R   0.926743 0.573156 0.499900 0.881336
C74   C     C_R   0.500004 0.999994 0.123377 0.096757
C75   C     C_1   0.000001 0.499992 0.963753 -0.038304
C76   C     C_1   0.000004 0.499992 0.036247 -0.038303
C77   C     C_1   0.499999 0.999994 0.963753 -0.038336
C78   C     C_1   0.500001 0.999993 0.036248 -0.038338
C79   C     C_R   0.158548 0.689360 0.568529 0.116373
C80   C     C_R   0.811684 0.342084 0.436496 0.114259
C81   C     C_R   0.840994 0.311066 0.568662 0.116381
C82   C     C_R   0.188090 0.658247 0.436545 0.114317
C83   C     C_R   0.841712 0.689582 0.431475 0.116351
C84   C     C_R   0.926724 0.426865 0.500091 0.881291
C85   C     C_R   0.188388 0.342190 0.563513 0.114239
C86   C     C_R   0.159150 0.311203 0.431300 0.116388
C87   C     C_R   0.812112 0.658545 0.563469 0.114389
C88   C     C_R   0.659569 0.188432 0.568802 0.116423
C89   C     C_R   0.311139 0.842907 0.436481 0.114090
C90   C     C_R   0.340005 0.811960 0.568905 0.116429
C91   C     C_R   0.688622 0.157439 0.436513 0.114154
C92   C     C_R   0.340555 0.188544 0.431210 0.116413
C93   C     C_R   0.689004 0.843121 0.563543 0.114053
C94   C     C_R   0.660364 0.812314 0.430944 0.116432
C95   C     C_R   0.073264 0.573147 0.500098 0.881306
C96   C     C_R   0.311465 0.157565 0.563491 0.114181
C97   C     C_R   0.119331 0.649309 0.566095 -0.226380
C98   C     C_R   0.851067 0.382073 0.437049 -0.210090
C99   C     C_R   0.880366 0.350946 0.566187 -0.226302
C100  C     C_R   0.148853 0.618097 0.437133 -0.210061
C101  C     C_R   0.880827 0.649419 0.433896 -0.226368
C102  C     C_R   0.148957 0.382127 0.562973 -0.210074
C103  C     C_R   0.119730 0.351027 0.433788 -0.226288
C104  C     C_R   0.851247 0.618282 0.562868 -0.210116
C105  C     C_R   0.620008 0.148762 0.566287 -0.226303
C106  C     C_R   0.573311 0.926900 0.499910 0.881207
C107  C     C_R   0.350849 0.882530 0.436964 -0.209973
C108  C     C_R   0.379716 0.851461 0.566354 -0.226231
C109  C     C_R   0.649058 0.117654 0.437027 -0.209944
C110  C     C_R   0.380068 0.148821 0.433716 -0.226308
C111  C     C_R   0.649191 0.882626 0.563092 -0.209947
C112  C     C_R   0.620536 0.851681 0.433535 -0.226151
C113  C     C_R   0.350983 0.117728 0.562968 -0.209981
C114  C     C_R   0.114463 0.614245 0.500899 -0.108263
C115  C     C_R   0.885421 0.385883 0.500883 -0.108347
C116  C     C_R   0.885615 0.614335 0.499090 -0.108309
C117  C     C_R   0.426711 0.073120 0.499901 0.881306
C118  C     C_R   0.114615 0.385923 0.499122 -0.108361
C119  C     C_R   0.614733 0.113944 0.500896 -0.108365
C120  C     C_R   0.385156 0.886177 0.500881 -0.108426
C121  C     C_R   0.385302 0.113984 0.499098 -0.108377
C122  C     C_R   0.614931 0.886269 0.499114 -0.108502
C123  C     C_R   0.192474 0.693424 0.502970 0.060150
C124  C     C_R   0.807114 0.307033 0.503028 0.060175
C125  C     C_R   0.807808 0.693740 0.497045 0.060147
C126  C     C_R   0.193017 0.307179 0.496952 0.060181
C127  C     C_R   0.693406 0.192383 0.503119 0.060197
C128  C     C_R   0.426698 0.926893 0.500091 0.881253
C129  C     C_R   0.306189 0.808067 0.503170 0.060210
C130  C     C_R   0.306722 0.192527 0.496893 0.060194
C131  C     C_R   0.694114 0.808403 0.496756 0.060230
C132  C     C_1   0.232425 0.733978 0.503897 -0.097399
C133  C     C_1   0.767090 0.266560 0.503919 -0.097404
C134  C     C_1   0.767916 0.734359 0.496089 -0.097391
C135  C     C_1   0.233064 0.266732 0.496072 -0.097403
C136  C     C_1   0.733518 0.232759 0.503951 -0.097402
C137  C     C_1   0.265999 0.767777 0.503968 -0.097407
C138  C     C_1   0.266635 0.232931 0.496050 -0.097401
C139  C     C_R   0.573292 0.073117 0.500097 0.881309
C140  C     C_1   0.734349 0.768164 0.495986 -0.097396
C141  C     C_R   0.999432 0.450838 0.833916 -0.279087
C142  C     C_R   0.999454 0.549153 0.166077 -0.279092
C143  C     C_R   0.000566 0.549153 0.833918 -0.279081
C144  C     C_R   0.000558 0.450837 0.166089 -0.279101
C145  C     C_R   0.499412 0.950838 0.833915 -0.279082
C146  C     C_R   0.499432 0.049154 0.166080 -0.279097
C147  C     C_R   0.500579 0.049155 0.833915 -0.279101
C148  C     C_R   0.500577 0.950837 0.166092 -0.279117
C149  C     C_3   0.165385 0.728139 0.639166 -0.405097
C150  C     C_R   0.000647 0.450778 0.749985 0.224122
C151  C     C_3   0.126525 0.720372 0.707621 -0.370884
C152  C     C_3   0.137578 0.761065 0.774590 -0.880756
C153  C     C_3   0.774144 0.335359 0.366897 -0.410413
C154  C     C_3   0.782136 0.375050 0.296956 -0.368109
C155  C     C_3   0.742424 0.363871 0.231528 -0.880325
C156  C     C_3   0.833950 0.272432 0.639416 -0.405161
C157  C     C_3   0.872753 0.280176 0.707967 -0.370885
C158  C     C_3   0.861469 0.239658 0.775064 -0.880710
C159  C     C_3   0.225670 0.665010 0.367020 -0.410456
C160  C     C_3   0.217880 0.625178 0.297191 -0.368067
H1    H     H_    0.091935 0.645137 0.614235 0.145137
H2    H     H_    0.355262 0.911276 0.388569 0.150890
H3    H     H_    0.292377 0.779970 0.663170 0.202250
H4    H     H_    0.335473 0.730098 0.618664 0.205869
H5    H     H_    0.753610 0.178604 0.209168 0.258687
H6    H     H_    0.797971 0.129214 0.253807 0.261161
H7    H     H_    0.750729 0.106544 0.181527 0.250528
H8    H     H_    0.722459 0.080932 0.316890 0.224180
H9    H     H_    0.678153 0.130375 0.271969 0.222382
H10   H     H_    0.722425 0.207137 0.344421 0.200952
H11   H     H_    0.766669 0.158451 0.389144 0.207439
H12   H     H_    0.320536 0.252871 0.201114 0.260070
H13   H     H_    0.407038 0.855485 0.614636 0.145264
H14   H     H_    0.364044 0.303111 0.245743 0.261401
H15   H     H_    0.389036 0.253240 0.175918 0.248924
H16   H     H_    0.412582 0.226828 0.312908 0.220937
H17   H     H_    0.369063 0.176531 0.268171 0.222979
H18   H     H_    0.293141 0.220898 0.336926 0.202269
H19   H     H_    0.336417 0.270495 0.381677 0.205847
H20   H     H_    0.753766 0.821783 0.791042 0.258678
H21   H     H_    0.797895 0.871591 0.746851 0.261161
H22   H     H_    0.750407 0.893747 0.819063 0.250531
H23   H     H_    0.722191 0.919528 0.683723 0.224187
H24   H     H_    0.644767 0.088836 0.388694 0.150781
H25   H     H_    0.678116 0.869668 0.728204 0.222412
H26   H     H_    0.722938 0.793400 0.655519 0.201034
H27   H     H_    0.766976 0.842483 0.611241 0.207407
H28   H     H_    0.681403 0.749025 0.200501 0.260042
H29   H     H_    0.638159 0.698245 0.244450 0.261406
H30   H     H_    0.612974 0.748183 0.174865 0.248903
H31   H     H_    0.588878 0.773854 0.311912 0.220838
H32   H     H_    0.632136 0.824688 0.267859 0.223075
H33   H     H_    0.708211 0.780627 0.336731 0.202279
H34   H     H_    0.665152 0.730560 0.380874 0.205859
H35   H     H_    0.407402 0.144725 0.385478 0.145231
H36   H     H_    0.246485 0.178763 0.790834 0.258687
H37   H     H_    0.202072 0.129440 0.746170 0.261160
H38   H     H_    0.249282 0.106693 0.818451 0.250531
H39   H     H_    0.277534 0.081076 0.683084 0.224178
H40   H     H_    0.321892 0.130452 0.728031 0.222385
H41   H     H_    0.277718 0.207287 0.655597 0.200940
H42   H     H_    0.233417 0.158670 0.610854 0.207447
H43   H     H_    0.025591 0.281484 0.701332 0.255095
H44   H     H_    0.055386 0.317653 0.619178 0.266070
H45   H     H_    0.095685 0.289705 0.696989 0.254262
H46   H     H_    0.644662 0.911285 0.611562 0.151021
H47   H     H_    0.086944 0.391212 0.713596 0.225751
H48   H     H_    0.056489 0.354774 0.793830 0.215388
H49   H     H_    0.968922 0.369272 0.733752 0.163419
H50   H     H_    0.997873 0.396415 0.647540 0.260795
H51   H     H_    0.025585 0.718538 0.298464 0.255020
H52   H     H_    0.055273 0.682445 0.380788 0.266114
H53   H     H_    0.095672 0.710315 0.303055 0.254319
H54   H     H_    0.086956 0.608801 0.286585 0.225841
H55   H     H_    0.056562 0.645161 0.206210 0.215382
H56   H     H_    0.968946 0.630726 0.266185 0.163457
H57   H     H_    0.593256 0.855703 0.385196 0.145332
H58   H     H_    0.997862 0.603584 0.352442 0.260708
H59   H     H_    0.974542 0.718563 0.701562 0.255031
H60   H     H_    0.944809 0.682508 0.619246 0.266145
H61   H     H_    0.904448 0.710400 0.697004 0.254323
H62   H     H_    0.913091 0.608875 0.713452 0.225831
H63   H     H_    0.943529 0.645200 0.793817 0.215408
H64   H     H_    0.031122 0.630703 0.733770 0.163493
H65   H     H_    0.002148 0.603584 0.647543 0.260743
H66   H     H_    0.974410 0.281479 0.298655 0.255093
H67   H     H_    0.944632 0.317632 0.380834 0.266083
H68   H     H_    0.355244 0.088899 0.611297 0.150771
H69   H     H_    0.904316 0.289697 0.303036 0.254258
H70   H     H_    0.913051 0.391207 0.286450 0.225772
H71   H     H_    0.943492 0.354785 0.206193 0.215380
H72   H     H_    0.031070 0.369271 0.266255 0.163422
H73   H     H_    0.002128 0.396412 0.352471 0.260795
H74   H     H_    0.525617 0.781532 0.700913 0.255204
H75   H     H_    0.555583 0.817860 0.619040 0.265956
H76   H     H_    0.595722 0.789762 0.696929 0.254166
H77   H     H_    0.586924 0.891250 0.713830 0.225602
H78   H     H_    0.556376 0.854655 0.793837 0.215368
H79   H     H_    0.998508 0.412049 0.866104 0.143891
H80   H     H_    0.468888 0.869274 0.733713 0.163332
H81   H     H_    0.497867 0.896419 0.647532 0.260924
H82   H     H_    0.525600 0.218494 0.298835 0.255128
H83   H     H_    0.555445 0.182267 0.380912 0.266015
H84   H     H_    0.595698 0.210268 0.303104 0.254220
H85   H     H_    0.586935 0.108767 0.286394 0.225724
H86   H     H_    0.556463 0.145260 0.206209 0.215358
H87   H     H_    0.468911 0.130727 0.266223 0.163384
H88   H     H_    0.497851 0.103583 0.352453 0.260837
H89   H     H_    0.474447 0.218504 0.701168 0.255131
H90   H     H_    0.998541 0.587941 0.133883 0.143904
H91   H     H_    0.444589 0.182294 0.619091 0.266030
H92   H     H_    0.404347 0.210299 0.696906 0.254221
H93   H     H_    0.413084 0.108794 0.713608 0.225729
H94   H     H_    0.443570 0.145271 0.793791 0.215367
H95   H     H_    0.531115 0.130719 0.733750 0.163394
H96   H     H_    0.502154 0.103584 0.647534 0.260851
H97   H     H_    0.474358 0.781528 0.299007 0.255203
H98   H     H_    0.444452 0.817813 0.380964 0.265987
H99   H     H_    0.404257 0.789768 0.303105 0.254153
H100  H     H_    0.413059 0.891263 0.286299 0.225678
H101  H     H_    0.001497 0.587939 0.866108 0.143901
H102  H     H_    0.443553 0.854711 0.206209 0.215347
H103  H     H_    0.531085 0.869262 0.266281 0.163332
H104  H     H_    0.502140 0.896412 0.352480 0.260917
H105  H     H_    0.855197 0.410966 0.388774 0.150652
H106  H     H_    0.001474 0.412049 0.133905 0.143892
H107  H     H_    0.498478 0.912050 0.866103 0.143865
H108  H     H_    0.498506 0.087941 0.133887 0.143880
H109  H     H_    0.501514 0.087942 0.866103 0.143882
H110  H     H_    0.501503 0.912048 0.133909 0.143873
H111  H     H_    0.177587 0.754576 0.798319 0.260092
H112  H     H_    0.133845 0.804328 0.753096 0.261398
H113  H     H_    0.109023 0.754497 0.823124 0.248940
H114  H     H_    0.086003 0.727454 0.686184 0.221036
H115  H     H_    0.129750 0.677642 0.731522 0.222891
H116  H     H_    0.907730 0.355087 0.614388 0.145193
H117  H     H_    0.205539 0.722313 0.662879 0.202272
H118  H     H_    0.162069 0.771478 0.617582 0.205832
H119  H     H_    0.746593 0.320851 0.209206 0.258689
H120  H     H_    0.702058 0.369977 0.254009 0.261161
H121  H     H_    0.749140 0.392952 0.181708 0.250530
H122  H     H_    0.777415 0.418560 0.317081 0.224147
H123  H     H_    0.821894 0.369378 0.271997 0.222410
H124  H     H_    0.778006 0.292327 0.344357 0.200904
H125  H     H_    0.733599 0.340760 0.389246 0.207456
H126  H     H_    0.821456 0.246358 0.798636 0.260079
H127  H     H_    0.144860 0.589116 0.388939 0.150515
H128  H     H_    0.865069 0.196339 0.753757 0.261400
H129  H     H_    0.889989 0.246201 0.823665 0.248930
H130  H     H_    0.913275 0.272889 0.686694 0.220980
H131  H     H_    0.869653 0.322966 0.731685 0.222942
H132  H     H_    0.793787 0.278447 0.662978 0.202272
H133  H     H_    0.837150 0.229044 0.618001 0.205843
H134  H     H_    0.253303 0.679382 0.209346 0.258695
H135  H     H_    0.297977 0.630509 0.254425 0.261160
H136  H     H_    0.251043 0.607226 0.182085 0.250530
H137  H     H_    0.222741 0.581719 0.317473 0.224151
H138  H     H_    0.908204 0.645177 0.385748 0.145153
H139  H     H_    0.178124 0.630649 0.272115 0.222389
H140  H     H_    0.221677 0.707992 0.344328 0.200857
H141  H     H_    0.266213 0.659802 0.389487 0.207479
H142  H     H_    0.822815 0.754863 0.201685 0.260087
H143  H     H_    0.866668 0.804501 0.246913 0.261392
H144  H     H_    0.891378 0.754615 0.176880 0.248947
H145  H     H_    0.914337 0.727500 0.313819 0.221045
H146  H     H_    0.870479 0.677802 0.268473 0.222885
H147  H     H_    0.794790 0.722648 0.337123 0.202300
H148  H     H_    0.838365 0.771710 0.382416 0.205820
H149  H     H_    0.144784 0.410992 0.611269 0.150696
H150  H     H_    0.253446 0.320935 0.790824 0.258688
H151  H     H_    0.297937 0.370138 0.746084 0.261161
H152  H     H_    0.250812 0.393021 0.818378 0.250532
H153  H     H_    0.222542 0.418653 0.683009 0.224154
H154  H     H_    0.178106 0.369395 0.728030 0.222412
H155  H     H_    0.222092 0.292432 0.655634 0.200920
H156  H     H_    0.266461 0.340936 0.610810 0.207451
H157  H     H_    0.178847 0.246656 0.201275 0.260076
H158  H     H_    0.135273 0.196554 0.246058 0.261400
H159  H     H_    0.110324 0.246427 0.176184 0.248929
H160  H     H_    0.092375 0.355158 0.385572 0.145212
H161  H     H_    0.086953 0.273001 0.313163 0.220970
H162  H     H_    0.130536 0.323162 0.268271 0.222956
H163  H     H_    0.206426 0.278690 0.336992 0.202272
H164  H     H_    0.163096 0.229212 0.381881 0.205845
H165  H     H_    0.746950 0.679830 0.790673 0.258692
H166  H     H_    0.702152 0.631094 0.745576 0.261160
H167  H     H_    0.749023 0.607663 0.817916 0.250536
H168  H     H_    0.777264 0.582100 0.682521 0.224154
H169  H     H_    0.822005 0.630889 0.727902 0.222403
H170  H     H_    0.778670 0.708374 0.655705 0.200837
H171  H     H_    0.855179 0.589293 0.611066 0.150506
H172  H     H_    0.733996 0.660332 0.610541 0.207504
H173  H     H_    0.679674 0.252684 0.798915 0.260070
H174  H     H_    0.636216 0.302987 0.754313 0.261403
H175  H     H_    0.611177 0.253130 0.824125 0.248921
H176  H     H_    0.587590 0.226779 0.687131 0.220931
H177  H     H_    0.631059 0.176419 0.731839 0.222986
H178  H     H_    0.707023 0.220715 0.663086 0.202263
H179  H     H_    0.663792 0.270370 0.618357 0.205851
H180  H     H_    0.246237 0.821694 0.209063 0.258682
H181  H     H_    0.202025 0.871329 0.253456 0.261165
H182  H     H_    0.592670 0.144691 0.614525 0.145230
H183  H     H_    0.249403 0.893702 0.181212 0.250527
H184  H     H_    0.277665 0.919390 0.316561 0.224171
H185  H     H_    0.321823 0.869701 0.271886 0.222402
H186  H     H_    0.277211 0.793226 0.344464 0.201000
H187  H     H_    0.233121 0.842157 0.388961 0.207405
H188  H     H_    0.319513 0.748088 0.799154 0.260062
H189  H     H_    0.362817 0.697549 0.754782 0.261404
H190  H     H_    0.387990 0.747395 0.824506 0.248911
H191  H     H_    0.411770 0.773473 0.687492 0.220887
H192  H     H_    0.368449 0.824066 0.731963 0.223016
N1    N     N_R   1.000000 0.500000 0.707230 -0.119330
N2    N     N_R   0.000000 0.500000 0.292770 -0.119325
N3    N     N_R   0.500000 0.000000 0.707230 -0.119337
N4    N     N_R   0.500000 0.000000 0.292770 -0.119330
O1    O     O_R   0.055440 0.444550 0.566570 -0.626240
O2    O     O_R   0.444560 0.055450 0.433430 -0.640726
O3    O     O_R   0.444560 0.055450 0.566570 -0.626232
O4    O     O_R   0.555440 0.944550 0.433430 -0.640766
O5    O     O_R   0.444560 0.944550 0.433430 -0.626234
O6    O     O_R   0.555440 0.055450 0.566570 -0.640731
O7    O     O_R   0.555440 0.055450 0.433430 -0.626235
O8    O     O_R   0.444560 0.944550 0.566570 -0.640729
O9    O     O_R   0.944560 0.555450 0.433430 -0.640664
O10   O     O_R   0.944560 0.555450 0.566570 -0.626211
O11   O     O_R   0.055440 0.444550 0.433430 -0.640698
O12   O     O_R   0.944560 0.444550 0.433430 -0.626231
O13   O     O_R   0.055440 0.555450 0.566570 -0.640674
O14   O     O_R   0.055440 0.555450 0.433430 -0.626218
O15   O     O_R   0.944560 0.444550 0.566570 -0.640675
O16   O     O_R   0.555440 0.944550 0.566570 -0.626252
Zn1   Zn    Zn3+2 1.000000 0.500000 0.588860 0.914955
Zn2   Zn    Zn3+2 1.000000 0.500000 0.411140 0.914942
Zn3   Zn    Zn3+2 0.500000 0.000000 0.588860 0.914897
Zn4   Zn    Zn3+2 0.500000 0.000000 0.411140 0.914883

loop_
_geom_bond_atom_site_label_1
_geom_bond_atom_site_label_2
_ccdc_geom_bond_type
C157  C158  S    
C157  H131  S    
C19   H175  S    
C100  H127  S    
C50   H64   S    
C81   C156  S    
C91   C127  A    
C124  C133  S    
C55   H66   S    
C3    H136  S    
C5    C6    S    
C98   H105  S    
C49   H53   S    
C89   C129  A    
C35   C145  A    
C108  C120  A    
C131  C140  S    
C104  C116  A    
C51   H63   S    
C23   H3    S    
C67   H100  S    
C79   C149  S    
C32   H12   S    
C141  H79   S    
C21   C22   S    
C1    O11   A    
C41   H40   S    
O10   Zn1   S    
C117  O3    A    
C51   C52   S    
C42   H38   S    
C127  C136  S    
C25   H192  S    
C81   C99   A    
C132  C137  T    
C37   H33   S    
C29   H6    S    
C92   C130  A    
C75   C76   T    
C37   C38   S    
C107  H2    S    
C45   H43   S    
C47   H56   S    
C21   H185  S    
C10   H163  S    
C111  H46   S    
C154  C155  S    
O14   Zn2   S    
C109  H24   S    
C30   C92   S    
C40   H42   S    
C57   C147  A    
C153  H125  S    
C154  H122  S    
C66   H103  S    
C130  C138  S    
C107  C120  A    
C18   H177  S    
O2    Zn4   S    
C19   H173  S    
C103  H160  S    
C46   C60   S    
C56   H80   S    
C59   H75   S    
C3    H134  S    
C4    C5    S    
C128  O8    A    
C99   H116  S    
C79   C97   A    
C9    H151  S    
C2    C47   S    
O16   Zn3   S    
O1    Zn1   S    
C25   C26   S    
C64   C65   S    
O12   Zn2   S    
C46   C146  A    
C35   N3    A    
C43   H49   S    
C151  H114  S    
C28   H8    S    
C129  C137  S    
C20   C21   S    
C110  H35   S    
C105  H182  S    
C152  H111  S    
C106  O16   A    
C17   H179  S    
C123  C132  S    
C86   C126  A    
C62   H83   S    
C53   C54   S    
C70   C143  A    
C72   C77   S    
C73   C116  S    
C156  H133  S    
C24   C144  A    
C84   O15   A    
C149  C151  S    
C110  C121  A    
C38   C39   S    
C39   H29   S    
C5    H146  S    
C72   C145  A    
C7    H156  S    
C55   H67   S    
C155  H119  S    
C90   C129  A    
C16   H165  S    
C31   C32   S    
C27   C91   S    
C33   H26   S    
N4    Zn4   S    
C149  H117  S    
C68   C148  A    
C66   C67   S    
C48   H55   S    
C111  C122  A    
C12   H157  S    
C85   C126  A    
C95   O13   A    
C20   H187  S    
C141  C150  A    
C57   C63   S    
C31   H16   S    
C32   H15   S    
C100  C114  A    
C2    N2    A    
C18   H176  S    
C61   H86   S    
C44   H47   S    
C11   H161  S    
C155  H121  S    
C160  H137  S    
C63   H96   S    
C106  C122  S    
C17   C18   S    
C30   H18   S    
C34   H23   S    
C84   O12   A    
C43   C150  S    
C6    H144  S    
C4    H148  S    
C24   N2    A    
C39   H28   S    
C97   H1    S    
C2    C142  A    
C26   H188  S    
C104  H171  S    
O7    Zn4   S    
C69   H97   S    
C23   H4    S    
C54   C55   S    
C10   C86   S    
C52   H59   S    
C83   C101  A    
C35   C56   S    
C157  H130  S    
C144  H106  S    
C36   H21   S    
C72   C147  A    
C20   C89   S    
C26   H189  S    
C3    H135  S    
C88   C105  A    
C92   C110  A    
C98   C115  A    
C16   H167  S    
C49   H52   S    
C94   C112  A    
C56   C58   S    
C34   C36   S    
N1    Zn1   S    
C61   C62   S    
C10   C11   S    
C53   H72   S    
N3    Zn3   S    
C13   C50   S    
C113  C121  A    
C60   H87   S    
C38   H31   S    
C65   H92   S    
C70   C75   S    
C12   H159  S    
C14   C15   S    
C97   C114  A    
C151  H115  S    
C54   H70   S    
C85   C102  A    
C22   H180  S    
C125  C134  S    
C8    H153  S    
C19   H174  S    
C41   C42   S    
C36   H20   S    
C41   H39   S    
C77   C78   T    
O11   Zn2   S    
C74   C148  A    
C28   C29   S    
C160  H139  S    
C40   C96   S    
C64   H93   S    
C88   C127  A    
C152  H113  S    
C99   C115  A    
C71   C76   S    
C95   C114  S    
C1    O1    A    
C156  H132  S    
C18   C19   S    
C29   H5    S    
C46   N4    A    
C6    H142  S    
C70   C141  A    
C151  C152  S    
O5    Zn4   S    
C10   H164  S    
C58   H77   S    
C69   H99   S    
C52   H61   S    
C153  H124  S    
C154  H123  S    
C83   C125  A    
C66   H104  S    
O9    Zn2   S    
N2    Zn2   S    
C48   H54   S    
C47   H58   S    
O3    Zn3   S    
C117  O2    A    
C80   C153  S    
C128  O5    A    
C9    H150  S    
C24   C53   S    
C32   H14   S    
C60   C61   S    
C34   H25   S    
C159  C160  S    
C89   C107  A    
C50   C51   S    
C23   C90   S    
C145  H107  S    
C146  H108  S    
C27   H10   S    
C93   C111  A    
O13   Zn1   S    
C48   C49   S    
C126  C135  S    
C96   C113  A    
C103  C118  A    
C36   H22   S    
C53   H73   S    
C82   C123  A    
C44   C45   S    
C109  C119  A    
C96   C130  A    
C17   H178  S    
C80   C124  A    
C45   H45   S    
C80   C98   A    
C74   C146  A    
C42   H37   S    
C33   C93   S    
C120  C128  S    
C62   H84   S    
C94   C131  A    
C119  C139  S    
C37   H34   S    
C29   H7    S    
C58   C59   S    
C101  H138  S    
C147  H109  S    
C82   C159  S    
C5    H145  S    
C7    C85   S    
C4    C83   S    
C139  O6    A    
C45   H44   S    
C7    H155  S    
C13   C143  A    
C139  O7    A    
C90   C108  A    
C87   C104  A    
C28   H9    S    
C16   H166  S    
C40   H41   S    
C74   C78   S    
C101  C116  A    
C105  C119  A    
C50   H65   S    
C158  H129  S    
C93   C131  A    
C71   C144  A    
C14   H172  S    
C135  C138  T    
C66   C68   S    
C56   H81   S    
C68   N4    A    
C142  H90   S    
C65   H89   S    
O6    Zn3   S    
C17   C88   S    
C12   H158  S    
C55   H69   S    
C59   H76   S    
C43   C44   S    
C9    H152  S    
C22   H183  S    
C158  H128  S    
C31   H17   S    
C156  C157  S    
C15   H169  S    
C106  O4    A    
C14   C87   S    
C134  C140  T    
C51   H62   S    
C61   H85   S    
C15   C16   S    
C44   H48   S    
C159  H141  S    
C43   H50   S    
C117  C121  S    
C63   H95   S    
C8    C9    S    
O15   Zn1   S    
C133  C136  T    
C30   H19   S    
C143  H101  S    
C102  C118  A    
C108  H13   S    
O8    Zn3   S    
C86   C103  A    
C62   H82   S    
C64   H94   S    
C13   N1    A    
C52   H60   S    
C81   C124  A    
C148  H110  S    
C39   H30   S    
C113  H68   S    
C102  H149  S    
C79   C123  A    
C63   C64   S    
C67   C69   S    
C26   H190  S    
C42   H36   S    
C112  C122  A    
C155  H120  S    
C47   C48   S    
C30   C31   S    
C112  H57   S    
C49   H51   S    
C33   C34   S    
C73   O10   A    
C33   H27   S    
C150  N1    A    
C149  H118  S    
C73   O9    A    
C15   H168  S    
C71   C142  A    
C14   H170  S    
C40   C41   S    
C60   H88   S    
C84   C115  S    
C38   H32   S    
C65   H91   S    
C25   H191  S    
C3    C160  S    
C59   H74   S    
C159  H140  S    
C95   O14   A    
C57   N3    A    
C27   H11   S    
C54   H71   S    
C87   C125  A    
C67   H102  S    
C22   H181  S    
C158  H126  S    
C8    H154  S    
C82   C100  A    
C11   C12   S    
C11   H162  S    
C91   C109  A    
C21   H184  S    
C20   H186  S    
C152  H112  S    
C37   C94   S    
C1    C118  S    
C23   C25   S    
C7    C8    S    
C6    H143  S    
C4    H147  S    
C27   C28   S    
C153  C154  S    
C58   H78   S    
C69   H98   S    
O4    Zn4   S    
