data_mof_unit_59745.cif
_audit_creation_date              2012-10-26T21:05:41-0400
_audit_creation_method            fapswitch 2.2
_symmetry_space_group_name_H-M    P1
_symmetry_Int_Tables_number       1
_space_group_crystal_system       triclinic
_cell_length_a                    13.068135
_cell_length_b                    9.087184
_cell_length_c                    7.804103
_cell_angle_alpha                 90.000263
_cell_angle_beta                  95.063056
_cell_angle_gamma                 89.999952
_cell_volume                      923.141068186

loop_
_atom_site_label
_atom_site_type_symbol
_atom_type_description
_atom_site_fract_x
_atom_site_fract_y
_atom_site_fract_z
_atom_type_partial_charge
C1    C     C_R   0.500000 0.220116 0.500000 0.530636
C2    C     C_R   0.867434 0.465394 0.703857 0.095471
C3    C     C_R   0.133713 0.541857 0.596617 0.100253
C4    C     C_R   0.866286 0.541859 0.403384 0.100254
C5    C     C_R   0.026667 0.523700 0.582503 -0.005684
C6    C     C_R   0.973333 0.523700 0.417498 -0.005685
C7    C     C_1   0.500000 0.065403 0.500000 -0.068353
C8    C     C_1   0.500000 0.934594 0.500000 -0.068933
C9    C     C_3   0.788219 0.762892 0.279876 -0.276308
C10   C     C_3   0.211779 0.762890 0.720130 -0.276308
C11   C     C_3   0.794456 0.240800 0.804499 -0.276204
C12   C     C_R   0.500000 0.779883 0.500000 0.529447
C13   C     C_3   0.205545 0.240798 0.195503 -0.276204
C14   C     C_R   0.300254 0.500793 0.469715 0.555912
C15   C     C_R   0.699746 0.500794 0.530285 0.555912
C16   C     C_R   0.812302 0.503498 0.546312 0.042900
C17   C     C_R   0.187698 0.503496 0.453689 0.042900
C18   C     C_R   0.027380 0.493531 0.274339 -0.136942
C19   C     C_R   0.972620 0.493531 0.725662 -0.136942
C20   C     C_R   0.132566 0.465392 0.296143 0.095471
Cu1   Cu    Cu3+1 0.500010 0.500000 0.669080 1.028352
Cu2   Cu    Cu3+1 0.499990 0.500000 0.330920 1.028352
H1    H     H_    0.987512 0.472524 0.150269 0.085578
H2    H     H_    0.257460 0.804689 0.836782 0.149493
H3    H     H_    0.855871 0.407658 0.958268 0.236044
H4    H     H_    0.752020 0.196258 0.910251 0.148676
H5    H     H_    0.866270 0.176278 0.797809 0.119800
H6    H     H_    0.745228 0.227583 0.682043 0.153812
H7    H     H_    0.144127 0.407652 0.041732 0.236043
H8    H     H_    0.247980 0.196255 0.089749 0.148675
H9    H     H_    0.133732 0.176274 0.202195 0.119800
H10   H     H_    0.254775 0.227583 0.317958 0.153813
H11   H     H_    0.012488 0.472524 0.849731 0.085578
H12   H     H_    0.847570 0.596858 0.141454 0.243520
H13   H     H_    0.859245 0.830042 0.302255 0.121774
H14   H     H_    0.741383 0.775798 0.390935 0.152278
H15   H     H_    0.742537 0.804690 0.163224 0.149493
H16   H     H_    0.152432 0.596852 0.858549 0.243521
H17   H     H_    0.140751 0.830039 0.697754 0.121774
H18   H     H_    0.258613 0.775800 0.609070 0.152278
N1    N     N_1   0.499980 0.500000 0.076820 -0.069854
N2    N     N_1   0.500020 0.500000 0.923180 -0.069854
N3    N     N_2   0.814443 0.609992 0.254864 -0.484723
N4    N     N_2   0.185557 0.609989 0.745138 -0.484723
N5    N     N_2   0.818678 0.394233 0.837762 -0.483409
N6    N     N_2   0.181322 0.394230 0.162238 -0.483410
O1    O     O_R   0.500000 0.288400 0.642760 -0.503549
O2    O     O_R   0.500000 0.711600 0.357240 -0.504109
O3    O     O_R   0.500000 0.288400 0.357240 -0.503549
O4    O     O_R   0.500000 0.711600 0.642760 -0.504109
O5    O     O_R   0.349000 0.500000 0.619590 -0.477665
O6    O     O_R   0.651000 0.500000 0.380410 -0.477665
O7    O     O_R   0.348990 0.500000 0.334020 -0.476815
O8    O     O_R   0.651010 0.500000 0.665980 -0.476815

loop_
_geom_bond_atom_site_label_1
_geom_bond_atom_site_label_2
_ccdc_geom_bond_type
C4    C16   A    
C9    H14   S    
C12   O4    A    
H16   N4    S    
C5    C19   A    
C4    N3    S    
C2    C16   A    
N1    N2    T    
C13   H10   S    
Cu2   O2    S    
C14   O5    A    
C11   H5    S    
H7    N6    S    
C8    C12   S    
Cu1   Cu2   S    
C14   O7    A    
C9    H15   S    
C7    C8    T    
C15   O6    A    
C14   C17   S    
C5    C6    A    
C11   H6    S    
Cu2   O3    S    
Cu2   O6    S    
Cu1   O4    S    
C12   O2    A    
C3    C17   A    
Cu2   O7    S    
C18   C20   A    
C2    N5    S    
C13   N6    S    
C6    C18   A    
Cu1   O1    S    
C3    N4    S    
C11   N5    S    
Cu2   N1    S    
C9    N3    S    
C10   N4    S    
C18   H1    S    
C15   O8    A    
H3    N5    S    
C13   H8    S    
Cu1   O5    S    
C17   C20   A    
C4    C6    A    
Cu1   O8    S    
C19   H11   S    
C9    H13   S    
C1    O1    A    
C10   H18   S    
Cu1   N2    S    
C11   H4    S    
C10   H2    S    
C2    C19   A    
C1    C7    S    
C1    O3    A    
C13   H9    S    
C20   N6    S    
H12   N3    S    
C15   C16   S    
C10   H17   S    
C3    C5    A    
