data_mof_unit_11330.cif
_audit_creation_date              2012-12-10T17:24:56-0500
_audit_creation_method            fapswitch 2.2
_symmetry_space_group_name_H-M    P1
_symmetry_Int_Tables_number       1
_space_group_crystal_system       triclinic
_cell_length_a                    10.228338
_cell_length_b                    10.838948
_cell_length_c                    19.076983
_cell_angle_alpha                 91.597087
_cell_angle_beta                  81.141274
_cell_angle_gamma                 95.950646
_cell_volume                      2078.31661126

loop_
_atom_site_label
_atom_site_type_symbol
_atom_type_description
_atom_site_fract_x
_atom_site_fract_y
_atom_site_fract_z
_atom_type_partial_charge
C1    C     C_R   0.556160 0.732273 0.492370 0.825644
C2    C     C_R   0.503028 0.507693 0.365309 0.899922
C3    C     C_R   0.392510 0.459224 0.758931 0.426574
C4    C     C_R   0.630480 0.518683 0.241127 0.423694
C5    C     C_R   0.394464 0.479239 0.831705 0.470989
C6    C     C_R   0.632579 0.536503 0.168473 0.435794
C7    C     C_R   0.504269 0.551171 0.854501 -0.109722
C8    C     C_R   0.526007 0.588164 0.145148 -0.082174
C9    C     C_R   0.614627 0.592830 0.805005 -0.224900
C10   C     C_R   0.417938 0.618431 0.194456 -0.242347
C11   C     C_R   0.614158 0.570163 0.733482 -0.240874
C12   C     C_R   0.443097 0.267776 0.505032 0.834558
C13   C     C_R   0.412533 0.592887 0.265606 -0.326138
C14   C     C_R   0.502273 0.507686 0.710007 -0.241444
C15   C     C_R   0.514155 0.536169 0.289432 -0.215457
C16   C     C_R   0.520992 0.600732 0.069548 0.306535
C17   C     C_R   0.509120 0.579492 0.929422 0.307823
C18   C     C_3   0.298165 0.280259 0.712873 -0.217148
C19   C     C_3   0.830169 0.590614 0.270927 -0.283971
C20   C     C_3   0.316367 0.320929 0.907596 -0.260137
C21   C     C_3   0.726557 0.379242 0.105474 -0.238509
C22   C     C_3   0.649183 0.126208 0.580071 -0.174696
C23   C     C_2   0.587840 0.865185 0.484044 0.269194
C24   C     C_3   0.411819 0.864482 0.375427 -0.266636
C25   C     C_3   0.196235 0.090369 0.470197 -0.172900
C26   C     C_3   0.778184 0.949537 0.419831 -0.444536
C27   C     C_3   0.122391 0.466256 0.366731 -0.303573
C28   C     C_3   0.963721 0.734191 0.471696 -0.304111
C29   C     C_3   0.175149 0.711108 0.603832 -0.046697
C30   C     C_3   0.823645 0.284239 0.398885 -0.161342
C31   C     C_2   0.407690 0.138080 0.491851 0.234736
C32   C     C_2   0.488393 0.934652 0.476982 0.356913
C33   C     C_2   0.484125 0.056498 0.512575 0.313484
C34   C     C_2   0.934300 0.526993 0.492456 0.566892
C35   C     C_2   0.078379 0.498106 0.486921 0.579789
C36   C     C_R   0.499922 0.500368 0.634250 0.896136
H1    H     H_    0.700680 0.645881 0.821448 0.193936
H2    H     H_    0.863555 0.637681 0.219219 0.191519
H3    H     H_    0.223579 0.273757 0.937122 0.196902
H4    H     H_    0.388245 0.339969 0.945596 0.157686
H5    H     H_    0.356358 0.255523 0.865727 0.127019
H6    H     H_    0.811637 0.356788 0.065369 0.197409
H7    H     H_    0.633909 0.352621 0.082363 0.137249
H8    H     H_    0.727494 0.323072 0.153296 0.172945
H9    H     H_    0.708642 0.139833 0.526593 0.214543
H10   H     H_    0.702984 0.068223 0.610708 0.198298
H11   H     H_    0.644597 0.217673 0.607474 0.172822
H12   H     H_    0.336443 0.660757 0.177875 0.181681
H13   H     H_    0.458321 0.951495 0.348402 0.178184
H14   H     H_    0.320001 0.834553 0.352694 0.180480
H15   H     H_    0.479793 0.790473 0.363979 0.120933
H16   H     H_    0.158809 0.178007 0.492666 0.199262
H17   H     H_    0.180394 0.018017 0.511857 0.146117
H18   H     H_    0.135885 0.057017 0.428589 0.169787
H19   H     H_    0.722353 0.013461 0.394077 0.145832
H20   H     H_    0.790517 0.865337 0.385781 0.165373
H21   H     H_    0.878341 0.997401 0.423058 0.200227
H22   H     H_    0.135165 0.569456 0.364973 0.091158
H23   H     H_    0.699102 0.606963 0.696119 0.215463
H24   H     H_    0.027000 0.433225 0.349704 0.162834
H25   H     H_    0.199970 0.428933 0.327201 0.215894
H26   H     H_    0.927869 0.723026 0.419536 0.135828
H27   H     H_    0.073726 0.735776 0.463597 0.129335
H28   H     H_    0.940800 0.825598 0.494949 0.241881
H29   H     H_    0.206246 0.770731 0.556538 0.161221
H30   H     H_    0.261963 0.689320 0.627422 0.183720
H31   H     H_    0.114634 0.766104 0.643977 0.133894
H32   H     H_    0.731633 0.222506 0.413582 0.160866
H33   H     H_    0.896699 0.226642 0.368307 0.135241
H34   H     H_    0.330190 0.621412 0.302222 0.179243
H35   H     H_    0.805635 0.356703 0.362579 0.203800
H36   H     H_    0.395840 0.272515 0.678970 0.124422
H37   H     H_    0.220041 0.247235 0.680419 0.188649
H38   H     H_    0.287106 0.217370 0.758680 0.154969
H39   H     H_    0.920009 0.563678 0.289762 0.155113
H40   H     H_    0.784144 0.656521 0.310818 0.137210
N1    N     N_R   0.628165 0.595830 0.952942 -0.175293
N2    N     N_R   0.401939 0.591271 0.045838 -0.182789
N3    N     N_R   0.633952 0.606372 0.021798 -0.104187
N4    N     N_R   0.396110 0.581355 0.976838 -0.112396
N5    N     N_2   0.842710 0.448880 0.471430 0.024470
N6    N     N_2   0.157290 0.551120 0.528570 0.028508
O1    O     O_R   0.431050 0.692470 0.505750 -0.629715
O2    O     O_3   0.742601 0.482886 0.263824 -0.606723
O3    O     O_3   0.286168 0.431920 0.879371 -0.560013
O4    O     O_3   0.741917 0.507449 0.121027 -0.585104
O5    O     O_3   0.518582 0.068998 0.580524 -0.676458
O6    O     O_3   0.376613 0.883470 0.449164 -0.612679
O7    O     O_3   0.330772 0.109805 0.438685 -0.608225
O8    O     O_3   0.714993 0.917746 0.489013 -0.614038
O9    O     O_3   0.131538 0.419501 0.433943 -0.580520
O10   O     O_3   0.899324 0.641136 0.518881 -0.570957
O11   O     O_3   0.096198 0.602909 0.588384 -0.552744
O12   O     O_R   0.568950 0.307530 0.494250 -0.641679
O13   O     O_3   0.875865 0.331828 0.459535 -0.577310
O14   O     O_R   0.651120 0.659650 0.487410 -0.557178
O15   O     O_R   0.348880 0.340350 0.512590 -0.577009
O16   O     O_R   0.389930 0.516430 0.611030 -0.579403
O17   O     O_R   0.610070 0.483570 0.388970 -0.597877
O18   O     O_R   0.610000 0.483610 0.592700 -0.599750
O19   O     O_R   0.390000 0.516390 0.407300 -0.582400
O20   O     O_3   0.278179 0.402628 0.736353 -0.555510
Zn1   Zn    Zn3+2 0.353060 0.521920 0.512240 1.029683
Zn2   Zn    Zn3+2 0.646940 0.478080 0.487760 1.006983

loop_
_geom_bond_atom_site_label_1
_geom_bond_atom_site_label_2
_ccdc_geom_bond_type
C26   H19   S    
C30   H35   S    
O1    Zn1   S    
C19   H40   S    
C25   H17   S    
C27   H24   S    
C14   C36   S    
C20   H4    S    
C11   C14   A    
N2    N4    A    
C13   H34   S    
O16   Zn1   S    
C32   O6    S    
O18   Zn2   S    
C34   C35   S    
C18   O20   S    
C27   H25   S    
C21   H7    S    
C31   O7    S    
N6    Zn1   S    
C31   C33   D    
C27   O9    S    
C34   N5    D    
C5    O3    S    
C24   H15   S    
O17   Zn2   S    
O12   Zn2   S    
C18   H38   S    
N6    O11   S    
C29   H31   S    
C18   H36   S    
C12   O12   A    
C11   H23   S    
C17   N1    A    
C35   N6    D    
C20   H5    S    
N1    N3    A    
C24   H14   S    
C25   H18   S    
C4    C6    A    
C5    C7    A    
C20   H3    S    
C6    C8    A    
C2    O19   A    
C7    C17   S    
C10   C13   A    
C17   N4    A    
C21   H6    S    
C30   O13   S    
C19   H2    S    
C21   H8    S    
C9    C11   A    
C4    O2    S    
C20   O3    S    
C9    H1    S    
C23   O8    S    
C36   O18   A    
C22   O5    S    
C2    C15   S    
C24   O6    S    
C12   O15   A    
O15   Zn1   S    
C3    C14   A    
C29   H29   S    
C28   H28   S    
C3    O20   S    
C22   H10   S    
C2    O17   A    
C1    C23   S    
C18   H37   S    
C13   C15   A    
C12   C31   S    
C10   H12   S    
C26   O8    S    
C19   O2    S    
C30   H33   S    
O19   Zn1   S    
C24   H13   S    
C7    C9    A    
C21   O4    S    
C8    C16   S    
C3    C5    A    
C27   H22   S    
C26   H20   S    
C1    O1    A    
C25   O7    S    
C6    O4    S    
C16   N3    A    
C23   C32   D    
C4    C15   A    
O14   Zn2   S    
C33   O5    S    
C25   H16   S    
C32   C33   S    
C29   O11   S    
C1    O14   A    
N5    O13   S    
C19   H39   S    
C22   H11   S    
C16   N2    A    
C26   H21   S    
C34   O10   S    
C29   H30   S    
C28   O10   S    
C28   H27   S    
C22   H9    S    
C8    C10   A    
C36   O16   A    
C30   H32   S    
C35   O9    S    
N5    Zn2   S    
C28   H26   S    
