data_mof_unit_39294.cif
_audit_creation_date              2012-12-11T15:39:31-0500
_audit_creation_method            fapswitch 2.2
_symmetry_space_group_name_H-M    P1
_symmetry_Int_Tables_number       1
_space_group_crystal_system       triclinic
_cell_length_a                    17.274848
_cell_length_b                    24.314088
_cell_length_c                    14.984809
_cell_angle_alpha                 89.221182
_cell_angle_beta                  125.605453
_cell_angle_gamma                 90.678534
_cell_volume                      5116.73599055

loop_
_atom_site_label
_atom_site_type_symbol
_atom_type_description
_atom_site_fract_x
_atom_site_fract_y
_atom_site_fract_z
_atom_type_partial_charge
C1    C     C_R   0.309471 0.375230 0.907939 -0.083182
C2    C     C_R   0.551822 0.496721 0.725032 -0.030053
C3    C     C_R   0.113615 0.815290 0.999463 0.100064
C4    C     C_3   0.587124 0.630027 0.622767 -0.035332
C5    C     C_3   0.791464 0.571736 0.621135 -0.014849
C6    C     C_3   0.087123 0.130027 0.622766 -0.035334
C7    C     C_3   0.291464 0.071736 0.621135 -0.014849
C8    C     C_3   0.467626 0.599684 0.342028 -0.288562
C9    C     C_3   0.684603 0.568971 0.900375 -0.076675
C10   C     C_3   0.967625 0.099684 0.342028 -0.288565
C11   C     C_3   0.184603 0.068971 0.900375 -0.076675
C12   C     C_R   0.070455 0.995565 0.369898 -0.023190
C13   C     C_R   0.051822 0.996721 0.725032 -0.030052
C14   C     C_R   0.199703 0.501575 0.630757 0.073476
C15   C     C_R   0.826130 0.501322 0.277586 0.060132
C16   C     C_R   0.699703 0.001575 0.630757 0.073476
C17   C     C_R   0.326130 0.001322 0.277586 0.060133
C18   C     C_R   0.075068 0.553697 0.464259 0.067067
C19   C     C_R   0.979157 0.553223 0.380913 -0.039847
C20   C     C_R   0.575068 0.053697 0.464259 0.067067
C21   C     C_R   0.647627 0.347661 0.091011 -0.108780
C22   C     C_R   0.479157 0.053223 0.380913 -0.039847
C23   C     C_R   0.121496 0.503905 0.514027 0.040187
C24   C     C_R   0.929316 0.503677 0.336697 0.094937
C25   C     C_R   0.621496 0.003905 0.514027 0.040187
C26   C     C_R   0.429316 0.003677 0.336697 0.094937
C27   C     C_R   0.078911 0.455155 0.454558 -0.138328
C28   C     C_R   0.982887 0.455203 0.364940 -0.161791
C29   C     C_R   0.578910 0.955156 0.454558 -0.138328
C30   C     C_R   0.482887 0.955203 0.364940 -0.161791
C31   C     C_3   0.961215 0.604410 0.421320 0.192298
C32   C     C_R   0.809471 0.875230 0.907939 -0.083182
C33   C     C_3   0.067198 0.606208 0.509924 0.184226
C34   C     C_3   0.461215 0.104410 0.421320 0.192299
C35   C     C_3   0.567198 0.106208 0.509924 0.184225
C36   C     C_R   0.171257 0.700062 0.892068 -0.135887
C37   C     C_R   0.714743 0.766098 0.104068 -0.139051
C38   C     C_R   0.671257 0.200062 0.892068 -0.135887
C39   C     C_R   0.214743 0.266098 0.104068 -0.139051
C40   C     C_R   0.620113 0.242162 0.893891 -0.207301
C41   C     C_R   0.262530 0.311593 0.102930 -0.202696
C42   C     C_R   0.120113 0.742162 0.893891 -0.207300
C43   C     C_R   0.147627 0.847661 0.091011 -0.108780
C44   C     C_R   0.762530 0.811593 0.102930 -0.202696
C45   C     C_R   0.637627 0.258579 0.993678 -0.000276
C46   C     C_R   0.235492 0.335224 0.002638 0.004854
C47   C     C_R   0.137627 0.758579 0.993678 -0.000276
C48   C     C_R   0.735492 0.835224 0.002638 0.004854
C49   C     C_R   0.404415 0.630713 0.088169 -0.141897
C50   C     C_R   0.551086 0.654647 0.910950 0.015753
C51   C     C_R   0.904415 0.130713 0.088169 -0.141897
C52   C     C_R   0.051086 0.154647 0.910950 0.015753
C53   C     C_R   0.691788 0.224114 0.086837 0.468547
C54   C     C_R   0.314574 0.643076 0.994682 0.057496
C55   C     C_R   0.145464 0.321307 0.906609 0.468278
C56   C     C_R   0.191788 0.724114 0.086837 0.468548
C57   C     C_R   0.645464 0.821307 0.906609 0.468278
C58   C     C_R   0.245202 0.682452 0.084985 -0.258753
C59   C     C_R   0.598683 0.774530 0.907845 -0.247723
C60   C     C_R   0.745203 0.182452 0.084985 -0.258753
C61   C     C_R   0.098683 0.274530 0.907845 -0.247722
C62   C     C_R   0.241029 0.673949 0.990075 0.076268
C63   C     C_R   0.638817 0.743839 0.005001 0.072569
C64   C     C_R   0.741029 0.173949 0.990075 0.076268
C65   C     C_R   0.612483 0.686203 0.002311 0.030623
C66   C     C_R   0.138817 0.243839 0.005001 0.072569
C67   C     C_R   0.630112 0.539914 0.637306 0.388688
C68   C     C_R   0.647348 0.534514 0.557075 0.434180
C69   C     C_R   0.130112 0.039914 0.637306 0.388688
C70   C     C_R   0.147348 0.034514 0.557075 0.434180
C71   C     C_R   0.605019 0.490370 0.484697 -0.048325
C72   C     C_R   0.593659 0.493747 0.662143 -0.055329
C73   C     C_R   0.105019 0.990370 0.484697 -0.048324
C74   C     C_R   0.093659 0.993747 0.662143 -0.055329
C75   C     C_R   0.582641 0.442696 0.518003 -0.223508
C76   C     C_R   0.814574 0.143076 0.994682 0.057496
C77   C     C_R   0.581566 0.443727 0.609035 -0.215104
C78   C     C_R   0.082641 0.942696 0.518003 -0.223508
C79   C     C_R   0.081566 0.943727 0.609035 -0.215104
C80   C     C_R   0.553320 0.452136 0.303815 -0.273462
C81   C     C_R   0.515024 0.452460 0.748014 -0.242199
C82   C     C_R   0.053321 0.952136 0.303815 -0.273462
C83   C     C_R   0.015024 0.952459 0.748014 -0.242201
C84   C     C_R   0.248579 0.546316 0.695363 -0.174609
C85   C     C_R   0.767554 0.546545 0.245390 -0.023192
C86   C     C_R   0.748579 0.046316 0.695363 -0.174609
C87   C     C_R   0.112482 0.186203 0.002311 0.030623
C88   C     C_R   0.267554 0.046545 0.245390 -0.023192
C89   C     C_R   0.548091 0.542666 0.305243 0.672585
C90   C     C_R   0.532339 0.543106 0.763405 0.575918
C91   C     C_R   0.048091 0.042666 0.305244 0.672586
C92   C     C_R   0.032339 0.043105 0.763405 0.575918
C93   C     C_R   0.245204 0.455193 0.694702 -0.056653
C94   C     C_R   0.769728 0.454593 0.252128 -0.114596
C95   C     C_R   0.745204 0.955193 0.694702 -0.056653
C96   C     C_R   0.269728 0.954593 0.252128 -0.114596
C97   C     C_R   0.311098 0.626194 0.904868 -0.105012
C98   C     C_R   0.570455 0.495565 0.369898 -0.023190
C99   C     C_R   0.645490 0.652602 0.092092 -0.175407
C100  C     C_R   0.811098 0.126194 0.904868 -0.105012
C101  C     C_R   0.145490 0.152602 0.092092 -0.175407
C102  C     C_R   0.400155 0.377388 0.091307 -0.093786
C103  C     C_R   0.552700 0.347722 0.909014 -0.140649
C104  C     C_R   0.900154 0.877388 0.091307 -0.093786
C105  C     C_R   0.052700 0.847722 0.909014 -0.140649
C106  C     C_R   0.309470 0.364056 0.999525 0.078855
C107  C     C_R   0.613615 0.315290 0.999463 0.100064
C108  C     C_R   0.809470 0.864056 0.999525 0.078855
Cl1   Cl    Cl    0.897942 0.592931 0.481254 -0.698041
Cl2   Cl    Cl    0.124706 0.662036 0.491105 -0.630702
Cl3   Cl    Cl    0.397942 0.092930 0.481254 -0.698041
Cl4   Cl    Cl    0.624706 0.162036 0.491105 -0.630702
Cl5   Cl    Cl    0.694542 0.229998 0.205618 -0.656847
Cl6   Cl    Cl    0.087406 0.360625 0.784611 -0.678269
Cl7   Cl    Cl    0.194542 0.729998 0.205618 -0.656847
Cl8   Cl    Cl    0.587406 0.860625 0.784611 -0.678269
H1    H     H_    0.253782 0.367956 0.822850 0.161348
H2    H     H_    0.744489 0.745599 0.181974 0.130364
H3    H     H_    0.662476 0.192728 0.815699 0.137745
H4    H     H_    0.244488 0.245599 0.181974 0.130364
H5    H     H_    0.575398 0.265183 0.818401 0.138604
H6    H     H_    0.326442 0.323654 0.180521 0.138314
H7    H     H_    0.075398 0.765183 0.818401 0.138603
H8    H     H_    0.826442 0.823654 0.180521 0.138314
H9    H     H_    0.292726 0.658675 0.158766 0.147833
H10   H     H_    0.534288 0.760910 0.831876 0.161353
H11   H     H_    0.792726 0.158675 0.158766 0.147833
H12   H     H_    0.690934 0.335229 0.175982 0.168652
H13   H     H_    0.034288 0.260910 0.831876 0.161353
H14   H     H_    0.556762 0.405947 0.468510 0.163896
H15   H     H_    0.558738 0.406303 0.626748 0.156197
H16   H     H_    0.056763 0.905947 0.468511 0.163896
H17   H     H_    0.058738 0.906303 0.626748 0.156196
H18   H     H_    0.434379 0.644851 0.169363 0.165003
H19   H     H_    0.503758 0.669135 0.827144 0.109749
H20   H     H_    0.934379 0.144851 0.169363 0.165003
H21   H     H_    0.003758 0.169135 0.827144 0.109749
H22   H     H_    0.574421 0.409939 0.329735 0.160298
H23   H     H_    0.753782 0.867956 0.822850 0.161348
H24   H     H_    0.520321 0.409334 0.737205 0.136881
H25   H     H_    0.074421 0.909939 0.329735 0.160298
H26   H     H_    0.020321 0.909334 0.737205 0.136882
H27   H     H_    0.245586 0.587911 0.667768 0.151965
H28   H     H_    0.786339 0.589107 0.247766 0.111020
H29   H     H_    0.745586 0.087911 0.667768 0.151966
H30   H     H_    0.286339 0.089107 0.247766 0.111020
H31   H     H_    0.234786 0.413356 0.666223 0.088440
H32   H     H_    0.791653 0.412156 0.264928 0.108912
H33   H     H_    0.734786 0.913356 0.666223 0.088440
H34   H     H_    0.190934 0.835229 0.175982 0.168652
H35   H     H_    0.291653 0.912156 0.264928 0.108912
H36   H     H_    0.253110 0.629560 0.819052 0.109443
H37   H     H_    0.682473 0.665297 0.176444 0.129043
H38   H     H_    0.753110 0.129560 0.819052 0.109443
H39   H     H_    0.182473 0.165297 0.176444 0.129043
H40   H     H_    0.426676 0.374388 0.176382 0.104190
H41   H     H_    0.502273 0.334264 0.825526 0.096362
H42   H     H_    0.926676 0.874388 0.176382 0.104190
H43   H     H_    0.002273 0.834264 0.825526 0.096361
H44   H     H_    0.114873 0.416043 0.484226 0.126066
H45   H     H_    0.934151 0.639162 0.361545 0.129566
H46   H     H_    0.948983 0.416277 0.327830 0.126145
H47   H     H_    0.614873 0.916043 0.484226 0.126066
H48   H     H_    0.448983 0.916277 0.327830 0.126145
H49   H     H_    0.512153 0.615690 0.580779 0.090039
H50   H     H_    0.600121 0.644875 0.562229 0.165612
H51   H     H_    0.596942 0.665883 0.673484 0.169604
H52   H     H_    0.820037 0.533522 0.610518 0.150233
H53   H     H_    0.809721 0.573290 0.705596 0.112415
H54   H     H_    0.827225 0.607409 0.612510 0.202172
H55   H     H_    0.012152 0.115690 0.580778 0.090039
H56   H     H_    0.086313 0.602563 0.594566 0.126997
H57   H     H_    0.100120 0.144875 0.562228 0.165612
H58   H     H_    0.096941 0.165883 0.673483 0.169605
H59   H     H_    0.320037 0.033522 0.610518 0.150233
H60   H     H_    0.309721 0.073290 0.705596 0.112415
H61   H     H_    0.327225 0.107410 0.612510 0.202172
H62   H     H_    0.479085 0.575910 0.412209 0.130534
H63   H     H_    0.399863 0.585228 0.265967 0.123664
H64   H     H_    0.458494 0.643427 0.354028 0.185309
H65   H     H_    0.723074 0.545215 0.874869 0.153545
H66   H     H_    0.679121 0.543274 0.958607 0.085034
H67   H     H_    0.434151 0.139162 0.361545 0.129566
H68   H     H_    0.728812 0.605534 0.945628 0.157146
H69   H     H_    0.979085 0.075910 0.412208 0.130535
H70   H     H_    0.899862 0.085227 0.265966 0.123665
H71   H     H_    0.958494 0.143427 0.354028 0.185310
H72   H     H_    0.223074 0.045215 0.874869 0.153545
H73   H     H_    0.179121 0.043274 0.958607 0.085034
H74   H     H_    0.228812 0.105534 0.945628 0.157146
H75   H     H_    0.586313 0.102563 0.594566 0.126998
H76   H     H_    0.162476 0.692728 0.815699 0.137745
N1    N     N_R   0.394180 0.396910 0.943210 -0.054045
N2    N     N_R   0.474350 0.471570 0.793850 -0.071703
N3    N     N_R   0.025650 0.971570 0.206150 -0.075350
N4    N     N_R   0.974350 0.971570 0.793850 -0.071703
N5    N     N_R   0.319480 0.528420 0.793810 -0.044286
N6    N     N_R   0.680520 0.528420 0.206190 -0.051548
N7    N     N_R   0.819480 0.028420 0.793810 -0.044286
N8    N     N_R   0.180520 0.028420 0.206190 -0.051548
N9    N     N_R   0.525640 0.528390 0.206120 -0.111052
N10   N     N_R   0.474360 0.528390 0.793880 -0.107626
N11   N     N_R   0.025640 0.028390 0.206120 -0.111052
N12   N     N_R   0.605820 0.396910 0.056790 -0.054690
N13   N     N_R   0.974360 0.028390 0.793880 -0.107626
N14   N     N_R   0.319490 0.471590 0.793840 -0.044573
N15   N     N_R   0.680510 0.471590 0.206160 -0.048121
N16   N     N_R   0.819490 0.971590 0.793840 -0.044573
N17   N     N_R   0.180510 0.971590 0.206160 -0.048121
N18   N     N_R   0.394130 0.603080 0.943110 -0.049380
N19   N     N_R   0.605870 0.603080 0.056890 -0.060815
N20   N     N_R   0.894130 0.103080 0.943110 -0.049380
N21   N     N_R   0.105870 0.103080 0.056890 -0.060815
N22   N     N_R   0.450990 0.396900 0.056840 -0.037486
N23   N     N_R   0.894180 0.896910 0.943210 -0.054045
N24   N     N_R   0.549010 0.396900 0.943160 -0.042828
N25   N     N_R   0.950990 0.896900 0.056840 -0.037486
N26   N     N_R   0.049010 0.896900 0.943160 -0.042828
N27   N     N_R   0.105820 0.896910 0.056790 -0.054690
N28   N     N_R   0.450950 0.603070 0.056740 -0.040720
N29   N     N_R   0.549050 0.603070 0.943260 -0.047777
N30   N     N_R   0.950950 0.103070 0.056740 -0.040720
N31   N     N_R   0.049050 0.103070 0.943260 -0.047777
N32   N     N_R   0.525650 0.471570 0.206150 -0.075350
Ni1   Ni    Ni4+2 0.434860 0.434850 0.869700 0.203341
Ni2   Ni    Ni4+2 0.565140 0.434850 0.130300 0.232121
Ni3   Ni    Ni4+2 0.934860 0.934850 0.869700 0.203341
Ni4   Ni    Ni4+2 0.065140 0.934850 0.130300 0.232121
Ni5   Ni    Ni4+2 0.565130 0.565140 0.130240 0.258376
Ni6   Ni    Ni4+2 0.434870 0.565140 0.869760 0.221285
Ni7   Ni    Ni4+2 0.065130 0.065140 0.130240 0.258376
Ni8   Ni    Ni4+2 0.934870 0.065140 0.869760 0.221285
O1    O     O_3   0.653228 0.589085 0.692667 -0.601195
O2    O     O_3   0.692724 0.575933 0.539637 -0.584366
O3    O     O_3   0.153228 0.089085 0.692667 -0.601195
O4    O     O_3   0.192724 0.075933 0.539637 -0.584367
O5    O     O_3   0.545377 0.595738 0.334399 -0.593289
O6    O     O_3   0.594140 0.587179 0.808603 -0.621105
O7    O     O_3   0.045377 0.095738 0.334399 -0.593289
O8    O     O_3   0.094140 0.087179 0.808603 -0.621105

loop_
_geom_bond_atom_site_label_1
_geom_bond_atom_site_label_2
_ccdc_geom_bond_type
C58   C62   A    
C81   H24   S    
N11   Ni7   S    
C49   H18   S    
C63   C65   S    
C50   N29   A    
C17   C88   A    
N21   N31   A    
C4    O1    S    
C29   H47   S    
C12   C91   A    
C36   C42   A    
C30   H48   S    
C90   N10   A    
C6    O3    S    
C19   C31   S    
C15   C94   A    
C31   H45   S    
N6    Ni5   S    
C28   H46   S    
N1    N22   A    
C39   C41   A    
N20   N30   A    
N5    Ni6   S    
C3    C105  A    
C59   H10   S    
C40   H5    S    
C3    C43   A    
C29   C30   A    
C41   C46   A    
N3    Ni4   S    
C17   C26   S    
N2    Ni1   S    
C18   C19   A    
C50   H19   S    
N23   N25   A    
N16   Ni3   S    
N20   Ni8   S    
C36   C62   A    
C57   C59   A    
N3    N11   A    
C20   C25   A    
C101  H39   S    
C51   N30   A    
C49   C54   A    
N2    N10   A    
C99   H37   S    
C83   N4    A    
C10   H69   S    
N18   N28   A    
C4    H49   S    
C7    H61   S    
C67   C72   A    
C77   H15   S    
C5    H52   S    
N4    N13   A    
C2    C90   A    
C78   H16   S    
C92   N13   A    
C81   N2    A    
C87   C101  A    
C32   N23   A    
C61   C66   A    
C102  N22   A    
C67   O1    S    
C37   H2    S    
C101  N21   A    
C7    H59   S    
C46   C55   A    
C5    H54   S    
C31   C33   S    
C54   C97   A    
C102  C106  A    
C95   H33   S    
N8    Ni7   S    
C14   C84   A    
N27   Ni4   S    
C14   C93   A    
N21   Ni7   S    
C75   H14   S    
C61   H13   S    
C1    C106  A    
C15   C85   A    
C64   C76   S    
C41   H6    S    
N9    Ni5   S    
N4    Ni3   S    
C45   C53   A    
C10   O7    S    
C12   C73   S    
C16   C86   A    
C34   Cl3   S    
C20   C35   S    
C21   N12   A    
N5    N14   A    
C9    H66   S    
C70   C73   A    
C82   H25   S    
C2    C72   S    
C93   N14   A    
C85   H28   S    
C56   C58   A    
C37   C63   A    
C53   C60   A    
C53   Cl5   S    
C42   H7    S    
C52   H21   S    
C57   Cl8   S    
C38   C64   A    
C6    H55   S    
C60   H11   S    
C25   C29   A    
C40   C45   A    
C79   H17   S    
C71   C98   S    
C71   C75   A    
C97   N18   A    
C90   O6    S    
C49   N28   A    
C67   C68   A    
C89   O5    S    
C48   C57   A    
C51   C76   A    
C65   C99   A    
C32   H23   S    
N8    N17   A    
C66   C87   S    
C78   C79   A    
C103  H41   S    
C70   O4    S    
C54   C62   S    
C94   H32   S    
C11   O8    S    
C8    O5    S    
C73   C78   A    
C44   H8    S    
C60   C64   A    
C18   C23   A    
C11   H73   S    
C14   C23   S    
N29   Ni6   S    
C1    N1    A    
N7    Ni8   S    
C72   C77   A    
C8    H62   S    
C80   N32   A    
C51   H20   S    
C8    H64   S    
N15   Ni2   S    
C34   C35   S    
C7    H60   S    
N14   Ni1   S    
C10   H71   S    
C31   Cl1   S    
C12   C82   A    
C34   H67   S    
C17   C96   A    
C22   C34   S    
C21   H12   S    
C75   C77   A    
C82   N3    A    
C21   C107  A    
C43   H34   S    
C68   O2    S    
C11   H72   S    
C58   H9    S    
C38   H3    S    
N28   Ni5   S    
C86   N7    A    
C15   C24   S    
N17   Ni4   S    
C20   C22   A    
N30   Ni7   S    
C26   C30   A    
C23   C27   A    
C5    O2    S    
C13   C92   A    
C22   C26   A    
C95   N16   A    
C39   C66   A    
C50   C65   A    
C46   C106  S    
N12   Ni2   S    
C86   H29   S    
C102  H40   S    
N26   Ni3   S    
C104  C108  A    
N31   Ni8   S    
C6    H57   S    
C100  H38   S    
C16   C25   S    
N12   N24   A    
C7    O4    S    
C92   O8    S    
C16   C95   A    
C35   H75   S    
C96   N17   A    
N19   Ni5   S    
C80   C98   A    
N6    N15   A    
C36   H76   S    
C52   C87   A    
C43   N27   A    
C94   N15   A    
C24   C28   A    
C104  H42   S    
N13   Ni8   S    
N32   Ni2   S    
C99   N19   A    
C83   H26   S    
C55   Cl6   S    
C84   N5    A    
C76   C100  A    
C6    H58   S    
C89   N9    A    
C13   C83   A    
C56   Cl7   S    
C59   C63   A    
N24   Ni1   S    
C84   H27   S    
C4    H51   S    
N10   Ni6   S    
C89   C98   A    
C74   C79   A    
C11   H74   S    
C88   N8    A    
C37   C44   A    
C19   C24   A    
C27   H44   S    
N1    Ni1   S    
C9    H68   S    
C38   C40   A    
C96   H35   S    
C8    H63   S    
N26   N27   A    
C48   C108  S    
C100  N20   A    
C68   C71   A    
C80   H22   S    
C55   C61   A    
C3    C47   S    
N7    N16   A    
C10   H70   S    
C97   H36   S    
C4    H50   S    
C93   H31   S    
N23   Ni3   S    
C42   C47   A    
C39   H4    S    
C69   O3    S    
C69   C70   A    
N22   Ni2   S    
C18   C33   S    
C104  N25   A    
N18   Ni6   S    
C9    H65   S    
C105  H43   S    
N25   Ni4   S    
C45   C107  S    
C85   N6    A    
C13   C74   S    
C52   N31   A    
C105  N26   A    
C32   C108  A    
C91   O7    S    
C9    O6    S    
C5    H53   S    
C69   C74   A    
C2    C81   A    
C103  C107  A    
C33   Cl2   S    
N9    N32   A    
C88   H30   S    
C1    H1    S    
C33   H56   S    
C103  N24   A    
C91   N11   A    
C35   Cl4   S    
C44   C48   A    
C47   C56   A    
C27   C28   A    
N19   N29   A    
