data_mof_unit_31971.cif
_audit_creation_date              2012-12-11T15:54:01-0500
_audit_creation_method            fapswitch 2.2
_symmetry_space_group_name_H-M    P1
_symmetry_Int_Tables_number       1
_space_group_crystal_system       triclinic
_cell_length_a                    10.746358
_cell_length_b                    10.662889
_cell_length_c                    16.916791
_cell_angle_alpha                 80.741462
_cell_angle_beta                  99.55351
_cell_angle_gamma                 118.710622
_cell_volume                      1669.1527028

loop_
_atom_site_label
_atom_site_type_symbol
_atom_type_description
_atom_site_fract_x
_atom_site_fract_y
_atom_site_fract_z
_atom_type_partial_charge
C1    C     C_R   0.384520 0.284332 0.631942 0.529211
C2    C     C_1   0.333121 0.187773 0.781888 -0.024742
C3    C     C_1   0.364172 0.639551 0.275199 -0.027058
C4    C     C_R   0.413353 0.622495 0.602147 0.535291
C5    C     C_1   0.340843 0.659015 0.204378 -0.050328
C6    C     C_R   0.830670 0.666388 0.156103 0.019079
C7    C     C_R   0.917550 0.649259 0.223131 -0.008648
C8    C     C_R   0.877679 0.626116 0.298136 0.025453
C9    C     C_R   0.683932 0.675478 0.245300 -0.173405
C10   C     C_R   0.717467 0.689745 0.166831 -0.171636
C11   C     C_3   0.983706 0.551613 0.244706 -0.242125
C12   C     C_R   0.512957 0.731894 0.735102 0.021747
C13   C     C_3   0.937107 0.525550 0.328474 -0.037073
C14   C     C_R   0.754289 0.626154 0.310026 0.000784
C15   C     C_R   0.265253 0.046596 0.180919 0.023802
C16   C     C_R   0.782552 0.621860 0.625782 0.547806
C17   C     C_R   0.151753 0.017399 0.222658 0.005757
C18   C     C_R   0.175830 0.063545 0.297489 0.045933
C19   C     C_R   0.424082 0.128222 0.303237 -0.130303
C20   C     C_R   0.399786 0.085617 0.225671 -0.127395
C21   C     C_3   0.018118 0.030407 0.201060 -0.263496
C22   C     C_3   0.042141 0.079561 0.284589 -0.057681
C23   C     C_R   0.492681 0.731996 0.814467 -0.137707
C24   C     C_R   0.314357 0.132684 0.336202 0.035388
C25   C     C_R   0.949992 0.725772 0.851893 0.563366
C26   C     C_R   0.316667 0.703839 0.900158 0.545039
C27   C     C_R   0.286130 0.118660 0.858638 0.555339
C28   C     C_R   0.349590 0.222560 0.400949 0.540175
C29   C     C_R   0.880857 0.688213 0.080290 0.551181
C30   C     C_R   0.315873 0.698229 0.122584 0.545165
C31   C     C_R   0.245942 0.035924 0.094618 0.571183
C32   C     C_R   0.400558 0.626006 0.358531 0.546295
C33   C     C_R   0.707778 0.587217 0.388716 0.530400
C34   C     C_3   0.102299 0.471114 0.777632 -0.251044
C35   C     C_R   0.357168 0.647164 0.841644 -0.004949
C36   C     C_R   0.259313 0.530617 0.799327 0.010175
C37   C     C_R   0.283201 0.518985 0.723663 -0.021597
C38   C     C_2   0.638547 0.859783 0.703856 0.596201
C39   C     C_2   0.054258 0.586240 0.395137 0.639060
C40   C     C_2   0.061598 0.229293 0.278330 0.589328
C41   C     C_3   0.127710 0.457182 0.694640 -0.231167
C42   C     C_R   0.401822 0.627282 0.686480 -0.028467
C43   C     C_1   0.854144 0.670608 0.702072 -0.013763
C44   C     C_1   0.902032 0.704757 0.769082 0.006084
C45   C     C_1   0.365054 0.234607 0.714645 -0.029157
Cr1   Cr    Cr6+3 0.608440 0.389080 0.519680 1.044091
Cr2   Cr    Cr6+3 0.288640 0.400090 0.490760 1.095650
Cr3   Cr    Cr6+3 0.602940 0.710800 0.489510 1.049411
Cr4   Cr    Cr6+3 0.052530 0.947560 0.964210 1.037321
Cr5   Cr    Cr6+3 0.059970 0.626800 0.992920 1.016990
Cr6   Cr    Cr6+3 0.373320 0.938440 0.995370 1.021139
H1    H     H_    0.927399 0.454535 0.211037 0.151276
H2    H     H_    0.604931 0.702074 0.255213 0.124682
H3    H     H_    0.658860 0.721053 0.116172 0.137000
H4    H     H_    0.099888 0.612893 0.242538 0.156843
H5    H     H_    0.712957 0.047472 0.633488 0.334984
H6    H     H_    0.233798 0.756327 0.435405 0.359764
H7    H     H_    0.923022 0.927126 0.194947 0.135318
H8    H     H_    0.121472 0.414055 0.208702 0.327377
H9    H     H_    0.063993 0.551178 0.777116 0.146297
H10   H     H_    0.102912 0.528560 0.646466 0.183597
H11   H     H_    0.853962 0.413345 0.342745 0.146402
H12   H     H_    0.531964 0.172683 0.332709 0.140854
H13   H     H_    0.489723 0.097167 0.198650 0.148806
H14   H     H_    0.025062 0.111437 0.149299 0.191610
H15   H     H_    0.961269 0.001251 0.325146 0.132489
H16   H     H_    0.574875 0.817057 0.849206 0.162176
H17   H     H_    0.041291 0.365808 0.811857 0.160150
H18   H     H_    0.081702 0.343772 0.681120 0.169022
O1    O     O_R   0.754020 0.497590 0.609930 -0.505588
O2    O     O_R   0.406180 0.826930 0.920660 -0.518474
O3    O     O_R   0.358620 0.062870 0.901950 -0.486817
O4    O     O_R   0.481420 0.271390 0.600630 -0.466023
O5    O     O_R   0.163910 0.085460 0.050210 -0.507969
O6    O     O_R   0.935200 0.815170 0.045770 -0.520460
O7    O     O_R   0.916120 0.596690 0.069430 -0.514010
O8    O     O_R   0.192310 0.631200 0.086170 -0.501044
O9    O     O_R   0.406770 0.819480 0.096420 -0.524118
O10   O     O_R   0.359170 0.055960 0.064880 -0.503991
O11   O     O_3   0.161940 0.837600 0.984160 -0.300224
O12   O     O_R   0.295080 0.533620 0.397890 -0.434164
O13   O     O_R   0.263810 0.254550 0.589590 -0.497220
O14   O     O_R   0.300820 0.531200 0.560890 -0.473503
O15   O     O_R   0.491480 0.744020 0.564270 -0.457466
O16   O     O_R   0.726290 0.693800 0.583010 -0.493172
O17   O     O_R   0.747830 0.500190 0.434090 -0.499127
O18   O     O_R   0.475680 0.273800 0.437630 -0.517731
O19   O     O_R   0.257620 0.257160 0.413750 -0.480355
O20   O     O_2   0.758490 0.883302 0.733315 -0.528457
O21   O     O_R   0.619294 0.962388 0.647857 -0.649299
O22   O     O_2   0.050397 0.512801 0.458985 -0.472864
O23   O     O_R   0.485280 0.746620 0.388440 -0.504244
O24   O     O_R   0.163663 0.727409 0.385399 -0.693673
O25   O     O_2   0.998359 0.258467 0.320159 -0.523772
O26   O     O_R   0.145117 0.331971 0.221219 -0.710476
O27   O     O_R   0.720550 0.696220 0.420010 -0.502787
O28   O     O_3   0.500010 0.499990 0.499980 -0.352752
O29   O     O_R   0.163320 0.092900 0.874450 -0.499982
O30   O     O_R   0.934650 0.822080 0.882840 -0.452474
O31   O     O_R   0.915520 0.604140 0.893670 -0.518083
O32   O     O_R   0.191760 0.638110 0.923230 -0.510430

loop_
_geom_bond_atom_site_label_1
_geom_bond_atom_site_label_2
_ccdc_geom_bond_type
Cr5   O8    S    
C27   O29   A    
C8    C13   S    
C19   C20   A    
C41   H10   S    
C9    C14   A    
C14   C33   S    
C7    C8    A    
C29   O7    A    
C7    C11   S    
C32   O12   A    
C38   O20   D    
Cr6   O2    S    
C18   C24   A    
C36   C37   A    
Cr1   O18   S    
C26   O32   A    
Cr2   O13   S    
C23   H16   S    
C37   C42   A    
Cr6   O11   S    
C39   O24   S    
C12   C42   A    
C11   H1    S    
Cr4   O29   S    
C30   O8    A    
C25   O30   A    
C22   H15   S    
C13   H11   S    
C35   C36   A    
C19   H12   S    
C4    O15   A    
C28   O19   A    
Cr4   O6    S    
C2    C27   S    
Cr2   O14   S    
C9    C10   A    
H5    O21   S    
H6    O24   S    
C21   C22   S    
C34   H9    S    
C26   O2    A    
C34   C41   S    
H8    O26   S    
C25   C44   S    
C39   O22   D    
C2    C45   T    
C15   C20   A    
C12   C38   S    
Cr1   O1    S    
C16   O1    A    
C34   H17   S    
C31   O5    A    
C1    O13   A    
C17   C21   S    
Cr3   O15   S    
C20   H13   S    
C33   O17   A    
Cr3   O28   S    
Cr5   O7    S    
Cr4   O30   S    
C25   O31   A    
C12   C23   A    
C22   C40   S    
C28   O18   A    
C17   C18   A    
C15   C31   S    
C16   C43   S    
Cr1   O28   S    
C23   C35   A    
C43   C44   T    
C16   O16   A    
C9    H2    S    
Cr6   O3    S    
C40   O26   S    
C33   O27   A    
C11   H4    S    
C41   H18   S    
C5    C30   S    
C15   C17   A    
C8    C14   A    
Cr3   O27   S    
C21   H14   S    
C18   C22   S    
Cr3   O16   S    
C24   C28   S    
C40   O25   D    
C3    C5    T    
Cr5   O11   S    
C6    C10   A    
C31   O10   A    
C6    C7    A    
C29   O6    A    
C38   O21   S    
Cr5   O31   S    
Cr2   O28   S    
Cr4   O11   S    
C1    O4    A    
Cr2   O19   S    
C19   C24   A    
Cr6   O9    S    
C21   H7    S    
C11   C13   S    
C1    C45   S    
C32   O23   A    
C4    O14   A    
C4    C42   S    
C34   C36   S    
Cr2   O12   S    
C37   C41   S    
C3    C32   S    
C10   H3    S    
Cr6   O10   S    
C13   C39   S    
C30   O9    A    
C26   C35   S    
C6    C29   S    
Cr5   O32   S    
Cr3   O23   S    
Cr4   O5    S    
Cr1   O4    S    
C27   O3    A    
Cr1   O17   S    
