data_mof_unit_18188.cif
_audit_creation_date              2012-12-10T17:13:35-0500
_audit_creation_method            fapswitch 2.2
_symmetry_space_group_name_H-M    P1
_symmetry_Int_Tables_number       1
_space_group_crystal_system       triclinic
_cell_length_a                    10.735287
_cell_length_b                    13.005929
_cell_length_c                    11.709398
_cell_angle_alpha                 100.116894
_cell_angle_beta                  94.357832
_cell_angle_gamma                 90.654733
_cell_volume                      1604.30947506

loop_
_atom_site_label
_atom_site_type_symbol
_atom_type_description
_atom_site_fract_x
_atom_site_fract_y
_atom_site_fract_z
_atom_type_partial_charge
C1    C     C_R   0.498511 0.299076 0.478504 0.834873
C2    C     C_3   0.877849 0.518617 0.502449 0.047103
C3    C     C_3   0.940698 0.575257 0.623592 -0.122846
C4    C     C_3   0.921353 0.572562 0.401274 0.007345
C5    C     C_R   0.502437 0.814401 0.534859 -0.088336
C6    C     C_R   0.498335 0.185586 0.466606 -0.063748
C7    C     C_R   0.498043 0.014288 0.346966 -0.201256
C8    C     C_R   0.497377 0.122168 0.356707 -0.154040
C9    C     C_R   0.500036 0.140478 0.566828 -0.267059
C10   C     C_R   0.501093 0.032111 0.558809 0.154185
C11   C     C_R   0.499930 0.968907 0.446987 0.136099
C12   C     C_R   0.260128 0.504785 0.500513 0.791069
C13   C     C_R   0.500613 0.860954 0.436072 -0.278433
C14   C     C_R   0.504167 0.876297 0.645747 -0.148926
C15   C     C_R   0.503376 0.985131 0.659223 0.160115
C16   C     C_R   0.366525 0.420540 0.019862 -0.359629
C17   C     C_R   0.378964 0.424649 0.140946 0.201636
C18   C     C_R   0.561218 0.533078 0.156895 -0.009320
C19   C     C_R   0.550518 0.530018 0.034095 0.075086
C20   C     C_R   0.451873 0.472356 0.965530 0.046733
C21   C     C_R   0.440080 0.467570 0.843415 0.033614
C22   C     C_R   0.619550 0.576762 0.855698 0.081928
C23   C     C_R   0.501848 0.700906 0.521638 0.836693
C24   C     C_R   0.634957 0.583071 0.977595 -0.331023
C25   C     C_R   0.739558 0.509980 0.501322 0.819555
C26   C     C_3   0.065308 0.401181 0.474212 -0.440553
C27   C     C_3   0.923176 0.404108 0.481002 -0.485658
C28   C     C_3   0.084866 0.565385 0.623440 -0.396527
C29   C     C_3   0.067997 0.576493 0.406761 0.008983
C30   C     C_3   0.122393 0.513161 0.501181 0.077976
Cu1   Cu    Cu3+1 0.509350 0.507730 0.615930 0.953790
Cu2   Cu    Cu3+1 0.490650 0.492270 0.384070 0.958856
H1    H     H_    0.106573 0.353640 0.537270 0.181990
H2    H     H_    0.136774 0.640836 0.651704 0.215490
H3    H     H_    0.499713 0.813211 0.350157 0.163520
H4    H     H_    0.505659 0.839707 0.722136 0.168394
H5    H     H_    0.497306 0.966319 0.261266 0.140224
H6    H     H_    0.496608 0.155783 0.278358 0.182288
H7    H     H_    0.500547 0.190526 0.651034 0.171612
H8    H     H_    0.364757 0.421801 0.790776 0.117722
H9    H     H_    0.087027 0.361840 0.386150 0.190953
H10   H     H_    0.685684 0.617560 0.813702 0.167165
H11   H     H_    0.289583 0.376090 0.967645 0.159820
H12   H     H_    0.712397 0.628804 0.026894 0.142623
H13   H     H_    0.636524 0.578335 0.209848 0.129433
H14   H     H_    0.876847 0.359292 0.398591 0.179484
H15   H     H_    0.897267 0.363744 0.552527 0.187264
H16   H     H_    0.116249 0.516332 0.688701 0.164639
H17   H     H_    0.910777 0.532339 0.691666 0.113074
H18   H     H_    0.094057 0.535773 0.320523 0.187719
H19   H     H_    0.889527 0.519466 0.318381 0.153520
N1    N     N_R   0.523430 0.519360 0.790130 -0.184818
N2    N     N_R   0.476570 0.480640 0.209880 -0.218389
O1    O     O_R   0.506640 0.354460 0.582000 -0.599058
O2    O     O_R   0.490840 0.341410 0.386200 -0.542376
O3    O     O_R   0.325590 0.506510 0.597900 -0.600272
O4    O     O_R   0.309790 0.493450 0.402100 -0.583053
O5    O     O_R   0.509160 0.658590 0.613800 -0.562539
O6    O     O_R   0.493360 0.645540 0.418000 -0.607884
O7    O     O_R   0.690210 0.506550 0.597900 -0.576697
O8    O     O_R   0.674410 0.493490 0.402100 -0.605296
C31   C     C_3   0.858246 0.677319 0.389459 -0.845525
H20   H     H_    0.891874 0.742475 0.459246 0.266686
H21   H     H_    0.877539 0.698949 0.304773 0.221460
H22   H     H_    0.755405 0.671389 0.390166 0.236154
C32   C     C_2   0.900205 0.687566 0.660784 0.809467
O9    O     O_2   0.789195 0.706435 0.664255 -0.622328
O10   O     O_R   0.988121 0.769716 0.693670 -0.787254
H23   H     H_    0.948062 0.839837 0.716233 0.336396
C33   C     C_3   0.504880 0.048485 0.780466 -0.887383
H24   H     H_    0.506686 0.998040 0.847892 0.236555
H25   H     H_    0.589364 0.100578 0.798684 0.236213
H26   H     H_    0.419763 0.096103 0.788606 0.234076
C34   C     C_2   0.279003 0.368475 0.186608 0.848989
O11   O     O_2   0.303358 0.298846 0.241481 -0.602294
O12   O     O_R   0.154443 0.387802 0.154657 -0.808381
H27   H     H_    0.093268 0.339538 0.182510 0.315035
C35   C     C_3   0.128091 0.687442 0.421617 -0.843855
H28   H     H_    0.104951 0.737616 0.503362 0.271551
H29   H     H_    0.231238 0.684180 0.422370 0.228122
H30   H     H_    0.096508 0.725479 0.347111 0.241475

loop_
_geom_bond_atom_site_label_1
_geom_bond_atom_site_label_2
_ccdc_geom_bond_type
C23   O5    A    
C32   O10   S    
C19   C20   A    
Cu1   N1    S    
C6    C9    A    
C3    H17   S    
C7    C8    A    
C23   O6    A    
C26   C27   S    
C31   H20   S    
C34   O12   S    
Cu1   O5    S    
C3    C28   S    
Cu2   O8    S    
C13   H3    S    
C10   C15   A    
C14   H4    S    
C35   H29   S    
C4    C31   S    
C9    H7    S    
C18   C19   A    
C31   H21   S    
C18   N2    A    
C29   C35   S    
C16   C17   A    
C2    C27   S    
C25   O7    A    
Cu1   O3    S    
C9    C10   A    
Cu2   O2    S    
C5    C13   A    
C4    C29   S    
C32   O9    D    
C28   H2    S    
C8    H6    S    
Cu2   O4    S    
C7    C11   A    
C29   H18   S    
C34   O11   D    
C4    H19   S    
C1    C6    S    
O12   H27   S    
C35   H28   S    
O10   H23   S    
C6    C8    A    
Cu1   O7    S    
C2    C4    S    
C1    O1    A    
C29   C30   S    
C26   H1    S    
Cu1   Cu2   S    
C5    C23   S    
C16   C20   A    
C33   H26   S    
C7    H5    S    
C25   O8    A    
C16   H11   S    
C5    C14   A    
C33   H24   S    
C12   O4    A    
C27   H14   S    
C26   C30   S    
C17   C34   S    
C24   H12   S    
C22   C24   A    
C3    C32   S    
C18   H13   S    
C17   N2    A    
Cu2   N2    S    
C22   N1    A    
C27   H15   S    
C15   C33   S    
C28   H16   S    
C31   H22   S    
C12   C30   S    
C28   C30   S    
C2    C3    S    
C1    O2    A    
C11   C13   A    
C35   H30   S    
C22   H10   S    
C21   H8    S    
C12   O3    A    
C19   C24   A    
C2    C25   S    
Cu1   O1    S    
C10   C11   A    
C20   C21   A    
C14   C15   A    
C33   H25   S    
Cu2   O6    S    
C21   N1    A    
C26   H9    S    
