data_mof_unit_49621.cif
_audit_creation_date              2012-10-26T20:52:25-0400
_audit_creation_method            fapswitch 2.2
_symmetry_space_group_name_H-M    P1
_symmetry_Int_Tables_number       1
_space_group_crystal_system       triclinic
_cell_length_a                    15.986418
_cell_length_b                    14.75498
_cell_length_c                    10.949571
_cell_angle_alpha                 90.140356
_cell_angle_beta                  89.536875
_cell_angle_gamma                 89.656776
_cell_volume                      2582.63812815

loop_
_atom_site_label
_atom_site_type_symbol
_atom_type_description
_atom_site_fract_x
_atom_site_fract_y
_atom_site_fract_z
_atom_type_partial_charge
C1    C     C_R   0.340950 0.500287 0.501217 0.519925
C2    C     C_1   0.499712 0.197280 0.500518 0.141293
C3    C     C_R   0.501657 0.499710 0.264961 0.566207
C4    C     C_R   0.494423 0.500052 0.734817 0.560136
C5    C     C_2   0.492780 0.428390 0.934995 0.258293
C6    C     C_2   0.475325 0.433186 0.066918 0.263584
C7    C     C_2   0.475219 0.500963 0.864830 0.273568
C8    C     C_2   0.512504 0.498405 0.133489 0.271646
C9    C     C_R   0.954284 0.562720 0.572565 0.212471
C10   C     C_R   0.042015 0.561793 0.578482 0.219769
C11   C     C_R   0.913094 0.499886 0.497755 -0.040705
C12   C     C_R   0.659183 0.499691 0.499227 0.522871
C13   C     C_R   0.087693 0.499677 0.506733 -0.043538
C14   C     C_R   0.958967 0.439801 0.422884 0.233801
C15   C     C_R   0.046611 0.436083 0.433251 0.204158
C16   C     C_1   0.823368 0.498725 0.496863 0.018082
C17   C     C_1   0.177188 0.501309 0.506471 0.014592
C18   C     C_1   0.252094 0.501122 0.504319 -0.024553
C19   C     C_1   0.748305 0.498944 0.497646 -0.020868
C20   C     C_3   0.594363 0.316897 0.925156 0.015553
C21   C     C_3   0.664622 0.360593 0.849949 -0.270532
C22   C     C_3   0.750076 0.323720 0.886613 -0.493140
C23   C     C_R   0.555080 0.951711 0.574966 0.220974
C24   C     C_3   0.351120 0.354665 0.080567 0.010060
C25   C     C_3   0.292911 0.422278 0.146289 -0.277065
C26   C     C_3   0.202428 0.410691 0.106077 -0.473807
C27   C     C_3   0.356436 0.587027 0.876690 -0.152473
C28   C     C_3   0.644143 0.555676 0.112000 -0.150753
C29   C     C_3   0.089774 0.597453 0.767776 0.025038
C30   C     C_3   0.127659 0.673709 0.843738 -0.255700
C31   C     C_3   0.135926 0.647045 0.977644 -0.504566
C32   C     C_3   0.897423 0.704026 0.579206 0.024092
C33   C     C_3   0.841738 0.767692 0.654630 -0.259420
C34   C     C_R   0.441364 0.952537 0.429173 0.222206
C35   C     C_3   0.826549 0.857170 0.588608 -0.465926
C36   C     C_3   0.931786 0.406058 0.221976 0.035992
C37   C     C_3   0.863736 0.471535 0.178145 -0.290996
C38   C     C_3   0.880572 0.501748 0.046974 -0.490207
C39   C     C_3   0.106228 0.295894 0.434876 0.021486
C40   C     C_3   0.165883 0.232677 0.365168 -0.264099
C41   C     C_3   0.185482 0.147359 0.438319 -0.477933
C42   C     C_3   0.576483 0.888127 0.760716 0.005728
C43   C     C_3   0.637519 0.831261 0.835620 -0.258695
C44   C     C_3   0.599848 0.804787 0.958828 -0.464241
C45   C     C_R   0.498568 0.902899 0.501271 0.009321
C46   C     C_3   0.409328 0.892050 0.244467 0.007717
C47   C     C_3   0.338026 0.852279 0.169570 -0.248650
C48   C     C_3   0.366834 0.827063 0.040704 -0.488460
C49   C     C_R   0.441458 0.048579 0.430796 -0.116580
C50   C     C_R   0.556026 0.047702 0.572743 -0.113955
C51   C     C_R   0.499232 0.097194 0.501132 -0.083474
C52   C     C_1   0.499251 0.802669 0.500390 0.186526
Cu1   Cu    Cu3+1 0.500000 0.589220 0.500000 0.989704
Cu2   Cu    Cu3+1 0.500000 0.410780 0.500000 1.000044
H1    H     H_    0.601059 0.083475 0.628073 0.129370
H2    H     H_    0.329338 0.285000 0.101459 0.152529
H3    H     H_    0.346575 0.362305 0.979647 0.133772
H4    H     H_    0.296712 0.411619 0.246529 0.189888
H5    H     H_    0.312911 0.492694 0.126075 0.157475
H6    H     H_    0.197140 0.421356 0.006052 0.120760
H7    H     H_    0.162009 0.461075 0.154055 0.177789
H8    H     H_    0.179987 0.341655 0.128703 0.165764
H9    H     H_    0.320682 0.523140 0.889534 0.081989
H10   H     H_    0.353780 0.608918 0.779771 0.147416
H11   H     H_    0.325020 0.640034 0.932587 0.138930
H12   H     H_    0.396023 0.085101 0.376599 0.127725
H13   H     H_    0.667692 0.485760 0.093708 0.087023
H14   H     H_    0.653165 0.573999 0.209533 0.131958
H15   H     H_    0.682427 0.602681 0.056294 0.136931
H16   H     H_    0.131380 0.536707 0.772708 0.110796
H17   H     H_    0.027245 0.580584 0.807185 0.163729
H18   H     H_    0.190512 0.690684 0.806469 0.163368
H19   H     H_    0.087197 0.735040 0.837457 0.177447
H20   H     H_    0.073587 0.631679 0.017667 0.145342
H21   H     H_    0.163907 0.703845 0.029658 0.147375
H22   H     H_    0.177184 0.586798 0.986267 0.140436
H23   H     H_    0.598078 0.242258 0.912384 0.155772
H24   H     H_    0.866445 0.691191 0.489928 0.118440
H25   H     H_    0.958766 0.737512 0.562721 0.169045
H26   H     H_    0.780718 0.734356 0.672173 0.180382
H27   H     H_    0.871871 0.781554 0.743846 0.164591
H28   H     H_    0.886888 0.891346 0.568994 0.135967
H29   H     H_    0.787681 0.902545 0.647177 0.186537
H30   H     H_    0.793066 0.845142 0.501604 0.166865
H31   H     H_    0.929113 0.343425 0.165657 0.148487
H32   H     H_    0.994662 0.435960 0.204656 0.155246
H33   H     H_    0.802050 0.437461 0.183513 0.160797
H34   H     H_    0.603555 0.329391 0.024546 0.131503
H35   H     H_    0.861657 0.532497 0.237849 0.154517
H36   H     H_    0.939144 0.541698 0.042189 0.141713
H37   H     H_    0.828148 0.544870 0.014782 0.149469
H38   H     H_    0.886791 0.442155 0.985492 0.147271
H39   H     H_    0.045996 0.260138 0.451281 0.159833
H40   H     H_    0.135129 0.312943 0.524388 0.121455
H41   H     H_    0.137136 0.212927 0.276998 0.161345
H42   H     H_    0.225270 0.268823 0.345356 0.175965
H43   H     H_    0.216634 0.165395 0.525312 0.152857
H44   H     H_    0.228160 0.102712 0.384476 0.160253
H45   H     H_    0.654762 0.346496 0.751359 0.200093
H46   H     H_    0.127109 0.109625 0.458666 0.148631
H47   H     H_    0.517076 0.849535 0.751358 0.140465
H48   H     H_    0.563487 0.952817 0.810331 0.126883
H49   H     H_    0.653767 0.768455 0.784297 0.182555
H50   H     H_    0.695744 0.870403 0.850689 0.156746
H51   H     H_    0.578371 0.865882 0.009933 0.130373
H52   H     H_    0.647727 0.769052 0.013919 0.155020
H53   H     H_    0.546320 0.758408 0.945007 0.204860
H54   H     H_    0.462511 0.842878 0.245103 0.144934
H55   H     H_    0.429920 0.956286 0.200183 0.121802
H56   H     H_    0.663576 0.435223 0.863887 0.155822
H57   H     H_    0.313649 0.790622 0.215572 0.186163
H58   H     H_    0.286358 0.902828 0.163981 0.164377
H59   H     H_    0.395747 0.886221 0.994535 0.139633
H60   H     H_    0.312255 0.804770 0.986496 0.139701
H61   H     H_    0.412796 0.770494 0.044472 0.187538
H62   H     H_    0.761488 0.337391 0.984851 0.145740
H63   H     H_    0.799516 0.357192 0.831371 0.154905
H64   H     H_    0.753574 0.249516 0.869826 0.147926
N1    N     N_1   0.500000 0.276710 0.500000 -0.179103
N2    N     N_1   0.500000 0.723290 0.500000 -0.191156
O1    O     O_R   0.380310 0.575320 0.500020 -0.493999
O2    O     O_3   0.433892 0.362109 0.124173 -0.573163
O3    O     O_3   0.439886 0.578573 0.916214 -0.569302
O4    O     O_3   0.559773 0.565604 0.077701 -0.567771
O5    O     O_3   0.083064 0.627091 0.645750 -0.555462
O6    O     O_3   0.908637 0.622552 0.644543 -0.563607
O7    O     O_3   0.917416 0.381122 0.345402 -0.554105
O8    O     O_3   0.092449 0.374423 0.364279 -0.579302
O9    O     O_3   0.612843 0.905916 0.645301 -0.584738
O10   O     O_3   0.380109 0.907917 0.364641 -0.569975
O11   O     O_R   0.619690 0.575320 0.499980 -0.499152
O12   O     O_R   0.380310 0.424640 0.499970 -0.499786
O13   O     O_R   0.619690 0.424640 0.500030 -0.500462
O14   O     O_R   0.500000 0.575320 0.321940 -0.490316
O15   O     O_R   0.500000 0.575320 0.678060 -0.490031
O16   O     O_R   0.500000 0.424640 0.321880 -0.473683
O17   O     O_R   0.500000 0.424640 0.678120 -0.476519
O18   O     O_3   0.515212 0.345704 0.882708 -0.573157

loop_
_geom_bond_atom_site_label_1
_geom_bond_atom_site_label_2
_ccdc_geom_bond_type
C22   H63   S    
C23   C45   A    
C12   O11   A    
C29   O5    S    
C48   H61   S    
C28   H15   S    
Cu1   O15   S    
C1    O12   A    
C21   H56   S    
Cu1   N2    S    
C5    O18   S    
C44   H51   S    
C1    C18   S    
C29   C30   S    
C20   H23   S    
C36   C37   S    
C28   H14   S    
C26   H7    S    
C30   C31   S    
C21   H45   S    
C11   C14   A    
Cu2   O17   S    
C20   O18   S    
C47   H58   S    
C38   H38   S    
C23   O9    S    
C3    O16   A    
C32   O6    S    
C43   H50   S    
C39   H39   S    
C4    O17   A    
C24   H3    S    
C49   C51   A    
C46   H54   S    
Cu1   O11   S    
C10   O5    S    
C9    C10   A    
C22   H62   S    
C21   C22   S    
C40   H42   S    
C4    C7    S    
C42   H48   S    
C35   H28   S    
C17   C18   T    
C43   H49   S    
C49   H12   S    
C28   H13   S    
C24   C25   S    
C3    C8    S    
C27   H10   S    
C39   C40   S    
C5    C7    D    
C30   H19   S    
C35   H29   S    
C8    O4    S    
C31   H20   S    
C6    C8    D    
C45   C52   S    
C36   H32   S    
C25   C26   S    
Cu1   Cu2   S    
Cu2   O13   S    
C38   H37   S    
C14   O7    S    
C43   C44   S    
C39   H40   S    
C37   C38   S    
C27   H11   S    
C11   C16   S    
C31   H21   S    
C47   C48   S    
C35   H30   S    
Cu2   O16   S    
C24   O2    S    
C50   C51   A    
C41   H46   S    
C34   C45   A    
C9    C11   A    
C27   H9    S    
C4    O15   A    
C52   N2    T    
C40   C41   S    
C15   O8    S    
C13   C15   A    
C41   H43   S    
C36   O7    S    
C25   H4    S    
C6    O2    S    
C40   H41   S    
C42   H47   S    
C48   H60   S    
C29   H16   S    
C44   H53   S    
C22   H64   S    
C46   C47   S    
C34   C49   A    
C27   O3    S    
C39   O8    S    
C14   C15   A    
C37   H33   S    
Cu1   O14   S    
C50   H1    S    
C7    O3    S    
C23   C50   A    
C10   C13   A    
C46   O10   S    
C30   H18   S    
C2    N1    T    
C28   O4    S    
C33   H26   S    
C44   H52   S    
C36   H31   S    
C24   H2    S    
Cu2   O12   S    
C38   H36   S    
C9    O6    S    
C37   H35   S    
C12   O13   A    
C3    O14   A    
C32   C33   S    
C26   H8    S    
Cu1   O1    S    
C32   H25   S    
C31   H22   S    
C5    C6    S    
C33   H27   S    
C16   C19   T    
C47   H57   S    
C20   H34   S    
C12   C19   S    
C33   C35   S    
C42   O9    S    
C1    O1    A    
C2    C51   S    
C32   H24   S    
C13   C17   S    
C20   C21   S    
C34   O10   S    
C42   C43   S    
C46   H55   S    
C41   H44   S    
C25   H5    S    
Cu2   N1    S    
C26   H6    S    
C48   H59   S    
C29   H17   S    
