data_mof_unit_8041.cif
_audit_creation_date              2013-03-05T16:33:13-0500
_audit_creation_method            fapswitch 2.2
_symmetry_space_group_name_H-M    P1
_symmetry_Int_Tables_number       1
_space_group_crystal_system       triclinic
_cell_length_a                    27.806353
_cell_length_b                    10.825738
_cell_length_c                    9.576293
_cell_angle_alpha                 90.300031
_cell_angle_beta                  89.151532
_cell_angle_gamma                 91.043226
_cell_volume                      2881.86741039

loop_
_atom_site_label
_atom_site_type_symbol
_atom_site_description
_atom_site_fract_x
_atom_site_fract_y
_atom_site_fract_z
_atom_type_partial_charge
O1    O     O_R   0.500000 0.319640 0.618810 -0.517310
O2    O     O_R   0.500010 0.319680 0.381230 -0.575304
C1    C     C_R   0.498835 0.262531 0.499800 0.899678
O3    O     O_R   0.430260 0.500000 0.618780 -0.538995
O4    O     O_R   0.430270 0.500040 0.381190 -0.598600
C2    C     C_R   0.407505 0.500820 0.500821 0.841983
Cu1   Cu    Cu3+1 0.500000 0.499980 0.640670 1.067147
Cu2   Cu    Cu3+1 0.500000 0.500020 0.359330 1.038090
O5    O     O_R   0.499990 0.680320 0.618770 -0.570774
O6    O     O_R   0.500000 0.680360 0.381190 -0.541119
O7    O     O_R   0.569730 0.499960 0.618810 -0.580402
O8    O     O_R   0.569740 0.500000 0.381220 -0.557434
C3    C     C_R   0.497017 0.737451 0.500144 0.825396
C4    C     C_R   0.592358 0.498436 0.498839 0.852136
C5    C     C_R   0.177229 0.400575 0.513996 0.598951
O9    O     O_2   0.201239 0.293722 0.523415 -0.470621
N1    N     N_R   0.202163 0.509876 0.505048 -0.467151
C6    C     C_R   0.179369 0.620211 0.495272 0.647574
C7    C     C_R   0.278913 0.490112 0.379461 -0.123739
C8    C     C_R   0.329005 0.487621 0.377933 -0.162297
C9    C     C_R   0.329045 0.522841 0.628354 -0.175060
C10   C     C_R   0.278861 0.525064 0.630082 0.434742
C11   C     C_R   0.253692 0.508583 0.505139 0.244690
C12   C     C_R   0.102072 0.511021 0.503854 -0.092226
C13   C     C_R   0.126895 0.398936 0.513690 -0.020058
C14   C     C_R   0.101171 0.287210 0.522087 -0.092589
C15   C     C_R   0.128486 0.624077 0.495078 -0.121778
C16   C     C_R   0.354548 0.503460 0.502523 -0.105980
H1    H     H_    0.347938 0.537143 0.725279 0.223470
H2    H     H_    0.119533 0.199955 0.527408 0.225166
C17   C     C_R   0.645158 0.497499 0.495805 -0.105938
C18   C     C_R   0.973898 0.394989 0.523482 0.043442
C19   C     C_R   0.974987 0.619000 0.477228 0.067237
C20   C     C_R   0.949174 0.506306 0.499580 0.075544
C21   C     C_R   0.946413 0.286831 0.553961 -0.198573
C22   C     C_R   0.896459 0.287108 0.554872 -0.131530
C23   C     C_R   0.871854 0.395021 0.525669 -0.028272
C24   C     C_R   0.898047 0.504910 0.497989 -0.046289
C25   C     C_R   0.873001 0.613398 0.468732 -0.025314
C26   C     C_R   0.822510 0.609909 0.467061 0.549308
N2    N     N_R   0.797770 0.502301 0.495529 -0.460868
C27   C     C_R   0.821374 0.395894 0.524921 0.554964
C28   C     C_R   0.721167 0.429051 0.397047 -0.121739
C29   C     C_R   0.670928 0.426491 0.396789 0.348789
C30   C     C_R   0.670436 0.569935 0.593033 -0.257815
C31   C     C_R   0.720526 0.571456 0.593005 -0.069879
C32   C     C_R   0.746120 0.501082 0.495060 0.271974
O10   O     O_2   0.796054 0.291491 0.554523 -0.503413
C33   C     C_R   0.025004 0.395447 0.517200 0.053307
C34   C     C_R   0.050860 0.509392 0.502727 0.077508
C35   C     C_R   0.025983 0.621459 0.487078 -0.018537
C36   C     C_R   0.051322 0.285211 0.523616 -0.189224
H3    H     H_    0.740985 0.374496 0.321364 0.183428
O11   O     O_2   0.206251 0.724684 0.485187 -0.413343
C37   C     C_R   0.102984 0.735634 0.487465 0.430958
H4    H     H_    0.347658 0.472817 0.279337 0.186809
H5    H     H_    0.259577 0.477496 0.282923 0.185478
C38   C     C_R   0.948686 0.725491 0.444195 -0.196498
C39   C     C_R   0.898759 0.722534 0.440417 -0.137030
O12   O     O_2   0.798321 0.713012 0.436254 -0.518586
C40   C     C_R   0.052965 0.733063 0.483808 -0.238485
H6    H     H_    0.651412 0.627403 0.667280 0.161038
H7    H     H_    0.739519 0.627531 0.669035 0.166024
C41   C     C_R   0.496132 0.064218 0.624178 0.024588
C42   C     C_R   0.492792 0.129705 0.500239 -0.160303
C43   C     C_R   0.478546 0.065203 0.379599 -0.174912
H8    H     H_    0.470612 0.114499 0.284721 0.220217
C44   C     C_R   0.475894 0.935803 0.379516 0.401540
C45   C     C_R   0.489200 0.870337 0.500710 -0.200250
C46   C     C_R   0.493627 0.937703 0.624714 -0.020349
C47   C     C_3   0.526067 0.928002 0.746436 0.138530
C48   C     C_3   0.530831 0.069339 0.742102 0.607203
H9    H     H_    0.559749 0.878584 0.720588 0.101513
C49   C     C_R   0.541382 0.522090 0.071746 0.301282
N3    N     N_R   0.500300 0.500930 0.147930 -0.215325
C50   C     C_R   0.461542 0.456402 0.077122 -0.036041
H10   H     H_    0.430671 0.420253 0.134532 0.168163
C51   C     C_R   0.461827 0.452696 0.929106 0.486618
N4    N     N_R   0.500310 0.500890 0.852020 -0.218561
C52   C     C_R   0.541691 0.519780 0.925373 0.256630
C53   C     C_3   0.576876 0.624868 0.917760 -0.474080
C54   C     C_3   0.574549 0.631385 0.076790 -0.423608
H11   H     H_    0.609283 0.609779 0.126329 0.216456
H12   H     H_    0.556621 0.715444 0.117616 0.256225
Cl1   Cl    Cl    0.130484 0.884127 0.483890 -0.498144
H13   H     H_    0.965600 0.812543 0.417052 0.146365
H14   H     H_    0.880399 0.806747 0.414987 0.193042
H15   H     H_    0.036028 0.821699 0.482299 0.167838
Cl2   Cl    Cl    0.455132 0.862644 0.226687 -0.463360
Cl3   Cl    Cl    0.492337 0.867084 0.891725 -0.460576
Cl4   Cl    Cl    0.248116 0.548097 0.789675 -0.509529
Cl5   Cl    Cl    0.508393 0.151636 0.891197 -0.436675
Cl6   Cl    Cl    0.589628 0.122374 0.689656 -0.551164
Cl7   Cl    Cl    0.414539 0.366964 0.854311 -0.528159
H16   H     H_    0.612498 0.594413 0.878506 0.203341
H17   H     H_    0.562951 0.706259 0.864396 0.241845
Cl8   Cl    Cl    0.642003 0.328917 0.274969 -0.531537
H18   H     H_    0.877164 0.201767 0.578700 0.193012
H19   H     H_    0.962343 0.200412 0.580962 0.144613
H20   H     H_    0.034525 0.194837 0.526629 0.151491

loop_
_geom_bond_atom_site_label_1
_geom_bond_atom_site_label_2
_geom_bond_distance
_ccdc_geom_bond_type
C43   C44   1.401444 A    
C19   C38   1.416107 A    
C26   O12   1.349774 S    
N2    C27   1.368697 A    
C21   C22   1.388981 A    
C35   C40   1.410790 A    
C12   C15   1.418093 A    
C4    C17   1.468274 S    
C8    H4    1.083119 S    
C53   C54   1.524651 S    
Cu1   Cu2   2.694196 S    
C30   C31   1.392594 A    
C7    H5    1.083113 S    
Cu1   O7    1.947124 S    
N1    C11   1.433156 S    
C22   C23   1.396167 A    
C50   C51   1.417707 A    
C24   C25   1.407798 A    
C48   Cl5   1.789452 S    
O7    C4    1.301864 A    
C15   C37   1.414323 A    
C5    C13   1.399427 A    
C5    O9    1.350171 S    
C30   H6    1.081044 S    
C5    N1    1.362946 A    
C23   C27   1.404001 A    
C33   C34   1.422773 A    
O5    C3    1.300707 A    
O1    Cu1   1.962414 S    
C28   H3    1.083197 S    
C2    C16   1.473194 S    
C7    C8    1.393478 A    
C44   C45   1.420219 A    
C10   Cl4   1.758945 S    
C46   C47   1.489725 S    
C41   C46   1.370154 A    
C43   H8    1.083637 S    
C49   C52   1.401705 A    
C9    C10   1.395914 A    
C1    C42   1.444702 S    
C49   C54   1.487897 S    
O3    Cu1   1.953603 S    
C21   H19   1.076725 S    
C38   H13   1.076889 S    
N1    C6    1.366645 A    
C12   C34   1.424001 A    
C17   C29   1.412710 A    
C18   C21   1.415864 A    
C12   C13   1.411125 A    
O3    C2    1.303042 A    
C49   N3    1.362794 A    
C25   C26   1.404111 A    
C47   H9    1.111163 S    
C53   H17   1.100205 S    
C51   N4    1.386540 A    
C8    C16   1.405655 A    
C34   C35   1.417177 A    
C38   C39   1.389063 A    
C9    H1    1.082341 S    
C36   H20   1.076765 S    
Cu2   N3    2.024398 S    
O1    C1    1.294266 A    
C18   C20   1.419501 A    
C37   Cl1   1.767800 S    
C7    C11   1.399250 A    
N3    C50   1.361223 A    
C23   C24   1.407821 A    
C40   H15   1.076824 S    
C14   C36   1.385764 A    
C29   Cl8   1.762823 S    
Cu2   O8    1.953597 S    
C33   C36   1.413278 A    
C25   C39   1.396139 A    
C19   C20   1.419756 A    
N2    C32   1.436117 S    
C27   O10   1.349802 S    
C50   H10   1.080902 S    
C48   Cl6   1.788686 S    
C26   N2    1.368657 A    
C9    C16   1.405840 A    
O8    C4    1.298485 A    
C14   H2    1.083691 S    
C54   H12   1.111980 S    
C28   C29   1.396775 A    
Cu1   N4    2.024068 S    
Cu1   O5    1.964642 S    
C31   C32   1.399693 A    
C20   C24   1.421784 A    
O2    Cu2   1.964644 S    
C6    C15   1.416274 A    
C52   C53   1.488281 S    
O6    C3    1.295456 A    
O4    Cu2   1.947127 S    
C19   C35   1.422285 A    
C31   H7    1.082876 S    
C41   C42   1.390826 A    
O2    C1    1.295616 A    
C13   C14   1.396013 A    
C47   C48   1.534122 S    
C42   C43   1.405074 A    
O4    C2    1.300713 A    
C47   Cl3   1.788529 S    
C3    C45   1.458799 S    
C51   Cl7   1.754971 S    
C53   H16   1.109369 S    
C37   C40   1.391579 A    
C41   C48   1.496320 S    
C45   C46   1.396127 A    
C39   H14   1.083530 S    
C18   C33   1.421371 A    
C6    O11   1.347372 S    
N4    C52   1.368629 A    
Cu2   O6    1.962413 S    
C54   H11   1.111547 S    
C17   C30   1.402701 A    
C10   C11   1.404019 A    
C22   H18   1.083528 S    
C44   Cl2   1.760320 S    
C28   C32   1.400851 A    
