data_mof_unit_44328.cif
_audit_creation_date              2012-12-10T17:00:03-0500
_audit_creation_method            fapswitch 2.2
_symmetry_space_group_name_H-M    P1
_symmetry_Int_Tables_number       1
_space_group_crystal_system       triclinic
_cell_length_a                    15.157201
_cell_length_b                    15.094635
_cell_length_c                    10.071614
_cell_angle_alpha                 88.650557
_cell_angle_beta                  89.921221
_cell_angle_gamma                 89.689868
_cell_volume                      2303.63428777

loop_
_atom_site_label
_atom_site_type_symbol
_atom_type_description
_atom_site_fract_x
_atom_site_fract_y
_atom_site_fract_z
_atom_type_partial_charge
C1    C     C_R   0.379302 0.883304 0.500805 0.922825
C2    C     C_2   0.713077 0.221410 0.394860 -0.202963
C3    C     C_2   0.197588 0.265402 0.393072 -0.200281
C4    C     C_2   0.213077 0.721410 0.394860 -0.202964
C5    C     C_2   0.654849 0.789377 0.503780 -0.036614
C6    C     C_2   0.704962 0.160297 0.493057 -0.029667
C7    C     C_2   0.154849 0.289377 0.503780 -0.036614
C8    C     C_2   0.204962 0.660297 0.493057 -0.029667
C9    C     C_2   0.262776 0.195834 0.394107 -0.180622
C10   C     C_2   0.284002 0.783887 0.390371 -0.172999
C11   C     C_2   0.762776 0.695834 0.394107 -0.180622
C12   C     C_R   0.382987 0.120571 0.498672 0.938862
C13   C     C_2   0.784002 0.283887 0.390371 -0.172999
C14   C     C_2   0.320058 0.190600 0.494212 -0.363666
C15   C     C_2   0.307644 0.822751 0.502112 -0.376070
C16   C     C_2   0.820058 0.690600 0.494212 -0.363666
C17   C     C_2   0.807644 0.322750 0.502112 -0.376070
C18   C     C_2   0.482967 0.066958 0.926353 -0.072034
C19   C     C_2   0.982967 0.566958 0.926353 -0.072034
C20   C     C_2   0.464474 0.059654 0.072609 -0.174000
C21   C     C_2   0.964474 0.559654 0.072609 -0.174000
C22   C     C_3   0.643247 0.729473 0.627224 -0.397565
C23   C     C_R   0.879302 0.383304 0.500805 0.922825
C24   C     C_3   0.546290 0.703487 0.647620 -0.354730
C25   C     C_3   0.533098 0.655528 0.781219 -0.922052
C26   C     C_3   0.780083 0.128108 0.583727 -0.423606
C27   C     C_3   0.796044 0.027975 0.570197 -0.338105
C28   C     C_3   0.876150 0.995640 0.649189 -0.907778
C29   C     C_3   0.143247 0.229473 0.627224 -0.397565
C30   C     C_3   0.046290 0.203487 0.647620 -0.354729
C31   C     C_3   0.033099 0.155528 0.781219 -0.922052
C32   C     C_3   0.280083 0.628108 0.583727 -0.423606
C33   C     C_3   0.296044 0.527975 0.570196 -0.338104
C34   C     C_R   0.882987 0.620571 0.498672 0.938862
C35   C     C_3   0.376150 0.495640 0.649188 -0.907778
C36   C     C_3   0.477401 0.909571 0.893985 -0.151951
C37   C     C_3   0.377411 0.898978 0.917681 -0.327708
C38   C     C_3   0.350185 0.801786 0.916045 -0.949312
C39   C     C_3   0.977401 0.409571 0.893985 -0.151951
C40   C     C_3   0.877411 0.398978 0.917681 -0.327709
C41   C     C_3   0.850185 0.301786 0.916044 -0.949314
C42   C     C_R   0.622528 0.114335 0.498841 0.894582
C43   C     C_R   0.611879 0.875009 0.501184 0.868018
C44   C     C_R   0.122527 0.614336 0.498841 0.894582
C45   C     C_R   0.111879 0.375009 0.501184 0.868018
C46   C     C_2   0.697588 0.765402 0.393072 -0.200281
H1    H     H_    0.420539 0.107737 0.116576 0.159888
H2    H     H_    0.502742 0.762531 0.644077 0.230730
H3    H     H_    0.525669 0.659579 0.566397 0.219328
H4    H     H_    0.680350 0.666293 0.621522 0.225146
H5    H     H_    0.667989 0.764961 0.715110 0.200918
H6    H     H_    0.937041 0.027046 0.609645 0.271251
H7    H     H_    0.868068 0.011043 0.755804 0.265097
H8    H     H_    0.882914 0.922716 0.640292 0.249190
H9    H     H_    0.737954 0.991062 0.607977 0.240421
H10   H     H_    0.805949 0.012134 0.463911 0.222183
H11   H     H_    0.843246 0.161480 0.559442 0.228316
H12   H     H_    0.920539 0.607737 0.116576 0.159888
H13   H     H_    0.762969 0.142646 0.688361 0.203099
H14   H     H_    0.071431 0.092597 0.784811 0.268085
H15   H     H_    0.054440 0.198115 0.863583 0.261457
H16   H     H_    0.962207 0.140217 0.795501 0.259559
H17   H     H_    0.002742 0.262531 0.644077 0.230729
H18   H     H_    0.025669 0.159579 0.566397 0.219328
H19   H     H_    0.180350 0.166293 0.621523 0.225146
H20   H     H_    0.167989 0.264961 0.715110 0.200917
H21   H     H_    0.437041 0.527046 0.609645 0.271251
H22   H     H_    0.368067 0.511043 0.755804 0.265097
H23   H     H_    0.693523 0.804656 0.301428 0.160623
H24   H     H_    0.382914 0.422716 0.640291 0.249190
H25   H     H_    0.237954 0.491062 0.607975 0.240421
H26   H     H_    0.305949 0.512134 0.463910 0.222183
H27   H     H_    0.343246 0.661480 0.559442 0.228316
H28   H     H_    0.262969 0.642645 0.688360 0.203099
H29   H     H_    0.267029 0.152911 0.309153 0.172385
H30   H     H_    0.312466 0.801490 0.294300 0.188208
H31   H     H_    0.767029 0.652911 0.309153 0.172385
H32   H     H_    0.812466 0.301490 0.294300 0.188208
H33   H     H_    0.318091 0.236086 0.576331 0.151220
H34   H     H_    0.661335 0.232015 0.321340 0.157206
H35   H     H_    0.274596 0.808474 0.596072 0.165829
H36   H     H_    0.818091 0.736086 0.576331 0.151220
H37   H     H_    0.774596 0.308474 0.596072 0.165830
H38   H     H_    0.477124 0.132050 0.879191 0.136751
H39   H     H_    0.977124 0.632050 0.879191 0.136751
H40   H     H_    0.362588 0.774054 0.816566 0.267617
H41   H     H_    0.387675 0.762675 0.992079 0.266792
H42   H     H_    0.278648 0.796168 0.938369 0.254996
H43   H     H_    0.358840 0.925709 0.015552 0.218094
H44   H     H_    0.339643 0.936455 0.840193 0.240035
H45   H     H_    0.193523 0.304656 0.301428 0.160623
H46   H     H_    0.497156 0.865510 0.813085 0.220321
H47   H     H_    0.516087 0.882668 0.978257 0.114379
H48   H     H_    0.862589 0.274054 0.816566 0.267618
H49   H     H_    0.887674 0.262675 0.992079 0.266792
H50   H     H_    0.778648 0.296168 0.938367 0.254997
H51   H     H_    0.858840 0.425708 0.015552 0.218095
H52   H     H_    0.839643 0.436454 0.840192 0.240035
H53   H     H_    0.997156 0.365510 0.813085 0.220321
H54   H     H_    0.016087 0.382668 0.978257 0.114379
H55   H     H_    0.558830 0.973534 0.111207 0.179952
H56   H     H_    0.161335 0.732016 0.321341 0.157206
H57   H     H_    0.058831 0.473534 0.111207 0.179952
H58   H     H_    0.571431 0.592597 0.784811 0.268085
H59   H     H_    0.554439 0.698115 0.863583 0.261456
H60   H     H_    0.462206 0.640217 0.795501 0.259559
N1    N     N_2   0.501330 0.000000 0.852150 -0.102662
N2    N     N_2   0.001330 0.500000 0.852150 -0.102662
N3    N     N_2   0.501360 0.000000 0.147810 -0.196706
N4    N     N_2   0.001360 0.500000 0.147810 -0.196706
O1    O     O_R   0.409520 0.909540 0.613040 -0.640582
O2    O     O_R   0.590440 0.909540 0.613100 -0.640413
O3    O     O_R   0.090440 0.590460 0.613100 -0.614266
O4    O     O_R   0.090440 0.409540 0.613100 -0.640413
O5    O     O_R   0.590480 0.090460 0.386960 -0.617524
O6    O     O_R   0.590480 0.909540 0.386960 -0.627898
O7    O     O_R   0.090480 0.590460 0.386960 -0.617523
O8    O     O_R   0.090480 0.409540 0.386960 -0.627898
O9    O     O_R   0.409520 0.090460 0.613040 -0.622571
O10   O     O_R   0.909520 0.409540 0.613040 -0.640582
O11   O     O_R   0.909520 0.590460 0.613040 -0.622571
O12   O     O_R   0.409560 0.909540 0.386900 -0.602290
O13   O     O_R   0.409560 0.090460 0.386900 -0.611983
O14   O     O_R   0.909560 0.409540 0.386900 -0.602290
O15   O     O_R   0.909560 0.590460 0.386900 -0.611983
O16   O     O_R   0.590440 0.090460 0.613100 -0.614266
Zn1   Zn    Zn3+2 0.499970 0.000000 0.650990 0.911255
Zn2   Zn    Zn3+2 0.999970 0.500000 0.650990 0.911255
Zn3   Zn    Zn3+2 0.500030 0.000000 0.349010 0.923999
Zn4   Zn    Zn3+2 0.000030 0.500000 0.349010 0.923999

loop_
_geom_bond_atom_site_label_1
_geom_bond_atom_site_label_2
_ccdc_geom_bond_type
C45   O8    A    
O16   Zn1   S    
C7    C29   S    
C30   H18   S    
C31   H15   S    
C4    C8    D    
C21   N4    D    
C25   H59   S    
C15   H35   S    
O3    Zn2   S    
C6    C26   S    
C26   C27   S    
C17   C23   S    
C37   H44   S    
C38   H40   S    
H57   N4    S    
C3    C9    S    
C7    C45   S    
C36   C37   S    
C19   C21   S    
C37   C38   S    
C3    C7    D    
C10   C15   D    
C40   H52   S    
C30   C31   S    
C27   H9    S    
C41   H50   S    
H55   N3    S    
C35   H22   S    
C3    H45   S    
C2    C13   S    
C18   N1    D    
C46   H23   S    
C11   H31   S    
C33   H26   S    
C16   C34   S    
C1    O12   A    
C10   H30   S    
C36   H47   S    
O6    Zn3   S    
C35   H24   S    
O2    Zn1   S    
C4    H56   S    
C18   H38   S    
C1    C15   S    
C26   H13   S    
O12   Zn3   S    
C22   H4    S    
C19   N2    D    
C36   H46   S    
C5    C43   S    
C30   H17   S    
O13   Zn3   S    
C36   N1    S    
C31   H16   S    
C2    C6    D    
C45   O4    A    
C25   H60   S    
C39   N2    S    
C5    C22   S    
C24   H2    S    
C24   C25   S    
O11   Zn2   S    
C32   H27   S    
C28   H8    S    
C27   H10   S    
C20   N3    D    
C38   H42   S    
C17   H37   S    
C8    C32   S    
C31   H14   S    
C9    C14   D    
C29   C30   S    
O8    Zn4   S    
C43   O6    A    
C12   O9    A    
O4    Zn2   S    
C11   C16   D    
C39   H53   S    
C41   H48   S    
C35   H21   S    
C16   H36   S    
O14   Zn4   S    
C14   H33   S    
N2    Zn2   S    
O7    Zn4   S    
C29   H19   S    
C40   C41   S    
C12   C14   S    
C44   O3    A    
C34   O11   A    
N3    Zn3   S    
C22   C24   S    
C43   O2    A    
C42   O16   A    
C4    C10   S    
C23   O10   A    
O5    Zn3   S    
C24   H3    S    
C13   H32   S    
C8    C44   S    
C19   H39   S    
C28   H7    S    
O10   Zn2   S    
C25   H58   S    
C23   O14   A    
C37   H43   S    
C5    C46   D    
O1    Zn1   S    
C13   C17   D    
C38   H41   S    
C32   C33   S    
N1    Zn1   S    
C21   H12   S    
C40   H51   S    
C1    O1    A    
C32   H28   S    
C28   H6    S    
C39   H54   S    
C41   H49   S    
C12   O13   A    
C44   O7    A    
C34   O15   A    
C33   C35   S    
N4    Zn4   S    
C18   C20   S    
C26   H11   S    
C20   H1    S    
C2    H34   S    
O15   Zn4   S    
C33   H25   S    
C29   H20   S    
C39   C40   S    
C42   O5    A    
C6    C42   S    
C27   C28   S    
C11   C46   S    
C9    H29   S    
C22   H5    S    
O9    Zn1   S    
