data_mof_unit_15406.cif
_audit_creation_date              2012-12-10T20:46:51-0500
_audit_creation_method            fapswitch 2.2
_symmetry_space_group_name_H-M    P1
_symmetry_Int_Tables_number       1
_space_group_crystal_system       triclinic
_cell_length_a                    12.844844
_cell_length_b                    8.922067
_cell_length_c                    8.122463
_cell_angle_alpha                 90.064386
_cell_angle_beta                  97.728671
_cell_angle_gamma                 89.763847
_cell_volume                      922.391195505

loop_
_atom_site_label
_atom_site_type_symbol
_atom_type_description
_atom_site_fract_x
_atom_site_fract_y
_atom_site_fract_z
_atom_type_partial_charge
Br1   Br    Br    0.777181 0.196164 0.706453 -0.496433
Br2   Br    Br    0.222822 0.803840 0.293554 -0.496435
C1    C     C_R   0.499485 0.218071 0.499824 0.949642
C2    C     C_R   0.859275 0.349836 0.616753 0.231873
C3    C     C_R   0.128816 0.402403 0.506674 0.005255
C4    C     C_R   0.871183 0.597599 0.493326 0.005259
C5    C     C_R   0.023686 0.429710 0.528423 0.027283
C6    C     C_R   0.976315 0.570293 0.471580 0.027282
C7    C     C_1   0.499791 0.065226 0.499860 -0.132819
C8    C     C_1   0.500209 0.934774 0.500140 -0.132818
C9    C     C_R   0.500515 0.781929 0.500176 0.949643
C10   C     C_R   0.298092 0.502795 0.466863 0.921426
C11   C     C_R   0.701908 0.497205 0.533137 0.921425
C12   C     C_R   0.813458 0.483608 0.554998 -0.174475
C13   C     C_R   0.186542 0.516393 0.445002 -0.174474
C14   C     C_R   0.035418 0.676911 0.391923 0.085738
C15   C     C_R   0.964583 0.323094 0.608083 0.085740
C16   C     C_R   0.140727 0.650168 0.383252 0.231874
H1    H     H_    0.761376 0.731604 0.359490 0.207975
H2    H     H_    0.792027 0.780229 0.563051 0.209575
H3    H     H_    0.207969 0.219773 0.436942 0.209577
H4    H     H_    0.238623 0.268393 0.640504 0.207972
H5    H     H_    0.972732 0.886593 0.408595 0.227166
H6    H     H_    0.927613 0.788926 0.228267 0.223372
H7    H     H_    0.072391 0.211086 0.771741 0.223370
H8    H     H_    0.027271 0.113410 0.591420 0.227167
N1    N     N_1   0.500020 0.500000 0.073640 -0.015113
N2    N     N_1   0.499980 0.500000 0.926360 -0.015113
N3    N     N_3   0.822492 0.741522 0.457618 -0.471267
N4    N     N_3   0.177505 0.258479 0.542377 -0.471267
N5    N     N_3   0.992034 0.813068 0.317116 -0.393332
N6    N     N_3   0.007969 0.186940 0.682896 -0.393332
O1    O     O_R   0.499990 0.285340 0.636850 -0.604335
O2    O     O_R   0.500010 0.714660 0.363150 -0.604335
O3    O     O_R   0.500010 0.285340 0.363150 -0.615444
O4    O     O_R   0.499990 0.714660 0.636850 -0.615444
O5    O     O_R   0.346350 0.500000 0.614250 -0.625063
O6    O     O_R   0.653650 0.500000 0.385750 -0.625064
O7    O     O_R   0.346360 0.500000 0.340500 -0.591753
O8    O     O_R   0.653640 0.500000 0.659500 -0.591753
Zn1   Zn    Zn3+2 0.499990 0.500000 0.682780 1.030729
Zn2   Zn    Zn3+2 0.500010 0.500000 0.317220 1.030728

loop_
_geom_bond_atom_site_label_1
_geom_bond_atom_site_label_2
_ccdc_geom_bond_type
C13   C16   A    
H8    N6    S    
C1    C7    S    
C4    C12   A    
H3    N4    S    
O2    Zn2   S    
C10   C13   S    
C1    O3    A    
Br1   C2    S    
O1    Zn1   S    
C10   O7    A    
C11   O6    A    
H6    N5    S    
C5    C6    A    
C6    C14   A    
C11   C12   S    
C14   N5    S    
C2    C12   A    
N1    Zn2   S    
O4    Zn1   S    
H7    N6    S    
C2    C15   A    
C9    O4    A    
O3    Zn2   S    
O6    Zn2   S    
O7    Zn2   S    
H2    N3    S    
O5    Zn1   S    
C3    C13   A    
Br2   C16   S    
C8    C9    S    
C1    O1    A    
H1    N3    S    
N2    Zn1   S    
C10   O5    A    
C4    N3    S    
C14   C16   A    
C3    N4    S    
C7    C8    T    
N1    N2    T    
C3    C5    A    
C15   N6    S    
O8    Zn1   S    
C11   O8    A    
C4    C6    A    
H4    N4    S    
C9    O2    A    
C5    C15   A    
H5    N5    S    
