data_mof_unit_64206.cif
_audit_creation_date              2012-12-10T16:44:36-0500
_audit_creation_method            fapswitch 2.2
_symmetry_space_group_name_H-M    P1
_symmetry_Int_Tables_number       1
_space_group_crystal_system       triclinic
_cell_length_a                    18.463927
_cell_length_b                    18.456156
_cell_length_c                    18.453893
_cell_angle_alpha                 119.768687
_cell_angle_beta                  119.767129
_cell_angle_gamma                 90.390291
_cell_volume                      4462.6624805

loop_
_atom_site_label
_atom_site_type_symbol
_atom_type_description
_atom_site_fract_x
_atom_site_fract_y
_atom_site_fract_z
_atom_type_partial_charge
C1    C     C_R   0.138467 0.361405 0.999649 0.854714
C2    C     C_R   0.572294 0.147948 0.827205 -0.144304
C3    C     C_R   0.661248 0.197959 0.913518 0.072837
C4    C     C_R   0.715606 0.252324 0.913513 0.073028
C5    C     C_R   0.696035 0.195997 0.000030 -0.155690
C6    C     C_R   0.784421 0.247735 0.086581 0.072998
C7    C     C_R   0.838779 0.302105 0.086580 0.073325
C8    C     C_R   0.804016 0.304000 0.000024 -0.155491
C9    C     C_R   0.820634 0.245131 0.172959 -0.147407
C10   C     C_R   0.908029 0.295720 0.257311 -0.137859
C11   C     C_R   0.961409 0.349115 0.257311 -0.138003
C12   C     C_R   0.861742 0.638802 0.000342 0.852133
C13   C     C_R   0.927694 0.352220 0.172957 -0.147255
C14   C     C_2   0.723516 0.779641 0.942487 -0.161961
C15   C     C_2   0.691157 0.803347 0.998853 -0.284259
C16   C     C_2   0.777230 0.721039 0.940041 -0.160090
C17   C     C_2   0.808863 0.696582 0.004314 -0.288580
C18   C     C_2   0.721346 0.280960 0.443795 -0.162403
C19   C     C_2   0.696773 0.192233 0.387736 -0.292407
C20   C     C_2   0.779928 0.337143 0.556133 -0.159935
C21   C     C_2   0.803312 0.304559 0.612265 -0.294239
C22   C     C_2   0.337136 0.280947 0.057481 -0.155194
C23   C     C_R   0.138559 0.638758 0.277032 0.845548
C24   C     C_2   0.304562 0.192219 0.001063 -0.295781
C25   C     C_2   0.280957 0.337112 0.059835 -0.152161
C26   C     C_2   0.192263 0.304506 0.995725 -0.293166
C27   C     C_2   0.221031 0.782193 0.947840 -0.278801
C28   C     C_2   0.306348 0.790013 0.984453 0.276749
C29   C     C_2   0.163543 0.718610 0.937722 -0.128827
C30   C     C_2   0.194537 0.704516 0.010339 -0.217658
C31   C     C_2   0.219101 0.778526 0.556229 -0.158123
C32   C     C_2   0.307814 0.803376 0.612268 -0.294502
C33   C     C_2   0.162892 0.719930 0.443887 -0.161421
C34   C     C_R   0.861159 0.361419 0.722949 0.852103
C35   C     C_2   0.195418 0.696482 0.387713 -0.293712
C36   C     C_R   0.638908 0.138398 0.277049 0.844091
C37   C     C_R   0.361622 0.861152 0.722960 0.853157
C38   C     C_R   0.638300 0.861150 0.999799 0.855708
C39   C     C_R   0.361434 0.138403 0.000203 0.851904
C40   C     C_R   0.360477 0.858313 0.998047 0.790794
C41   C     C_R   0.639929 0.139857 0.000019 0.786925
C42   C     C_R   0.139514 0.641106 0.001476 0.850425
C43   C     C_R   0.860129 0.360105 0.000007 0.786879
C44   C     C_R   0.679358 0.255018 0.827192 -0.143572
C45   C     C_R   0.591918 0.204545 0.742910 -0.135421
C46   C     C_R   0.538535 0.151161 0.742918 -0.135879
H1    H     H_    0.029459 0.387917 0.322712 0.139519
H2    H     H_    0.701433 0.779716 0.045203 0.157822
H3    H     H_    0.791829 0.698342 0.883595 0.176722
H4    H     H_    0.797957 0.719563 0.063370 0.154009
H5    H     H_    0.698760 0.314685 0.406457 0.178484
H6    H     H_    0.719726 0.156198 0.421684 0.153961
H7    H     H_    0.803530 0.408158 0.593411 0.176927
H8    H     H_    0.779402 0.234629 0.578378 0.152558
H9    H     H_    0.408153 0.314696 0.105294 0.180095
H10   H     H_    0.234614 0.156129 0.954539 0.151245
H11   H     H_    0.314675 0.408159 0.116120 0.181511
H12   H     H_    0.717685 0.296490 0.823970 0.129651
H13   H     H_    0.156201 0.234532 0.936871 0.152012
H14   H     H_    0.192260 0.825165 0.926147 0.157288
H15   H     H_    0.094485 0.686775 0.872793 0.176090
H16   H     H_    0.261682 0.741395 0.079084 0.191047
H17   H     H_    0.185396 0.800904 0.593596 0.178510
H18   H     H_    0.343870 0.780714 0.578325 0.152228
H19   H     H_    0.091908 0.696374 0.406642 0.179288
H20   H     H_    0.265322 0.720245 0.421555 0.152689
H21   H     H_    0.565322 0.207329 0.677561 0.137611
H22   H     H_    0.470449 0.112455 0.677575 0.137449
H23   H     H_    0.527610 0.106408 0.823996 0.129925
H24   H     H_    0.782309 0.203664 0.176188 0.129751
H25   H     H_    0.934590 0.293022 0.322713 0.139291
H26   H     H_    0.972376 0.393781 0.176185 0.129620
H27   H     H_    0.709548 0.802992 0.894779 0.178667
O1    O     O_3   0.000000 0.500000 0.000000 -0.492698
O2    O     O_R   0.054160 0.614240 0.229150 -0.643387
O3    O     O_R   0.885120 0.325030 0.770840 -0.643783
O4    O     O_R   0.175010 0.445830 0.060100 -0.636879
O5    O     O_R   0.885710 0.614900 0.939900 -0.645333
O6    O     O_3   0.500040 0.999960 0.000000 -0.494154
O7    O     O_R   0.614930 0.174930 0.229160 -0.645338
O8    O     O_R   0.445880 0.885710 0.770850 -0.645271
O9    O     O_R   0.614330 0.885060 0.060100 -0.631638
O10   O     O_R   0.325040 0.054120 0.939900 -0.646276
O11   O     O_R   0.444330 0.884140 0.060080 -0.596894
O12   O     O_R   0.054210 0.325030 0.939940 -0.642265
O13   O     O_R   0.615830 0.175840 0.060080 -0.639079
O14   O     O_R   0.324160 0.884140 0.939910 -0.666580
O15   O     O_R   0.615850 0.055700 0.939930 -0.640324
O16   O     O_R   0.614980 0.885710 0.939940 -0.642982
O17   O     O_R   0.445830 0.174930 0.060060 -0.640634
O18   O     O_R   0.614300 0.054120 0.229160 -0.641725
O19   O     O_R   0.325070 0.885060 0.770830 -0.639078
O20   O     O_R   0.885070 0.614240 0.060060 -0.640662
O21   O     O_R   0.174980 0.614900 0.229170 -0.644863
O22   O     O_R   0.885740 0.445830 0.770840 -0.642696
O23   O     O_R   0.175880 0.615810 0.060090 -0.629800
O24   O     O_R   0.884210 0.324110 0.939920 -0.638913
O25   O     O_R   0.055710 0.615810 0.939920 -0.651313
O26   O     O_R   0.884190 0.444260 0.060070 -0.637621
Zn1   Zn    Zn3+2 0.956610 0.542450 0.085830 0.966344
Zn2   Zn    Zn3+2 0.129220 0.543380 0.085850 0.982066
Zn3   Zn    Zn3+2 0.957530 0.543380 0.914160 0.963232
Zn4   Zn    Zn3+2 0.956640 0.370790 0.914170 0.971036
Zn5   Zn    Zn3+2 0.543440 0.957510 0.914170 0.968414
Zn6   Zn    Zn3+2 0.542510 0.956570 0.085840 1.005484
Zn7   Zn    Zn3+2 0.370820 0.956570 0.914150 0.968292
Zn8   Zn    Zn3+2 0.543410 0.129170 0.085830 0.961500
Cl1   Cl    Cl    0.354274 0.711956 0.001611 -0.599372

loop_
_geom_bond_atom_site_label_1
_geom_bond_atom_site_label_2
_ccdc_geom_bond_type
O5    Zn3   S    
C1    O4    A    
O18   Zn6   S    
C11   H1    S    
O13   Zn8   S    
C8    C43   S    
C4    C8    A    
C6    C9    A    
C33   H19   S    
C7    C8    A    
C45   C46   A    
C2    C46   A    
C41   O13   A    
O7    Zn8   S    
C42   O23   A    
C40   O14   A    
C43   O26   A    
O17   Zn8   S    
C27   H14   S    
C42   O25   A    
C5    C6    A    
C27   C29   S    
C28   C40   S    
C24   C39   S    
O6    Zn6   S    
C18   C19   D    
O9    Zn6   S    
C40   O11   A    
O4    Zn2   S    
C19   H6    S    
C31   C32   D    
O21   Zn2   S    
C44   H12   S    
C16   C17   D    
C22   C25   S    
C12   O5    A    
C12   C17   S    
C45   H21   S    
C31   C33   S    
C2    H23   S    
C26   H13   S    
C39   O17   A    
C18   C20   S    
O12   Zn4   S    
O22   Zn3   S    
O1    Zn3   S    
C10   H25   S    
O3    Zn4   S    
O23   Zn2   S    
C38   O9    A    
C37   O8    A    
C25   H11   S    
C15   H2    S    
O15   Zn5   S    
C18   H5    S    
C6    C7    A    
C1    O12   A    
C29   H15   S    
C14   H27   S    
C31   H17   S    
C16   H3    S    
C32   H18   S    
C36   O7    A    
O1    Zn1   S    
C21   C34   S    
C4    C44   A    
C35   H20   S    
C25   C26   D    
O25   Zn3   S    
O6    Zn7   S    
C15   C38   S    
C46   H22   S    
C29   C30   D    
O26   Zn1   S    
C38   O16   A    
O11   Zn6   S    
O6    Zn8   S    
C32   C37   S    
C34   O22   A    
O20   Zn1   S    
O24   Zn4   S    
O1    Zn2   S    
C36   O18   A    
O19   Zn7   S    
C23   C35   S    
C30   H16   S    
O16   Zn5   S    
C1    C26   S    
C22   C24   D    
O6    Zn5   S    
C3    C4    A    
C44   C45   A    
C9    C10   A    
C41   O15   A    
C5    C41   S    
C37   O19   A    
C43   O24   A    
C23   O2    A    
C20   H7    S    
C3    C5    A    
C17   H4    S    
O10   Zn7   S    
C22   H9    S    
C13   H26   S    
C24   H10   S    
C23   O21   A    
C19   C36   S    
C2    C3    A    
C39   O10   A    
C11   C13   A    
C21   H8    S    
O14   Zn7   S    
C28   Cl1   S    
O2    Zn1   S    
C33   C35   D    
C14   C16   S    
C12   O20   A    
C10   C11   A    
C9    H24   S    
C7    C13   A    
C20   C21   D    
C27   C28   D    
C14   C15   D    
C30   C42   S    
C34   O3    A    
O1    Zn4   S    
O8    Zn5   S    
