data_mof_unit_24246.cif
_audit_creation_date              2012-12-11T15:31:36-0500
_audit_creation_method            fapswitch 2.2
_symmetry_space_group_name_H-M    P1
_symmetry_Int_Tables_number       1
_space_group_crystal_system       triclinic
_cell_length_a                    6.942546
_cell_length_b                    14.757333
_cell_length_c                    21.326108
_cell_angle_alpha                 74.913354
_cell_angle_beta                  90.611969
_cell_angle_gamma                 90.077736
_cell_volume                      2109.5035897

loop_
_atom_site_label
_atom_site_type_symbol
_atom_type_description
_atom_site_fract_x
_atom_site_fract_y
_atom_site_fract_z
_atom_type_partial_charge
O1    O     O_R   0.648150 0.130050 0.214300 -0.527655
O2    O     O_R   0.351850 0.869950 0.785700 -0.527651
O3    O     O_R   0.320490 0.006660 0.340150 -0.534225
O4    O     O_R   0.679510 0.993340 0.659850 -0.534225
O5    O     O_R   0.146100 0.869940 0.285700 -0.531342
O6    O     O_R   0.853900 0.130060 0.714300 -0.531342
C1    C     C_R   0.489670 0.001644 0.367066 0.753524
C2    C     C_R   0.510330 0.998356 0.632934 0.753527
O7    O     O_R   0.318690 0.137980 0.218120 -0.550098
O8    O     O_R   0.681310 0.862020 0.781880 -0.550100
O9    O     O_R   0.144280 0.002190 0.162800 -0.547429
O10   O     O_R   0.855720 0.997810 0.837200 -0.547431
C3    C     C_R   0.486715 0.175740 0.205908 0.768420
C4    C     C_R   0.513285 0.824260 0.794093 0.768421
O11   O     O_R   0.649960 0.997790 0.337200 -0.546221
O12   O     O_R   0.350040 0.002210 0.662800 -0.546220
O13   O     O_3   0.479300 0.955290 0.231990 -0.375702
O14   O     O_3   0.520700 0.044710 0.768010 -0.375704
V1    V     V_3+5 0.206040 0.008290 0.253340 1.472501
V2    V     V_3+5 0.793960 0.991710 0.746660 1.472495
O15   O     O_R   0.814320 0.993320 0.159850 -0.534925
O16   O     O_R   0.185680 0.006680 0.840150 -0.534925
C5    C     C_R   0.982229 0.998127 0.132937 0.699884
C6    C     C_R   0.017771 0.001870 0.867063 0.699889
O17   O     O_R   0.816120 0.862000 0.281880 -0.543909
O18   O     O_R   0.183880 0.138000 0.718120 -0.543908
C7    C     C_R   0.985262 0.824427 0.294009 0.709574
C8    C     C_R   0.014738 0.175572 0.705990 0.709574
V3    V     V_3+5 0.705540 0.991700 0.246660 1.482046
V4    V     V_3+5 0.294460 0.008300 0.753340 1.482045
O19   O     O_3   0.982150 0.044700 0.268010 -0.374189
O20   O     O_3   0.017850 0.955300 0.731990 -0.374188
C9    C     C_R   0.994691 0.723125 0.321893 -0.057247
C10   C     C_R   0.005310 0.276874 0.678107 -0.057247
C11   C     C_R   0.013885 0.566063 0.308720 -0.134305
C12   C     C_R   0.986126 0.433938 0.691280 -0.134303
C13   C     C_R   0.005839 0.662559 0.281618 -0.152793
C14   C     C_R   0.994167 0.337441 0.718382 -0.152796
C15   C     C_R   0.991535 0.687469 0.389363 -0.175329
C16   C     C_R   0.008466 0.312531 0.610636 -0.175330
C17   C     C_R   0.999296 0.589605 0.418375 0.081541
C18   C     C_R   0.000710 0.410395 0.581624 0.081540
C19   C     C_R   0.010801 0.529203 0.376435 0.119281
C20   C     C_R   0.989208 0.470797 0.623564 0.119283
C21   C     C_R   0.995841 0.549891 0.487212 0.053418
C22   C     C_R   0.004166 0.450109 0.512788 0.053418
C23   C     C_R   0.015789 0.393455 0.468704 -0.147762
C24   C     C_R   0.984221 0.606545 0.531296 -0.147763
C25   C     C_R   0.019003 0.432414 0.402123 -0.190503
C26   C     C_R   0.981008 0.567586 0.597877 -0.190501
H1    H     H_    0.028013 0.386000 0.370312 0.126846
H2    H     H_    0.972001 0.614001 0.629688 0.126844
H3    H     H_    0.017253 0.261607 0.582642 0.132304
H4    H     H_    0.982743 0.738393 0.417357 0.132302
H5    H     H_    0.991905 0.309975 0.770701 0.142294
H6    H     H_    0.008103 0.690025 0.229299 0.142298
H7    H     H_    0.022151 0.520036 0.276663 0.135578
H8    H     H_    0.977863 0.479964 0.723337 0.135571
H9    H     H_    0.022720 0.318070 0.483804 0.155518
H10   H     H_    0.977291 0.681930 0.516195 0.155520
C27   C     C_3   0.923938 0.921649 0.991275 0.132673
C28   C     C_3   0.076061 0.078347 0.008725 0.132650
C29   C     C_3   0.099133 0.925422 0.035866 -0.141293
C30   C     C_3   0.900866 0.074573 0.964134 -0.141309
H11   H     H_    0.179431 0.863798 0.065550 0.153748
H12   H     H_    0.820568 0.136197 0.934450 0.153746
C31   C     C_3   0.990198 0.998593 0.062409 -0.091367
C32   C     C_3   0.009801 0.001403 0.937592 -0.091362
C33   C     C_3   0.813982 0.993919 0.018428 -0.132747
C34   C     C_3   0.186017 0.006076 0.981572 -0.132728
H13   H     H_    0.661250 0.988178 0.033857 0.127801
H14   H     H_    0.338748 0.011819 0.966143 0.127796
C35   C     C_3   0.682498 0.994302 0.479917 -0.254217
C36   C     C_3   0.317502 0.005697 0.520083 -0.254217
C37   C     C_3   0.600411 0.072149 0.508291 0.700812
C38   C     C_3   0.399589 0.927851 0.491709 0.700812
H15   H     H_    0.832769 0.990873 0.463360 0.161779
H16   H     H_    0.167231 0.009127 0.536640 0.161779
C39   C     C_3   0.501432 0.998501 0.562563 -0.178231
C40   C     C_3   0.498568 0.001499 0.437437 -0.178230
C41   C     C_3   0.581966 0.919491 0.534871 -0.281011
C42   C     C_3   0.418034 0.080509 0.465129 -0.281012
H17   H     H_    0.646771 0.852664 0.563696 0.145172
H18   H     H_    0.353229 0.147336 0.436304 0.145171
C43   C     C_R   0.489519 0.277583 0.178472 -0.166847
C44   C     C_R   0.510482 0.722417 0.821528 -0.166858
C45   C     C_R   0.374386 0.428535 0.185851 -0.061309
C46   C     C_R   0.625665 0.571471 0.814152 -0.061296
C47   C     C_R   0.419177 0.335409 0.215399 -0.288359
C48   C     C_R   0.580874 0.664596 0.784604 -0.288336
C49   C     C_R   0.528600 0.314812 0.112367 0.668216
C50   C     C_R   0.471364 0.685186 0.887632 0.668182
C51   C     C_R   0.497873 0.411799 0.082186 -0.048523
C52   C     C_R   0.502102 0.588198 0.917814 -0.048532
C53   C     C_R   0.403177 0.465685 0.119026 -0.141389
C54   C     C_R   0.596831 0.534316 0.880975 -0.141386
C55   C     C_R   0.540897 0.455112 0.015532 -0.230021
C56   C     C_R   0.459069 0.544884 0.984467 -0.230019
C57   C     C_R   0.333955 0.586741 0.020859 0.663365
C58   C     C_R   0.666015 0.413254 0.979142 0.663344
C59   C     C_R   0.321009 0.552154 0.087748 0.513602
C60   C     C_R   0.678994 0.447848 0.912254 0.513610
H19   H     H_    0.614144 0.693408 0.733767 0.134337
H20   H     H_    0.385943 0.306600 0.266239 0.134340
H21   H     H_    0.307451 0.469925 0.214802 0.174915
H22   H     H_    0.692640 0.530086 0.785203 0.174909
F1    F     F_    0.209755 0.598966 0.121095 -0.687295
F2    F     F_    0.790285 0.401043 0.878911 -0.687277
F3    F     F_    0.436582 0.747428 0.923122 -0.681586
F4    F     F_    0.563339 0.252570 0.076875 -0.681609
F5    F     F_    0.207613 0.655316 0.992037 -0.626885
F6    F     F_    0.792343 0.344674 0.007966 -0.626894
C61   C     C_3   0.836829 0.832377 0.979462 -0.324193
C62   C     C_3   0.766997 0.765794 0.042362 -0.587148
H23   H     H_    0.888406 0.745164 0.077515 0.244670
H24   H     H_    0.652607 0.799805 0.064338 0.202654
H25   H     H_    0.706779 0.701472 0.031902 0.238356
H26   H     H_    0.713869 0.852036 0.944926 0.213600
H27   H     H_    0.946885 0.796394 0.957151 0.243670
C63   C     C_3   0.163160 0.167620 0.020536 -0.324178
C64   C     C_3   0.233053 0.234190 0.957638 -0.587118
H28   H     H_    0.347496 0.200174 0.935689 0.202666
H29   H     H_    0.111689 0.254802 0.922465 0.244602
H30   H     H_    0.293220 0.298522 0.968094 0.238368
H31   H     H_    0.053080 0.203615 0.042830 0.243681
H32   H     H_    0.286086 0.147962 0.055086 0.213615
F7    F     F_    0.705085 0.147527 0.517486 -0.706026
F8    F     F_    0.294915 0.852473 0.482514 -0.706026

loop_
_geom_bond_atom_site_label_1
_geom_bond_atom_site_label_2
_ccdc_geom_bond_type
C59   F1    S    
C29   H11   S    
C54   C60   A    
O13   V3    S    
O4    C2    A    
V1    O19   S    
C46   C54   A    
C55   C56   A    
C43   C49   A    
C23   C25   A    
C21   C22   A    
C7    C9    S    
O9    V1    S    
C9    C15   A    
C36   C38   S    
C28   C31   S    
C10   C16   A    
C30   C32   S    
C49   F4    S    
C11   C13   A    
C61   C62   S    
O3    C1    A    
C63   H32   S    
C50   F3    S    
C15   H4    S    
C52   C56   A    
O12   V4    S    
C56   C57   A    
C28   C34   S    
C27   C29   S    
C18   C22   A    
C5    C31   S    
C33   H13   S    
O7    C3    A    
C64   H30   S    
C28   C30   S    
C61   H27   S    
C13   H6    S    
O7    V1    S    
O6    C8    A    
C14   H5    S    
O8    V2    S    
C25   H1    S    
C45   C53   A    
C2    C39   S    
C26   H2    S    
C60   F2    S    
O14   V4    S    
C11   C19   A    
C28   C63   S    
C24   H10   S    
C24   C26   A    
C8    C10   S    
C2    O12   A    
O5    C7    A    
C17   C19   A    
C18   C20   A    
C36   C42   S    
C35   C41   S    
C41   H17   S    
O11   V3    S    
O15   C5    A    
O17   V3    S    
C29   C31   S    
C4    C44   S    
C40   C42   S    
C44   C48   A    
C39   C41   S    
C43   C47   A    
C63   H31   S    
C19   C25   A    
C1    O11   A    
O15   V3    S    
C9    C13   A    
C31   C33   S    
C30   H12   S    
C49   C51   A    
C46   H22   S    
C45   H21   S    
C29   C34   S    
C57   F5    S    
O3    V1    S    
O10   V2    S    
O1    V3    S    
C30   C33   S    
C52   C54   A    
C64   H28   S    
O18   V4    S    
C57   C59   A    
C46   C48   A    
C58   F6    S    
C42   H18   S    
C36   C39   S    
C45   C47   A    
C47   H20   S    
C27   C61   S    
C38   F8    S    
O16   C6    A    
C12   C20   A    
O1    C3    A    
C35   C37   S    
C51   C55   A    
C55   C58   A    
C63   C64   S    
C58   C60   A    
V2    O20   S    
C21   C24   A    
C27   C33   S    
C22   C23   A    
C35   H15   S    
O16   V4    S    
C10   C14   A    
O18   C8    A    
C38   C40   S    
C16   C18   A    
C38   C41   S    
C62   H24   S    
C37   C42   S    
C62   H23   S    
O5    V1    S    
O17   C7    A    
O6    V2    S    
O10   C6    A    
C12   H8    S    
O2    V4    S    
C11   H7    S    
C12   C14   A    
V3    O19   S    
C44   C50   A    
V4    O20   S    
C27   C32   S    
C50   C52   A    
C51   C53   A    
O9    C5    A    
O13   V1    S    
C35   C40   S    
O14   V2    S    
O2    C4    A    
C48   H19   S    
C64   H29   S    
C62   H25   S    
C6    C32   S    
C23   H9    S    
C61   H26   S    
O4    V2    S    
C15   C17   A    
C20   C26   A    
C32   C34   S    
C16   H3    S    
C36   H16   S    
C3    C43   S    
C17   C21   A    
C34   H14   S    
C37   C39   S    
C53   C59   A    
O8    C4    A    
C1    C40   S    
C37   F7    S    
