data_mof_unit_62112.cif
_audit_creation_date              2012-12-10T18:29:17-0500
_audit_creation_method            fapswitch 2.2
_symmetry_space_group_name_H-M    P1
_symmetry_Int_Tables_number       1
_space_group_crystal_system       triclinic
_cell_length_a                    27.973855
_cell_length_b                    26.874227
_cell_length_c                    18.062821
_cell_angle_alpha                 89.602281
_cell_angle_beta                  89.752045
_cell_angle_gamma                 90.021371
_cell_volume                      13578.7350213

loop_
_atom_site_label
_atom_site_type_symbol
_atom_type_description
_atom_site_fract_x
_atom_site_fract_y
_atom_site_fract_z
_atom_type_partial_charge
C1    C     C_R   0.066759 0.434094 0.500027 0.952214
C2    C     C_R   0.933088 0.565927 0.499925 0.933637
C3    C     C_R   0.933442 0.433891 0.500251 0.951774
C4    C     C_R   0.067243 0.565573 0.499791 0.936834
C5    C     C_R   0.566759 0.934094 0.500027 0.952214
C6    C     C_R   0.433088 0.065927 0.499925 0.933645
C7    C     C_R   0.433442 0.933891 0.500251 0.951774
C8    C     C_R   0.567243 0.065573 0.499791 0.936840
C9    C     C_R   0.996998 0.501479 0.159161 -0.227504
C10   C     C_R   0.000211 0.498832 0.841084 -0.227269
C11   C     C_R   0.497000 0.001480 0.159161 -0.227502
C12   C     C_R   0.500211 0.998833 0.841084 -0.227268
C13   C     C_R   0.002073 0.546332 0.199346 0.229466
C14   C     C_R   0.008071 0.454522 0.800591 0.218065
C15   C     C_R   0.990945 0.456936 0.199362 0.192883
C16   C     C_R   0.991405 0.542878 0.800860 0.196837
C17   C     C_R   0.502076 0.046332 0.199346 0.229459
C18   C     C_R   0.508069 0.954523 0.800592 0.218070
C19   C     C_R   0.490946 0.956936 0.199362 0.192885
C20   C     C_R   0.491405 0.042879 0.800860 0.196834
C21   C     C_R   0.002347 0.544665 0.278568 0.535737
C22   C     C_R   0.004203 0.455743 0.721898 0.506378
C23   C     C_R   0.996163 0.456366 0.277832 0.450533
C24   C     C_R   0.995702 0.543622 0.722134 0.490180
C25   C     C_R   0.502347 0.044665 0.278568 0.535743
C26   C     C_R   0.504202 0.955743 0.721899 0.506373
C27   C     C_R   0.496163 0.956366 0.277832 0.450534
C28   C     C_R   0.495702 0.043622 0.722133 0.490177
C29   C     C_R   0.860525 0.395471 0.556641 0.452416
C30   C     C_R   0.117752 0.630118 0.436074 0.502874
C31   C     C_R   0.135466 0.607791 0.563299 0.447551
C32   C     C_R   0.894860 0.359092 0.446092 0.473810
C33   C     C_R   0.139699 0.396758 0.442938 0.459350
C34   C     C_R   0.884700 0.631910 0.562562 0.489946
C35   C     C_R   0.865803 0.610050 0.435982 0.439351
C36   C     C_R   0.107693 0.360640 0.556046 0.497858
C37   C     C_R   0.360525 0.895471 0.556641 0.452416
C38   C     C_R   0.617750 0.130119 0.436075 0.502875
C39   C     C_R   0.635467 0.107790 0.563299 0.447551
C40   C     C_R   0.394860 0.859092 0.446092 0.473811
C41   C     C_R   0.639699 0.896758 0.442938 0.459350
C42   C     C_R   0.384702 0.131912 0.562561 0.489944
C43   C     C_R   0.365801 0.110047 0.435984 0.439350
C44   C     C_R   0.607693 0.860640 0.556046 0.497858
C45   C     C_R   0.825486 0.358454 0.558114 0.530316
C46   C     C_R   0.153999 0.665633 0.437119 0.520016
C47   C     C_R   0.171702 0.643477 0.564449 0.537108
C48   C     C_R   0.859937 0.322205 0.447323 0.520765
C49   C     C_R   0.175253 0.360326 0.441414 0.532672
C50   C     C_R   0.849010 0.667985 0.561477 0.514952
C51   C     C_R   0.830087 0.646297 0.434816 0.533948
C52   C     C_R   0.143126 0.324318 0.554750 0.527368
C53   C     C_R   0.325486 0.858454 0.558114 0.530316
C54   C     C_R   0.653997 0.165635 0.437120 0.520017
C55   C     C_R   0.671703 0.143477 0.564448 0.537107
C56   C     C_R   0.359937 0.822204 0.447323 0.520767
C57   C     C_R   0.675253 0.860326 0.441414 0.532673
C58   C     C_R   0.349011 0.167986 0.561476 0.514952
C59   C     C_R   0.330085 0.146295 0.434818 0.533949
C60   C     C_R   0.643126 0.824318 0.554749 0.527368
C61   C     C_R   0.824836 0.321428 0.503346 -0.389397
C62   C     C_R   0.181034 0.673105 0.501560 -0.391834
C63   C     C_R   0.177264 0.323641 0.497327 -0.396131
C64   C     C_R   0.821472 0.675806 0.497486 -0.384284
C65   C     C_R   0.324836 0.821427 0.503346 -0.389397
C66   C     C_R   0.681034 0.173106 0.501560 -0.391834
C67   C     C_R   0.677264 0.823641 0.497327 -0.396132
C68   C     C_R   0.321472 0.175806 0.497486 -0.384286
C69   C     C_R   0.999696 0.500016 0.924252 0.507714
C70   C     C_R   0.998432 0.500132 0.075907 0.512386
C71   C     C_R   0.499696 0.000017 0.924252 0.507718
C72   C     C_R   0.498434 0.000132 0.075907 0.512381
C73   C     C_R   0.895688 0.395847 0.500870 -0.477181
C74   C     C_R   0.107163 0.601630 0.499673 -0.481259
C75   C     C_R   0.105286 0.396859 0.499864 -0.489153
C76   C     C_R   0.894104 0.603015 0.499528 -0.471752
C77   C     C_R   0.395688 0.895847 0.500870 -0.477179
C78   C     C_R   0.607163 0.101631 0.499673 -0.481258
C79   C     C_R   0.605286 0.896859 0.499864 -0.489153
C80   C     C_R   0.394104 0.103015 0.499529 -0.471751
C81   C     C_R   0.218877 0.711317 0.502656 0.534543
C82   C     C_R   0.787499 0.282660 0.503512 0.532348
C83   C     C_R   0.783762 0.714160 0.496804 0.531551
C84   C     C_R   0.214934 0.285251 0.496761 0.534104
C85   C     C_R   0.718877 0.211318 0.502655 0.534545
C86   C     C_R   0.287499 0.782660 0.503512 0.532346
C87   C     C_R   0.283762 0.214160 0.496804 0.531554
C88   C     C_R   0.714934 0.785251 0.496761 0.534101
Cu1   Cu    Cu3+1 0.000000 0.500000 0.573360 1.098626
Cu2   Cu    Cu3+1 0.000000 0.500000 0.426640 1.096800
Cu3   Cu    Cu3+1 0.500000 1.000000 0.573360 1.098626
Cu4   Cu    Cu3+1 0.500000 1.000000 0.426640 1.096802
N1    N     N_R   0.000000 0.500000 0.316380 -0.285966
N2    N     N_R   0.000000 0.500000 0.683620 -0.290318
N3    N     N_R   0.500000 1.000000 0.316380 -0.285968
N4    N     N_R   0.500000 1.000000 0.683620 -0.290318
N5    N     N_R   0.958851 0.487495 0.036742 -0.254661
N6    N     N_R   0.039229 0.513061 0.963308 -0.162472
N7    N     N_R   0.038558 0.513294 0.037464 -0.171432
N8    N     N_R   0.959401 0.487655 0.962708 -0.286966
N9    N     N_R   0.458848 0.987509 0.036743 -0.254680
N10   N     N_R   0.539234 0.013047 0.963308 -0.162483
N11   N     N_R   0.538563 0.013280 0.037463 -0.171436
N12   N     N_R   0.459397 0.987669 0.962708 -0.286949
N13   N     N_R   0.774560 0.260507 0.439405 -0.125202
N14   N     N_R   0.231817 0.733399 0.566909 -0.135680
N15   N     N_R   0.240947 0.725573 0.438978 -0.119500
N16   N     N_R   0.765479 0.268413 0.567331 -0.133916
N17   N     N_R   0.228923 0.263257 0.560889 -0.120884
N18   N     N_R   0.769814 0.736125 0.432527 -0.135556
N19   N     N_R   0.762622 0.728444 0.560913 -0.122333
N20   N     N_R   0.236049 0.271013 0.432505 -0.134111
N21   N     N_R   0.274561 0.760506 0.439406 -0.125201
N22   N     N_R   0.731818 0.233399 0.566909 -0.135681
N23   N     N_R   0.740946 0.225574 0.438977 -0.119501
N24   N     N_R   0.265478 0.768414 0.567331 -0.133915
N25   N     N_R   0.728921 0.763256 0.560889 -0.120881
N26   N     N_R   0.269813 0.236123 0.432527 -0.135558
N27   N     N_R   0.262623 0.228445 0.560913 -0.122334
N28   N     N_R   0.736050 0.771014 0.432505 -0.134110
O1    O     O_R   0.049930 0.450080 0.561970 -0.499679
O2    O     O_R   0.950070 0.549920 0.438030 -0.569181
O3    O     O_R   0.950070 0.549920 0.561970 -0.497575
O4    O     O_R   0.049930 0.450080 0.438030 -0.555041
O5    O     O_R   0.950070 0.450080 0.438030 -0.508548
O6    O     O_R   0.049930 0.549920 0.561970 -0.553941
O7    O     O_R   0.049930 0.549920 0.438030 -0.493159
O8    O     O_R   0.950070 0.450080 0.561970 -0.570869
O9    O     O_R   0.549930 0.950080 0.561970 -0.499679
O10   O     O_R   0.450070 0.049920 0.438030 -0.569179
O11   O     O_R   0.450070 0.049920 0.561970 -0.497578
O12   O     O_R   0.549930 0.950080 0.438030 -0.555043
O13   O     O_R   0.450070 0.950080 0.438030 -0.508547
O14   O     O_R   0.549930 0.049920 0.561970 -0.553941
O15   O     O_R   0.549930 0.049920 0.438030 -0.493160
O16   O     O_R   0.450070 0.950080 0.561970 -0.570871
O17   O     O_3   0.011942 0.587392 0.318331 -0.477301
C89   C     C_3   0.975721 0.623823 0.310619 0.158410
H1    H     H_    0.954686 0.625398 0.362436 0.168545
H2    H     H_    0.949901 0.616936 0.265184 0.137170
C90   C     C_3   0.998803 0.674757 0.300650 -0.646537
H3    H     H_    0.970743 0.703466 0.292504 0.183171
H4    H     H_    0.019659 0.684387 0.350721 0.267785
H5    H     H_    0.023156 0.674784 0.251981 0.297146
O18   O     O_3   0.007868 0.411910 0.682777 -0.457357
C91   C     C_3   0.965626 0.383644 0.693002 0.105436
H6    H     H_    0.933207 0.405803 0.679846 0.180996
H7    H     H_    0.962002 0.370196 0.750662 0.137677
C92   C     C_3   0.967072 0.338240 0.643141 -0.626961
H8    H     H_    0.932310 0.318333 0.646040 0.180378
H9    H     H_    0.974082 0.349577 0.584904 0.238580
H10   H     H_    0.995804 0.312534 0.661517 0.287649
O19   O     O_3   0.994656 0.411795 0.316504 -0.499937
C93   C     C_3   0.036621 0.384087 0.301988 0.128426
H11   H     H_    0.069225 0.406545 0.312670 0.197574
H12   H     H_    0.037914 0.370944 0.243905 0.184486
C94   C     C_3   0.037455 0.338223 0.351884 -0.649342
H13   H     H_    0.008136 0.312500 0.336389 0.286164
H14   H     H_    0.072145 0.318582 0.345627 0.190913
H15   H     H_    0.032734 0.348967 0.410658 0.240499
O20   O     O_3   0.990172 0.587755 0.683178 -0.505850
C95   C     C_3   0.027142 0.622022 0.699419 0.160547
H16   H     H_    0.052230 0.623471 0.651969 0.183175
H17   H     H_    0.048528 0.612950 0.749702 0.172944
C96   C     C_3   0.005980 0.673819 0.708017 -0.663466
H18   H     H_    0.034915 0.700960 0.719470 0.204528
H19   H     H_    0.987506 0.685173 0.656291 0.269576
H20   H     H_    0.980012 0.674301 0.754554 0.269109
O21   O     O_3   0.511939 0.087392 0.318332 -0.477300
C97   C     C_3   0.475718 0.123822 0.310615 0.158398
H21   H     H_    0.454679 0.125396 0.362428 0.168552
H22   H     H_    0.449902 0.116936 0.265174 0.137162
C98   C     C_3   0.498799 0.174758 0.300653 -0.646529
H23   H     H_    0.470739 0.203466 0.292502 0.183171
H24   H     H_    0.519651 0.184387 0.350728 0.267780
H25   H     H_    0.523156 0.174786 0.251988 0.297147
O22   O     O_3   0.507867 0.911910 0.682778 -0.457357
C99   C     C_3   0.465626 0.883644 0.693002 0.105439
H26   H     H_    0.433207 0.905803 0.679845 0.180995
H27   H     H_    0.462002 0.870196 0.750661 0.137683
C100  C     C_3   0.467071 0.838240 0.643139 -0.626960
H28   H     H_    0.432309 0.818333 0.646038 0.180376
H29   H     H_    0.474083 0.849578 0.584903 0.238581
H30   H     H_    0.495803 0.812534 0.661516 0.287651
O23   O     O_3   0.494656 0.911795 0.316503 -0.499935
C101  C     C_3   0.536621 0.884087 0.301988 0.128428
H31   H     H_    0.569225 0.906544 0.312670 0.197572
H32   H     H_    0.537915 0.870944 0.243905 0.184487
C102  C     C_3   0.537455 0.838223 0.351884 -0.649338
H33   H     H_    0.572144 0.818582 0.345628 0.190911
H34   H     H_    0.532733 0.848967 0.410658 0.240499
H35   H     H_    0.508136 0.812500 0.336389 0.286165
O24   O     O_3   0.490173 0.087755 0.683177 -0.505850
C103  C     C_3   0.527144 0.122021 0.699419 0.160549
H36   H     H_    0.552232 0.123470 0.651969 0.183174
H37   H     H_    0.548530 0.112949 0.749702 0.172941
C104  C     C_3   0.505983 0.173819 0.708018 -0.663466
H38   H     H_    0.480016 0.174301 0.754555 0.269108
H39   H     H_    0.534918 0.200959 0.719471 0.204527
H40   H     H_    0.487509 0.185174 0.656293 0.269581
O25   O     O_3   0.010780 0.591701 0.163905 -0.525109
C105  C     C_3   0.972798 0.605031 0.115758 0.059996
H41   H     H_    0.937529 0.589514 0.133578 0.135510
H42   H     H_    0.980974 0.592382 0.058844 0.185288
C106  C     C_3   0.968380 0.661439 0.111110 -0.728216
H43   H     H_    0.003860 0.678482 0.099741 0.276976
H44   H     H_    0.943618 0.671864 0.065713 0.213092
H45   H     H_    0.953620 0.676441 0.163353 0.235546
O26   O     O_3   0.027014 0.411697 0.833039 -0.508417
C107  C     C_3   0.996344 0.390819 0.887462 0.063381
H46   H     H_    0.957776 0.398273 0.876518 0.127323
H47   H     H_    0.006157 0.405099 0.942796 0.191480
C108  C     C_3   0.003968 0.334732 0.890814 -0.676942
H48   H     H_    0.041697 0.326405 0.905262 0.274563
H49   H     H_    0.980246 0.318136 0.933834 0.200621
H50   H     H_    0.995774 0.317431 0.836766 0.247411
O27   O     O_3   0.983706 0.413228 0.161002 -0.572768
C109  C     C_3   0.935101 0.399637 0.167158 0.113198
H51   H     H_    0.911093 0.430972 0.150975 0.155877
H52   H     H_    0.926391 0.387552 0.224705 0.219936
C110  C     C_3   0.925407 0.356376 0.115520 -0.693676
H53   H     H_    0.948211 0.324120 0.130854 0.258148
H54   H     H_    0.887274 0.345184 0.119788 0.224223
H55   H     H_    0.933358 0.367544 0.057415 0.241200
O28   O     O_3   0.980666 0.585966 0.838852 -0.565124
C111  C     C_3   0.930521 0.592037 0.839540 0.096744
H56   H     H_    0.911821 0.557501 0.858444 0.154686
H57   H     H_    0.917539 0.602486 0.783385 0.227788
C112  C     C_3   0.917408 0.633377 0.892926 -0.710486
H58   H     H_    0.935391 0.668588 0.876336 0.254669
H59   H     H_    0.878121 0.639258 0.892699 0.228666
H60   H     H_    0.928678 0.622960 0.949790 0.233571
O29   O     O_3   0.510788 0.091701 0.163906 -0.525107
C113  C     C_3   0.472813 0.105033 0.115749 0.060005
H61   H     H_    0.437542 0.089513 0.133554 0.135510
H62   H     H_    0.480998 0.092387 0.058835 0.185304
C114  C     C_3   0.468393 0.161441 0.111107 -0.728232
H63   H     H_    0.503874 0.178486 0.099755 0.276978
H64   H     H_    0.443638 0.171867 0.065702 0.213095
H65   H     H_    0.453624 0.176439 0.163347 0.235544
O30   O     O_3   0.527008 0.911696 0.833042 -0.508417
C115  C     C_3   0.496335 0.890821 0.887463 0.063371
H66   H     H_    0.457768 0.898277 0.876515 0.127318
H67   H     H_    0.506147 0.905103 0.942797 0.191475
C116  C     C_3   0.503957 0.834734 0.890821 -0.676941
H68   H     H_    0.541685 0.826406 0.905273 0.274563
H69   H     H_    0.480233 0.818140 0.933840 0.200620
H70   H     H_    0.495764 0.817431 0.836774 0.247409
O31   O     O_3   0.483707 0.913228 0.161002 -0.572769
C117  C     C_3   0.435101 0.899639 0.167155 0.113195
H71   H     H_    0.411094 0.930976 0.150971 0.155879
H72   H     H_    0.426390 0.887554 0.224701 0.219935
C118  C     C_3   0.425406 0.856379 0.115515 -0.693681
H73   H     H_    0.448210 0.824122 0.130850 0.258151
H74   H     H_    0.387273 0.845188 0.119782 0.224223
H75   H     H_    0.433359 0.867547 0.057411 0.241193
O32   O     O_3   0.480667 0.085966 0.838851 -0.565130
C119  C     C_3   0.430522 0.092040 0.839538 0.096750
H76   H     H_    0.411821 0.057503 0.858437 0.154690
H77   H     H_    0.417541 0.102492 0.783383 0.227787
C120  C     C_3   0.417409 0.133378 0.892928 -0.710492
H78   H     H_    0.435395 0.168589 0.876342 0.254668
H79   H     H_    0.378123 0.139261 0.892699 0.228668
H80   H     H_    0.428677 0.122957 0.949791 0.233574
F1    F     F_    0.859048 0.431910 0.608300 -0.603510
F2    F     F_    0.093001 0.624142 0.372514 -0.556024
F3    F     F_    0.129170 0.578328 0.623958 -0.594647
F4    F     F_    0.928631 0.357881 0.392189 -0.594341
F5    F     F_    0.139962 0.432935 0.390093 -0.589179
F6    F     F_    0.910305 0.626000 0.625464 -0.590985
F7    F     F_    0.871794 0.581123 0.375285 -0.612647
F8    F     F_    0.075051 0.359385 0.611553 -0.564773
F9    F     F_    0.359048 0.931910 0.608299 -0.603511
F10   F     F_    0.592997 0.124145 0.372516 -0.556027
F11   F     F_    0.629171 0.078326 0.623956 -0.594646
F12   F     F_    0.428632 0.857881 0.392189 -0.594339
F13   F     F_    0.639962 0.932935 0.390094 -0.589179
F14   F     F_    0.410309 0.126005 0.625461 -0.590989
F15   F     F_    0.371791 0.081119 0.375288 -0.612641
F16   F     F_    0.575051 0.859385 0.611553 -0.564772
F17   F     F_    0.791444 0.359848 0.611866 -0.561358
F18   F     F_    0.161670 0.693538 0.375223 -0.559329
F19   F     F_    0.198412 0.648027 0.626633 -0.556674
F20   F     F_    0.861374 0.286547 0.394446 -0.569145
F21   F     F_    0.208424 0.361932 0.386351 -0.555462
F22   F     F_    0.842362 0.696059 0.622901 -0.572051
F23   F     F_    0.803181 0.651506 0.372857 -0.565091
F24   F     F_    0.143078 0.289062 0.608984 -0.558227
F25   F     F_    0.291444 0.859848 0.611866 -0.561358
F26   F     F_    0.661667 0.193541 0.375224 -0.559330
F27   F     F_    0.698414 0.148025 0.626631 -0.556674
F28   F     F_    0.361375 0.786546 0.394447 -0.569144
F29   F     F_    0.708424 0.861932 0.386352 -0.555461
F30   F     F_    0.342365 0.196063 0.622898 -0.572051
F31   F     F_    0.303177 0.151502 0.372860 -0.565090
F32   F     F_    0.643077 0.789061 0.608983 -0.558225

loop_
_geom_bond_atom_site_label_1
_geom_bond_atom_site_label_2
_ccdc_geom_bond_type
C28   N4    A    
C44   C79   A    
C103  H37   S    
C71   N12   A    
C81   N15   A    
C42   C80   A    
C96   H18   S    
C49   C63   A    
C102  H35   S    
C32   C48   A    
O21   C97   S    
C16   C24   A    
C27   N3    A    
Cu4   O13   S    
C18   C26   A    
C58   F30   S    
C21   O17   S    
C6    O10   A    
C42   C58   A    
C66   C85   S    
O20   C95   S    
C48   F20   S    
C55   F27   S    
C65   C86   S    
C44   F16   S    
C100  H28   S    
O24   C103  S    
C108  H50   S    
C11   C19   A    
C67   C88   S    
C84   N20   A    
C26   O22   S    
C105  H42   S    
C4    C74   S    
C46   C62   A    
C86   N21   A    
C34   C76   A    
C51   F23   S    
C85   N22   A    
Cu4   O12   S    
C57   C67   A    
O30   C115  S    
C112  H60   S    
C61   C82   S    
C90   H4    S    
O18   C91   S    
C118  H73   S    
C30   C74   A    
Cu3   O11   S    
C106  H45   S    
C103  C104  S    
C29   C73   A    
C97   H21   S    
C40   F12   S    
C117  H72   S    
C56   C65   A    
C95   C96   S    
C114  H64   S    
C50   C64   A    
C97   C98   S    
C86   N24   A    
O32   C119  S    
O25   C105  S    
C82   N13   A    
N16   N22   A    
Cu1   N2    S    
C104  H39   S    
C9    C13   A    
C29   F1    S    
N15   N21   A    
C112  H59   S    
C37   F9    S    
Cu3   N4    S    
C109  H52   S    
C33   C75   A    
C5    O12   A    
C39   C55   A    
Cu3   O16   S    
C24   O20   S    
C60   C67   A    
C40   C56   A    
C105  C106  S    
Cu2   O2    S    
C115  H67   S    
Cu2   O7    S    
C30   F2    S    
C82   N16   A    
C15   O27   S    
C19   C27   A    
O29   C113  S    
C93   H12   S    
C36   C52   A    
C70   N5    A    
C43   C59   A    
C20   O32   S    
C7    C77   S    
C37   C53   A    
C69   N6    A    
C45   C61   A    
C117  C118  S    
C15   C23   A    
C103  H36   S    
C101  H31   S    
C96   H19   S    
C117  H71   S    
C31   C47   A    
C114  H63   S    
C50   F22   S    
C8    O15   A    
C8    C78   S    
C22   N2    A    
C92   H9    S    
C102  H33   S    
C113  H62   S    
C47   C62   A    
C42   F14   S    
N13   N23   A    
C99   H26   S    
C91   H7    S    
Cu1   O6    S    
C2    O2    A    
C26   N4    A    
C16   O28   S    
C35   C76   A    
C34   C50   A    
C115  C116  S    
C45   F17   S    
C105  H41   S    
C31   F3    S    
C1    C75   S    
C39   C78   A    
C85   N23   A    
C41   F13   S    
C9    C70   S    
C93   C94   S    
O26   C107  S    
C10   C14   A    
C100  H29   S    
N18   N28   A    
C32   C73   A    
C118  H74   S    
C116  H68   S    
C11   C72   S    
C38   F10   S    
C31   C74   A    
C38   C78   A    
C43   C80   A    
C98   H23   S    
C8    O14   A    
C52   C63   A    
Cu4   N3    S    
C23   N1    A    
C94   H13   S    
C29   C45   A    
C113  C114  S    
C104  H40   S    
Cu4   O10   S    
C10   C69   S    
C64   C83   S    
C87   N27   A    
C112  H58   S    
C36   C75   A    
C24   N2    A    
C59   C68   A    
C118  H75   S    
C91   C92   S    
C56   F28   S    
C6    C80   S    
C110  H53   S    
C38   C54   A    
C22   O18   S    
C108  H48   S    
C49   F21   S    
C53   C65   A    
C12   C20   A    
C12   C18   A    
O28   C111  S    
O31   C117  S    
C83   N18   A    
C13   C21   A    
C111  H56   S    
C44   C60   A    
C5    C79   S    
C53   F25   S    
C93   H11   S    
C98   H24   S    
C47   F19   S    
C87   N26   A    
C62   C81   S    
C54   C66   A    
C92   H10   S    
C18   O30   S    
C58   C68   A    
C12   C71   S    
C25   N3    A    
C96   H20   S    
C111  H57   S    
C116  H69   S    
C35   C51   A    
C46   F18   S    
C83   N19   A    
C90   H5    S    
C119  C120  S    
C88   N28   A    
C113  H61   S    
C101  H32   S    
Cu1   Cu2   S    
C119  H77   S    
Cu3   Cu4   S    
N5    N8    A    
C2    C76   S    
C70   N7    A    
N17   N27   A    
Cu2   N1    S    
C120  H79   S    
C91   H6    S    
C98   H25   S    
C25   O21   S    
C109  C110  S    
C109  H51   S    
C106  H43   S    
C81   N14   A    
C11   C17   A    
Cu1   O1    S    
C14   O26   S    
C33   F5    S    
C3    O8    A    
Cu2   O4    S    
C107  C108  S    
C30   C46   A    
C36   F8    S    
C19   O31   S    
C51   C64   A    
C114  H65   S    
C35   F7    S    
C6    O11   A    
C89   C90   S    
C28   O24   S    
C52   F24   S    
C120  H80   S    
C99   H27   S    
C3    O5    A    
C7    O13   A    
C95   H16   S    
C89   H2    S    
C72   N11   A    
C17   O29   S    
C94   H15   S    
C110  H55   S    
C111  C112  S    
C20   C28   A    
O17   C89   S    
C71   N10   A    
C84   N17   A    
C4    O6    A    
C63   C84   S    
N19   N25   A    
C17   C25   A    
Cu1   O3    S    
C107  H47   S    
C101  C102  S    
C23   O19   S    
C119  H76   S    
O27   C109  S    
C108  H49   S    
C41   C57   A    
C7    O16   A    
C110  H54   S    
C95   H17   S    
C10   C16   A    
C90   H3    S    
C54   F26   S    
N20   N26   A    
C14   C22   A    
C48   C61   A    
C60   F32   S    
Cu3   O14   S    
C37   C77   A    
Cu3   O9    S    
C59   F31   S    
C27   O23   S    
C100  H30   S    
C115  H66   S    
C5    O9    A    
Cu2   O5    S    
C13   O25   S    
C32   F4    S    
C104  H38   S    
C107  H46   S    
C9    C15   A    
N10   N11   A    
C3    C73   S    
C21   N1    A    
C1    O1    A    
C1    O4    A    
C99   C100  S    
C57   F29   S    
C89   H1    S    
O22   C99   S    
C41   C79   A    
Cu4   O15   S    
C69   N8    A    
C43   F15   S    
C94   H14   S    
N6    N7    A    
C72   N9    A    
C116  H70   S    
N14   N24   A    
C120  H78   S    
C68   C87   S    
C40   C77   A    
C34   F6    S    
O23   C101  S    
N9    N12   A    
C97   H22   S    
C102  H34   S    
C88   N25   A    
C92   H8    S    
C106  H44   S    
C33   C49   A    
C4    O7    A    
C2    O3    A    
C39   F11   S    
C55   C66   A    
O19   C93   S    
Cu1   O8    S    
