data_mof_unit_16558.cif
_audit_creation_date              2012-12-10T20:05:24-0500
_audit_creation_method            fapswitch 2.2
_symmetry_space_group_name_H-M    P1
_symmetry_Int_Tables_number       1
_space_group_crystal_system       tetragonal
_cell_length_a                    15.890639
_cell_length_b                    15.890639
_cell_length_c                    34.421928
_cell_angle_alpha                 90.0
_cell_angle_beta                  90.0
_cell_angle_gamma                 90.0
_cell_volume                      8691.96392137

loop_
_atom_site_label
_atom_site_type_symbol
_atom_type_description
_atom_site_fract_x
_atom_site_fract_y
_atom_site_fract_z
_atom_type_partial_charge
C1    C     C_R   0.500000 0.000000 0.355756 0.522831
C2    C     C_R   0.660055 0.839945 0.750000 0.514826
C3    C     C_R   0.846786 0.501857 0.020129 -0.137661
C4    C     C_R   0.498143 0.153214 0.979871 -0.137660
C5    C     C_R   0.498143 0.846786 0.020129 -0.137661
C6    C     C_R   0.846786 0.498143 0.979871 -0.137660
C7    C     C_R   0.153214 0.498143 0.020129 -0.137661
C8    C     C_R   0.980697 0.656258 0.395767 0.022576
C9    C     C_R   0.045247 0.689494 0.372470 -0.092524
C10   C     C_R   0.030703 0.761328 0.349969 -0.119135
C11   C     C_R   0.952233 0.801019 0.351006 -0.103415
C12   C     C_R   0.887997 0.768635 0.374381 -0.108307
C13   C     C_R   0.839946 0.339946 0.250000 0.499137
C14   C     C_R   0.901978 0.696345 0.396593 -0.088476
C15   C     C_R   0.980698 0.343742 0.604233 0.022576
C16   C     C_R   0.045247 0.310506 0.627529 -0.092524
C17   C     C_R   0.030703 0.238672 0.650030 -0.119135
C18   C     C_R   0.952233 0.198980 0.648994 -0.103415
C19   C     C_R   0.887997 0.231364 0.625619 -0.108307
C20   C     C_R   0.901978 0.303655 0.603407 -0.088475
C21   C     C_R   0.343742 0.980698 0.395767 0.022576
C22   C     C_R   0.310506 0.045247 0.372470 -0.092524
C23   C     C_R   0.238672 0.030703 0.349969 -0.119135
C24   C     C_R   0.160055 0.660055 0.750000 0.514826
C25   C     C_R   0.198980 0.952233 0.351006 -0.103415
C26   C     C_R   0.231364 0.887997 0.374381 -0.108307
C27   C     C_R   0.303655 0.901978 0.396593 -0.088476
C28   C     C_R   0.656258 0.980697 0.604233 0.022576
C29   C     C_R   0.689494 0.045247 0.627529 -0.092524
C30   C     C_R   0.761328 0.030703 0.650030 -0.119135
C31   C     C_R   0.801019 0.952233 0.648994 -0.103415
C32   C     C_R   0.768635 0.887997 0.625619 -0.108307
C33   C     C_R   0.696345 0.901977 0.603407 -0.088475
C34   C     C_R   0.019303 0.343742 0.395767 0.022576
C35   C     C_R   0.660054 0.839946 0.250000 0.499136
C36   C     C_R   0.954753 0.310506 0.372471 -0.092524
C37   C     C_R   0.969297 0.238672 0.349969 -0.119135
C38   C     C_R   0.047767 0.198981 0.351006 -0.103415
C39   C     C_R   0.112003 0.231365 0.374381 -0.108307
C40   C     C_R   0.098022 0.303655 0.396593 -0.088475
C41   C     C_R   0.019302 0.656258 0.604233 0.022576
C42   C     C_R   0.954753 0.689494 0.627529 -0.092524
C43   C     C_R   0.969297 0.761328 0.650030 -0.119135
C44   C     C_R   0.047767 0.801020 0.648994 -0.103415
C45   C     C_R   0.112003 0.768636 0.625619 -0.108307
C46   C     C_R   0.339945 0.160055 0.750000 0.514826
C47   C     C_R   0.098022 0.696345 0.603407 -0.088476
C48   C     C_R   0.656258 0.019302 0.395767 0.022576
C49   C     C_R   0.689494 0.954753 0.372470 -0.092524
C50   C     C_R   0.761328 0.969297 0.349969 -0.119135
C51   C     C_R   0.801020 0.047767 0.351006 -0.103415
C52   C     C_R   0.768636 0.112003 0.374381 -0.108307
C53   C     C_R   0.696345 0.098022 0.396593 -0.088475
C54   C     C_R   0.343742 0.019303 0.604233 0.022576
C55   C     C_R   0.310506 0.954753 0.627529 -0.092524
C56   C     C_R   0.238672 0.969297 0.650030 -0.119135
C57   C     C_R   0.160054 0.660054 0.250000 0.499136
C58   C     C_R   0.198980 0.047767 0.648994 -0.103415
C59   C     C_R   0.231365 0.112003 0.625619 -0.108307
C60   C     C_R   0.303655 0.098022 0.603407 -0.088476
C61   C     C_R   0.480697 0.156258 0.895767 0.022576
C62   C     C_R   0.545246 0.189494 0.872470 -0.092524
C63   C     C_R   0.530703 0.261328 0.849970 -0.119135
C64   C     C_R   0.452233 0.301020 0.851006 -0.103415
C65   C     C_R   0.387997 0.268635 0.874381 -0.108307
C66   C     C_R   0.401978 0.196345 0.896593 -0.088476
C67   C     C_R   0.480697 0.843742 0.104233 0.022576
C68   C     C_R   0.839945 0.339945 0.750000 0.514827
C69   C     C_R   0.545247 0.810506 0.127529 -0.092524
C70   C     C_R   0.530703 0.738672 0.150030 -0.119135
C71   C     C_R   0.452233 0.698980 0.148994 -0.103415
C72   C     C_R   0.387997 0.731364 0.125619 -0.108307
C73   C     C_R   0.401978 0.803655 0.103407 -0.088475
C74   C     C_R   0.843742 0.480697 0.895767 0.022576
C75   C     C_R   0.810506 0.545247 0.872470 -0.092524
C76   C     C_R   0.738672 0.530703 0.849970 -0.119135
C77   C     C_R   0.698980 0.452233 0.851006 -0.103415
C78   C     C_R   0.731364 0.387997 0.874381 -0.108307
C79   C     C_R   0.339946 0.839946 0.750000 0.499137
C80   C     C_R   0.803655 0.401978 0.896593 -0.088476
C81   C     C_R   0.156258 0.480697 0.104233 0.022576
C82   C     C_R   0.189494 0.545246 0.127529 -0.092524
C83   C     C_R   0.261328 0.530703 0.150030 -0.119135
C84   C     C_R   0.301019 0.452233 0.148994 -0.103415
C85   C     C_R   0.268635 0.387997 0.125619 -0.108307
C86   C     C_R   0.196345 0.401977 0.103407 -0.088475
C87   C     C_R   0.519303 0.843742 0.895767 0.022576
C88   C     C_R   0.454753 0.810506 0.872471 -0.092524
C89   C     C_R   0.469297 0.738672 0.849970 -0.119135
C90   C     C_R   0.660055 0.160055 0.250000 0.514826
C91   C     C_R   0.547767 0.698981 0.851006 -0.103415
C92   C     C_R   0.612003 0.731365 0.874381 -0.108307
C93   C     C_R   0.598023 0.803655 0.896593 -0.088475
C94   C     C_R   0.519302 0.156258 0.104233 0.022576
C95   C     C_R   0.454753 0.189494 0.127529 -0.092524
C96   C     C_R   0.469297 0.261328 0.150030 -0.119135
C97   C     C_R   0.547767 0.301020 0.148994 -0.103415
C98   C     C_R   0.612003 0.268636 0.125619 -0.108307
C99   C     C_R   0.598022 0.196345 0.103407 -0.088476
C100  C     C_R   0.156258 0.519302 0.895767 0.022576
C101  C     C_R   0.839946 0.660054 0.750000 0.499136
C102  C     C_R   0.189494 0.454753 0.872470 -0.092524
C103  C     C_R   0.261327 0.469297 0.849970 -0.119135
C104  C     C_R   0.301020 0.547767 0.851006 -0.103415
C105  C     C_R   0.268636 0.612003 0.874381 -0.108307
C106  C     C_R   0.196345 0.598022 0.896593 -0.088475
C107  C     C_R   0.843742 0.519303 0.104233 0.022576
C108  C     C_R   0.810506 0.454753 0.127529 -0.092524
C109  C     C_R   0.738672 0.469297 0.150030 -0.119135
C110  C     C_R   0.698980 0.547767 0.148994 -0.103415
C111  C     C_R   0.731365 0.612003 0.125619 -0.108307
C112  C     C_R   0.500000 0.000000 0.644244 0.522831
C113  C     C_R   0.160055 0.339945 0.250000 0.514826
C114  C     C_R   0.803655 0.598022 0.103407 -0.088476
C115  C     C_R   0.660054 0.160054 0.750000 0.499136
C116  C     C_R   0.339945 0.839945 0.250000 0.514827
C117  C     C_R   0.160054 0.339946 0.750000 0.499136
C118  C     C_R   0.839945 0.660055 0.250000 0.514826
C119  C     C_1   0.276658 0.776658 0.250000 -0.029204
C120  C     C_1   0.723339 0.223339 0.750000 -0.037842
C121  C     C_1   0.223342 0.276658 0.250000 -0.029204
C122  C     C_1   0.776660 0.723339 0.750000 -0.037842
C123  C     C_1   0.723342 0.223342 0.250000 -0.029204
C124  C     C_R   1.000000 0.500000 0.355756 0.522831
C125  C     C_1   0.276660 0.776660 0.750000 -0.037842
C126  C     C_1   0.776658 0.723342 0.250000 -0.029204
C127  C     C_1   0.223339 0.276660 0.750000 -0.037842
C128  C     C_1   0.276658 0.223342 0.750000 -0.029204
C129  C     C_1   0.723339 0.776660 0.250000 -0.037842
C130  C     C_1   0.223342 0.723342 0.750000 -0.029204
C131  C     C_1   0.776660 0.276660 0.250000 -0.037842
C132  C     C_1   0.723342 0.776658 0.750000 -0.029204
C133  C     C_1   0.276660 0.223339 0.250000 -0.037842
C134  C     C_1   0.776658 0.276658 0.750000 -0.029204
C135  C     C_R   0.000000 0.500000 0.644244 0.522831
C136  C     C_1   0.223339 0.723339 0.250000 -0.037842
C137  C     C_R   0.993666 0.577022 0.418032 -0.041952
C138  C     C_R   0.993666 0.422978 0.581967 -0.041952
C139  C     C_R   0.422978 0.993666 0.418032 -0.041952
C140  C     C_R   0.577022 0.993666 0.581967 -0.041952
C141  C     C_R   0.006334 0.422978 0.418032 -0.041952
C142  C     C_R   0.006334 0.577022 0.581967 -0.041952
C143  C     C_R   0.577022 0.006334 0.418032 -0.041952
C144  C     C_R   0.422978 0.006334 0.581967 -0.041952
C145  C     C_R   0.493666 0.077022 0.918032 -0.041952
C146  C     C_R   0.000000 0.500000 0.855756 0.522831
C147  C     C_R   0.493666 0.922978 0.081968 -0.041952
C148  C     C_R   0.922978 0.493666 0.918032 -0.041952
C149  C     C_R   0.077022 0.493666 0.081968 -0.041952
C150  C     C_R   0.506334 0.922978 0.918032 -0.041952
C151  C     C_R   0.506334 0.077022 0.081968 -0.041952
C152  C     C_R   0.077022 0.506334 0.918032 -0.041952
C153  C     C_R   0.922978 0.506334 0.081968 -0.041952
C154  C     C_R   1.000000 0.500000 0.398027 0.014694
C155  C     C_R   1.000000 0.500000 0.601973 0.014694
C156  C     C_R   0.500000 0.000000 0.398027 0.014694
C157  C     C_R   1.000000 0.500000 0.144244 0.522831
C158  C     C_R   0.500000 1.000000 0.601973 0.014694
C159  C     C_R   0.500000 0.000000 0.898027 0.014694
C160  C     C_R   0.500000 0.000000 0.101973 0.014694
C161  C     C_R   0.000000 0.500000 0.898027 0.014694
C162  C     C_R   1.000000 0.500000 0.101973 0.014694
C163  C     C_R   0.002971 0.422698 0.458946 0.004919
C164  C     C_R   0.002971 0.577302 0.541054 0.004919
C165  C     C_R   0.577302 0.002971 0.458946 0.004919
C166  C     C_R   0.422698 0.002971 0.541054 0.004919
C167  C     C_R   0.997029 0.577302 0.458946 0.004919
C168  C     C_R   0.500000 0.000000 0.855756 0.522831
C169  C     C_R   0.997029 0.422698 0.541054 0.004919
C170  C     C_R   0.422698 0.997029 0.458946 0.004919
C171  C     C_R   0.577302 0.997029 0.541054 0.004919
C172  C     C_R   0.502971 0.922698 0.958946 0.004919
C173  C     C_R   0.502971 0.077302 0.041054 0.004919
C174  C     C_R   0.077302 0.502971 0.958946 0.004919
C175  C     C_R   0.922698 0.502971 0.041054 0.004919
C176  C     C_R   0.497029 0.077302 0.958946 0.004919
C177  C     C_R   0.497029 0.922698 0.041054 0.004919
C178  C     C_R   0.922698 0.497029 0.958946 0.004919
C179  C     C_R   0.500000 0.000000 0.144244 0.522831
C180  C     C_R   0.077302 0.497029 0.041054 0.004919
C181  C     C_R   1.000000 0.500000 0.479427 0.039533
C182  C     C_R   0.000000 0.500000 0.520573 0.039533
C183  C     C_R   0.500000 1.000000 0.479427 0.039533
C184  C     C_R   0.500000 1.000000 0.520573 0.039533
C185  C     C_R   0.500000 0.000000 0.979427 0.039533
C186  C     C_R   0.500000 0.000000 0.020573 0.039533
C187  C     C_R   0.000000 0.500000 0.979427 0.039533
C188  C     C_R   1.000000 0.500000 0.020573 0.039533
C189  C     C_R   0.001857 0.346786 0.479871 -0.137661
C190  C     C_R   0.339946 0.160054 0.250000 0.499136
C191  C     C_R   0.001857 0.653214 0.520129 -0.137660
C192  C     C_R   0.653214 0.001857 0.479871 -0.137661
C193  C     C_R   0.346786 0.001857 0.520129 -0.137661
C194  C     C_R   0.998143 0.653214 0.479871 -0.137660
C195  C     C_R   0.998143 0.346786 0.520129 -0.137661
C196  C     C_R   0.346786 0.998143 0.479871 -0.137660
C197  C     C_R   0.653214 0.998143 0.520129 -0.137661
C198  C     C_R   0.501857 0.846786 0.979871 -0.137661
C199  C     C_R   0.501857 0.153214 0.020129 -0.137660
C200  C     C_R   0.153214 0.501857 0.979871 -0.137661
H1    H     H_    0.002552 0.286417 0.465320 0.126335
H2    H     H_    0.502552 0.213583 0.034680 0.126335
H3    H     H_    0.213583 0.502551 0.965320 0.126336
H4    H     H_    0.786417 0.502552 0.034680 0.126335
H5    H     H_    0.497448 0.213583 0.965320 0.126335
H6    H     H_    0.497449 0.786417 0.034680 0.126336
H7    H     H_    0.786417 0.497448 0.965320 0.126335
H8    H     H_    0.213583 0.497448 0.034680 0.126335
H9    H     H_    0.106269 0.659235 0.371419 0.122336
H10   H     H_    0.080110 0.785987 0.331574 0.100603
H11   H     H_    0.941168 0.856685 0.333622 0.104009
H12   H     H_    0.002551 0.713583 0.534680 0.126335
H13   H     H_    0.827141 0.799087 0.375127 0.107637
H14   H     H_    0.851407 0.671150 0.414195 0.114241
H15   H     H_    0.106269 0.340765 0.628581 0.122336
H16   H     H_    0.080110 0.214013 0.668426 0.100603
H17   H     H_    0.941169 0.143315 0.666378 0.104009
H18   H     H_    0.827142 0.200912 0.624872 0.107637
H19   H     H_    0.851407 0.328850 0.585804 0.114241
H20   H     H_    0.340765 0.106269 0.371419 0.122336
H21   H     H_    0.214013 0.080110 0.331574 0.100603
H22   H     H_    0.143315 0.941169 0.333622 0.104009
H23   H     H_    0.713583 0.002551 0.465320 0.126336
H24   H     H_    0.200912 0.827142 0.375127 0.107637
H25   H     H_    0.328850 0.851407 0.414195 0.114241
H26   H     H_    0.659235 0.106269 0.628581 0.122335
H27   H     H_    0.785987 0.080110 0.668426 0.100603
H28   H     H_    0.856685 0.941168 0.666378 0.104009
H29   H     H_    0.799087 0.827141 0.624873 0.107637
H30   H     H_    0.671149 0.851407 0.585805 0.114241
H31   H     H_    0.893730 0.340765 0.371419 0.122335
H32   H     H_    0.919890 0.214013 0.331574 0.100603
H33   H     H_    0.058832 0.143315 0.333622 0.104009
H34   H     H_    0.286417 0.002552 0.534680 0.126335
H35   H     H_    0.172859 0.200913 0.375127 0.107637
H36   H     H_    0.148593 0.328851 0.414195 0.114241
H37   H     H_    0.893730 0.659235 0.628581 0.122336
H38   H     H_    0.919890 0.785987 0.668426 0.100603
H39   H     H_    0.058831 0.856685 0.666378 0.104009
H40   H     H_    0.172858 0.799087 0.624873 0.107637
H41   H     H_    0.148593 0.671150 0.585805 0.114241
H42   H     H_    0.659235 0.893730 0.371419 0.122336
H43   H     H_    0.785987 0.919890 0.331574 0.100603
H44   H     H_    0.856685 0.058831 0.333622 0.104009
H45   H     H_    0.997448 0.713583 0.465320 0.126335
H46   H     H_    0.799088 0.172858 0.375128 0.107637
H47   H     H_    0.671150 0.148593 0.414195 0.114241
H48   H     H_    0.340765 0.893731 0.628581 0.122336
H49   H     H_    0.214013 0.919890 0.668426 0.100603
H50   H     H_    0.143315 0.058832 0.666378 0.104009
H51   H     H_    0.200913 0.172858 0.624873 0.107637
H52   H     H_    0.328850 0.148593 0.585805 0.114241
H53   H     H_    0.606269 0.159235 0.871419 0.122336
H54   H     H_    0.580110 0.285987 0.831574 0.100603
H55   H     H_    0.441168 0.356685 0.833622 0.104009
H56   H     H_    0.997449 0.286417 0.534680 0.126336
H57   H     H_    0.327141 0.299087 0.875127 0.107637
H58   H     H_    0.351407 0.171150 0.914195 0.114241
H59   H     H_    0.606269 0.840765 0.128581 0.122336
H60   H     H_    0.580110 0.714013 0.168426 0.100603
H61   H     H_    0.441169 0.643315 0.166378 0.104009
H62   H     H_    0.327142 0.700912 0.124872 0.107637
H63   H     H_    0.351407 0.828850 0.085805 0.114241
H64   H     H_    0.840765 0.606269 0.871419 0.122336
H65   H     H_    0.714013 0.580110 0.831574 0.100603
H66   H     H_    0.643315 0.441168 0.833622 0.104009
H67   H     H_    0.286417 0.997448 0.465320 0.126335
H68   H     H_    0.700913 0.327142 0.875127 0.107637
H69   H     H_    0.828850 0.351407 0.914195 0.114241
H70   H     H_    0.159235 0.606269 0.128581 0.122335
H71   H     H_    0.285987 0.580110 0.168426 0.100603
H72   H     H_    0.356685 0.441168 0.166378 0.104009
H73   H     H_    0.299087 0.327141 0.124873 0.107637
H74   H     H_    0.171149 0.351407 0.085805 0.114241
H75   H     H_    0.393730 0.840765 0.871419 0.122335
H76   H     H_    0.419890 0.714013 0.831574 0.100603
H77   H     H_    0.558832 0.643315 0.833622 0.104009
H78   H     H_    0.713583 0.997448 0.534680 0.126335
H79   H     H_    0.672859 0.700913 0.875127 0.107637
H80   H     H_    0.648593 0.828851 0.914195 0.114241
H81   H     H_    0.393730 0.159235 0.128581 0.122336
H82   H     H_    0.419890 0.285987 0.168426 0.100603
H83   H     H_    0.558831 0.356685 0.166378 0.104009
H84   H     H_    0.672858 0.299087 0.124873 0.107637
H85   H     H_    0.648593 0.171150 0.085805 0.114241
H86   H     H_    0.159235 0.393730 0.871419 0.122336
H87   H     H_    0.285987 0.419890 0.831574 0.100603
H88   H     H_    0.356685 0.558831 0.833622 0.104009
H89   H     H_    0.502552 0.786417 0.965320 0.126335
H90   H     H_    0.299088 0.672858 0.875127 0.107637
H91   H     H_    0.171150 0.648593 0.914195 0.114241
H92   H     H_    0.840765 0.393731 0.128581 0.122336
H93   H     H_    0.714013 0.419890 0.168426 0.100603
H94   H     H_    0.643315 0.558832 0.166378 0.104009
H95   H     H_    0.700913 0.672858 0.124873 0.107637
H96   H     H_    0.828850 0.648593 0.085805 0.114241
O1    O     O_3   0.500000 0.000000 0.250000 -0.441324
O2    O     O_R   0.500000 0.930770 0.662510 -0.540378
O3    O     O_R   0.930770 0.500000 0.337490 -0.540378
O4    O     O_R   0.069230 0.500000 0.662510 -0.540378
O5    O     O_R   0.000000 0.430770 0.837490 -0.540378
O6    O     O_R   0.000000 0.569230 0.162510 -0.540378
O7    O     O_R   0.569230 0.000000 0.837490 -0.540378
O8    O     O_R   0.430770 0.000000 0.162510 -0.540378
O9    O     O_R   0.000000 0.569230 0.837490 -0.540378
O10   O     O_R   0.000000 0.430770 0.162510 -0.540378
O11   O     O_R   0.430770 0.000000 0.837490 -0.540378
O12   O     O_3   0.500000 0.000000 0.750000 -0.441324
O13   O     O_R   0.569230 0.000000 0.162510 -0.540378
O14   O     O_R   0.402530 0.166640 0.272980 -0.538955
O15   O     O_R   0.597470 0.833360 0.727020 -0.532343
O16   O     O_R   0.833360 0.402530 0.272980 -0.538955
O17   O     O_R   0.166640 0.597470 0.727020 -0.532343
O18   O     O_R   0.597470 0.833360 0.272980 -0.538955
O19   O     O_R   0.402530 0.166640 0.727020 -0.532343
O20   O     O_R   0.166640 0.597470 0.272980 -0.538955
O21   O     O_R   0.833360 0.402530 0.727020 -0.532343
O22   O     O_R   0.402530 0.833360 0.727020 -0.538955
O23   O     O_3   0.000000 0.500000 0.250000 -0.441324
O24   O     O_R   0.597470 0.166640 0.272980 -0.532344
O25   O     O_R   0.833360 0.597470 0.727020 -0.538955
O26   O     O_R   0.166640 0.402530 0.272980 -0.532344
O27   O     O_R   0.597470 0.166640 0.727020 -0.538955
O28   O     O_R   0.402530 0.833360 0.272980 -0.532344
O29   O     O_R   0.166640 0.402530 0.727020 -0.538955
O30   O     O_R   0.833360 0.597470 0.272980 -0.532344
O31   O     O_R   0.902530 0.666640 0.772980 -0.538955
O32   O     O_R   0.097470 0.333360 0.227020 -0.532343
O33   O     O_R   0.333360 0.902530 0.772980 -0.538955
O34   O     O_3   1.000000 0.500000 0.750000 -0.441324
O35   O     O_R   0.666640 0.097470 0.227020 -0.532343
O36   O     O_R   0.097470 0.333360 0.772980 -0.538955
O37   O     O_R   0.902530 0.666640 0.227020 -0.532343
O38   O     O_R   0.666640 0.097470 0.772980 -0.538955
O39   O     O_R   0.333360 0.902530 0.227020 -0.532343
O40   O     O_R   0.902530 0.333360 0.227020 -0.538955
O41   O     O_R   0.097470 0.666640 0.772980 -0.532344
O42   O     O_R   0.333360 0.097470 0.227020 -0.538955
O43   O     O_R   0.666640 0.902530 0.772980 -0.532344
O44   O     O_R   0.097470 0.666640 0.227020 -0.538955
O45   O     O_R   0.500000 0.930770 0.337490 -0.540378
O46   O     O_R   0.902530 0.333360 0.772980 -0.532344
O47   O     O_R   0.666640 0.902530 0.227020 -0.538955
O48   O     O_R   0.333360 0.097470 0.772980 -0.532344
O49   O     O_R   0.500000 0.069230 0.662510 -0.540378
O50   O     O_R   0.069230 0.500000 0.337490 -0.540378
O51   O     O_R   0.930770 0.500000 0.662510 -0.540378
O52   O     O_R   0.500000 0.069230 0.337490 -0.540378
Zn1   Zn    Zn3+2 0.401050 0.000000 0.217300 0.948832
Zn2   Zn    Zn3+2 0.098950 0.500000 0.282700 0.948832
Zn3   Zn    Zn3+2 0.500000 0.901050 0.717300 0.948832
Zn4   Zn    Zn3+2 0.500000 0.098950 0.282700 0.948832
Zn5   Zn    Zn3+2 0.098950 0.500000 0.717300 0.948832
Zn6   Zn    Zn3+2 0.901050 0.500000 0.282700 0.948832
Zn7   Zn    Zn3+2 0.500000 0.098950 0.717300 0.948832
Zn8   Zn    Zn3+2 0.500000 0.901050 0.282700 0.948832
Zn9   Zn    Zn3+2 0.598950 0.000000 0.782700 0.948832
Zn10  Zn    Zn3+2 0.000000 0.401050 0.217300 0.948832
Zn11  Zn    Zn3+2 0.000000 0.598950 0.782700 0.948832
Zn12  Zn    Zn3+2 0.598950 0.000000 0.217300 0.948832
Zn13  Zn    Zn3+2 0.401050 0.000000 0.782700 0.948832
Zn14  Zn    Zn3+2 0.000000 0.598950 0.217300 0.948832
Zn15  Zn    Zn3+2 0.000000 0.401050 0.782700 0.948832
Zn16  Zn    Zn3+2 0.901050 0.500000 0.717300 0.948832

loop_
_geom_bond_atom_site_label_1
_geom_bond_atom_site_label_2
_ccdc_geom_bond_type
C37   H32   S    
C101  O31   A    
C75   C76   A    
O7    Zn9   S    
C19   C20   A    
C166  C193  A    
O16   Zn6   S    
C55   C56   A    
C112  C158  S    
O39   Zn1   S    
C1    O52   A    
C141  C154  A    
C108  C109  A    
O12   Zn3   S    
C110  C111  A    
O31   Zn11  S    
C175  C188  A    
C75   H64   S    
C4    C199  A    
C150  C172  A    
C51   H44   S    
C179  O8    A    
O44   Zn14  S    
C164  C191  A    
C113  O26   A    
O14   Zn4   S    
C81   C86   A    
O27   Zn7   S    
O26   Zn2   S    
C59   C60   A    
C21   C22   A    
C3    H4    S    
C104  C105  A    
O34   Zn5   S    
C45   C47   A    
C15   C20   A    
C146  C161  S    
C150  C159  A    
C51   C52   A    
C165  C183  A    
C176  C185  A    
C166  C184  A    
O15   Zn3   S    
C90   O35   A    
O8    Zn1   S    
C115  O27   A    
C126  C129  T    
C181  C182  A    
C177  C186  A    
C16   H15   S    
C65   H57   S    
C183  C184  A    
C53   H47   S    
C37   C38   A    
C117  O36   A    
C68   O46   A    
C56   H49   S    
C103  H87   S    
C124  O3    A    
C101  O25   A    
C28   C33   A    
O10   Zn10  S    
C43   C44   A    
C67   C147  S    
O35   Zn12  S    
C21   C139  S    
C193  H34   S    
C39   C40   A    
C118  O37   A    
C113  O32   A    
C119  C136  T    
C192  H23   S    
C72   C73   A    
C120  C134  T    
C153  C175  A    
C100  C106  A    
C101  C122  S    
C191  C194  A    
C64   C65   A    
C109  H93   S    
C81   C149  S    
C1    O45   A    
C69   C70   A    
C169  C182  A    
C13   O40   A    
O1    Zn4   S    
C146  O5    A    
C88   C89   A    
C98   C99   A    
C22   C23   A    
C57   O20   A    
C149  C162  A    
C79   O33   A    
C157  C162  S    
O34   Zn11  S    
C34   C141  S    
C163  C181  A    
O19   Zn7   S    
C90   C123  S    
O46   Zn15  S    
O3    Zn6   S    
C3    C6    A    
C139  C156  A    
C38   H33   S    
C97   C98   A    
C57   O44   A    
C169  C195  A    
C85   C86   A    
C100  C152  S    
O49   Zn7   S    
C36   C37   A    
C80   H69   S    
O23   Zn6   S    
C38   C39   A    
C145  C159  A    
C78   C80   A    
C198  H89   S    
C165  C192  A    
C77   H66   S    
O21   Zn16  S    
C140  C158  A    
C10   H10   S    
C31   C32   A    
C146  O9    A    
C95   H81   S    
C199  H2    S    
C107  C108  A    
C172  C198  A    
C89   C91   A    
C9    C10   A    
O25   Zn16  S    
C152  C161  A    
C79   C125  S    
O22   Zn3   S    
C138  C169  A    
C29   H26   S    
C147  C160  A    
C190  O42   A    
C48   C53   A    
C111  H95   S    
C50   H43   S    
C91   C92   A    
C27   H25   S    
C25   C26   A    
C112  O2    A    
C1    C156  S    
C29   C30   A    
C174  C187  A    
O4    Zn5   S    
C147  C177  A    
C83   C84   A    
C172  C185  A    
C193  C196  A    
O17   Zn5   S    
C17   C18   A    
C41   C47   A    
O1    Zn8   S    
C25   H22   S    
C107  C153  S    
C104  H88   S    
C140  C171  A    
C2    O15   A    
C59   H51   S    
C20   H19   S    
C116  O39   A    
C52   C53   A    
C54   C55   A    
C148  C178  A    
C179  O13   A    
O12   Zn7   S    
C72   H62   S    
C55   H48   S    
C102  H86   S    
C41   C142  S    
O45   Zn8   S    
C170  C196  A    
C108  H92   S    
C2    O43   A    
C87   C93   A    
C56   C58   A    
C7    C180  A    
C34   C36   A    
C102  C103  A    
C10   C11   A    
C63   C64   A    
C24   C130  S    
C117  O29   A    
C49   C50   A    
C195  H56   S    
C73   H63   S    
C138  C155  A    
C62   H53   S    
C54   C144  S    
C87   C88   A    
C114  H96   S    
C173  C199  A    
C168  O11   A    
C41   C42   A    
C157  O6    A    
C4    H5    S    
C77   C78   A    
C110  H94   S    
O23   Zn2   S    
C26   C27   A    
C74   C148  S    
C28   C29   A    
C88   H75   S    
C97   H83   S    
C142  C164  A    
C30   C31   A    
C98   H84   S    
C63   H54   S    
C14   H14   S    
C18   C19   A    
C7    C200  A    
C91   H77   S    
C61   C145  S    
C143  C165  A    
C180  C188  A    
C5    H6    S    
C23   H21   S    
C16   C17   A    
C87   C150  S    
C2    C132  S    
C70   C71   A    
C67   C73   A    
C17   H16   S    
C69   H59   S    
C64   H55   S    
C70   H60   S    
C21   C27   A    
C74   C80   A    
C6    C178  A    
O38   Zn9   S    
C12   H13   S    
O23   Zn10  S    
C133  C190  S    
C49   H42   S    
O12   Zn9   S    
O2    Zn3   S    
C171  C184  A    
O18   Zn8   S    
C84   C85   A    
O24   Zn4   S    
C66   H58   S    
C94   C151  S    
C149  C180  A    
C48   C143  S    
C144  C166  A    
C8    C137  S    
C79   O22   A    
C112  O49   A    
C107  C114  A    
C62   C63   A    
C190  O14   A    
C189  C195  A    
O33   Zn13  S    
C145  C176  A    
C50   C51   A    
C13   C131  S    
C163  C189  A    
C19   H18   S    
C192  C197  A    
C83   H71   S    
C117  C127  S    
C35   O18   A    
C178  C187  A    
C3    C175  A    
C48   C49   A    
O36   Zn15  S    
C157  O10   A    
C42   C43   A    
C127  C128  T    
C137  C167  A    
C44   C45   A    
O41   Zn11  S    
C22   H20   S    
C32   H29   S    
O43   Zn9   S    
C123  C131  T    
C35   O47   A    
C30   H27   S    
C24   O17   A    
C105  C106  A    
C174  C200  A    
O1    Zn12  S    
C153  C162  A    
C135  O51   A    
C32   C33   A    
C68   C134  S    
C58   C59   A    
C187  C188  A    
C90   O24   A    
C109  C110  A    
O48   Zn13  S    
C185  C186  A    
O32   Zn10  S    
C36   H31   S    
O6    Zn14  S    
C92   C93   A    
C137  C154  A    
C111  C114  A    
C124  O50   A    
C65   C66   A    
C94   C95   A    
C164  C182  A    
C71   C72   A    
C82   C83   A    
C4    C176  A    
O40   Zn10  S    
C103  C104  A    
C135  O4    A    
C71   H61   S    
C24   O41   A    
C151  C173  A    
C124  C154  S    
C170  C183  A    
C95   C96   A    
C28   C140  S    
C40   H36   S    
C81   C82   A    
C54   C60   A    
C68   O21   A    
C34   C40   A    
C148  C161  A    
C86   H74   S    
C46   C128  S    
O37   Zn14  S    
O13   Zn12  S    
C15   C16   A    
O52   Zn4   S    
C135  C155  S    
C159  C168  S    
C139  C170  A    
C105  H90   S    
C93   H80   S    
C11   H11   S    
C61   C66   A    
O1    Zn1   S    
C85   H73   S    
C8    C9    A    
C194  H45   S    
C89   H76   S    
C57   C136  S    
C142  C155  A    
C35   C129  S    
C46   O48   A    
C191  H12   S    
C15   C138  S    
C152  C174  A    
O42   Zn1   S    
C76   H65   S    
C61   C62   A    
C125  C130  T    
C122  C132  T    
C42   H37   S    
O50   Zn2   S    
C99   H85   S    
C46   O19   A    
C173  C186  A    
C74   C75   A    
C84   H72   S    
C76   C77   A    
C9    H9    S    
C47   H41   S    
C189  H1    S    
C96   H82   S    
C67   C69   A    
C78   H68   S    
O28   Zn8   S    
C160  C179  S    
O34   Zn15  S    
C43   H38   S    
C168  O7    A    
O11   Zn13  S    
C96   C97   A    
C100  C102  A    
C113  C121  S    
O23   Zn14  S    
C5    C177  A    
C6    H7    S    
C197  H78   S    
C12   C14   A    
O12   Zn13  S    
C141  C163  A    
C167  C194  A    
C58   H50   S    
C144  C158  A    
C33   H30   S    
C116  O28   A    
C44   H39   S    
C115  O38   A    
C8    C14   A    
O51   Zn16  S    
C26   H24   S    
C7    H8    S    
C52   H46   S    
O9    Zn11  S    
C11   C12   A    
C5    C198  A    
C116  C119  S    
C82   H70   S    
C13   O16   A    
C151  C160  A    
C92   H79   S    
C45   H40   S    
C171  C197  A    
C106  H91   S    
C39   H35   S    
C143  C156  A    
C167  C181  A    
C94   C99   A    
C200  H3    S    
C23   C25   A    
O34   Zn16  S    
O47   Zn12  S    
C118  O30   A    
O30   Zn6   S    
C115  C120  S    
C60   H52   S    
C196  H67   S    
C118  C126  S    
C121  C133  T    
C31   H28   S    
C18   H17   S    
O5    Zn15  S    
O29   Zn5   S    
O20   Zn2   S    
