data_mof_unit_45283.cif
_audit_creation_date              2012-12-11T17:05:26-0500
_audit_creation_method            fapswitch 2.2
_symmetry_space_group_name_H-M    P1
_symmetry_Int_Tables_number       1
_space_group_crystal_system       triclinic
_cell_length_a                    7.002286
_cell_length_b                    14.712821
_cell_length_c                    15.881977
_cell_angle_alpha                 90.117486
_cell_angle_beta                  89.772598
_cell_angle_gamma                 90.201606
_cell_volume                      1636.18855045

loop_
_atom_site_label
_atom_site_type_symbol
_atom_type_description
_atom_site_fract_x
_atom_site_fract_y
_atom_site_fract_z
_atom_type_partial_charge
O1    O     O_R   0.494380 0.415640 0.412830 -0.535881
O2    O     O_R   0.823960 0.405540 0.586560 -0.543519
O3    O     O_R   0.994270 0.584360 0.587170 -0.538212
C1    C     C_R   0.654165 0.380371 0.612268 0.669258
O4    O     O_R   0.824090 0.404620 0.413450 -0.541855
O5    O     O_R   0.994400 0.583430 0.412820 -0.539078
C2    C     C_R   0.655367 0.382762 0.384405 0.686286
O6    O     O_R   0.494250 0.416570 0.587180 -0.543157
O7    O     O_3   0.660800 0.558670 0.500000 -0.372440
V1    V     V_3+5 0.935650 0.489120 0.500000 1.366046
O8    O     O_R   0.324110 0.594460 0.413440 -0.539998
C3    C     C_R   0.155638 0.615595 0.384124 0.695230
O9    O     O_R   0.323980 0.595380 0.586550 -0.549684
C4    C     C_R   0.155741 0.610709 0.620987 0.671139
V2    V     V_3+5 0.435660 0.510880 0.500000 1.364621
O10   O     O_3   0.160640 0.441330 0.500000 -0.369230
C5    C     C_3   0.956702 0.667698 0.751424 0.018154
H1    H     H_    0.831802 0.667219 0.708479 0.115570
C6    C     C_3   0.935552 0.752268 0.809801 -0.361318
H2    H     H_    0.895299 0.732954 0.875345 0.132133
H3    H     H_    0.815693 0.794903 0.786536 0.136124
H4    H     H_    0.009753 0.783483 0.617227 0.158500
H5    H     H_    0.032140 0.901989 0.711475 0.141569
C7    C     C_3   0.141260 0.775607 0.655637 -0.447302
C8    C     C_3   0.322297 0.675778 0.755531 0.369204
C9    C     C_3   0.144414 0.678216 0.695373 0.046035
H6    H     H_    0.451367 0.697871 0.719366 0.040264
C10   C     C_3   0.121942 0.809643 0.811960 0.046030
C11   C     C_3   0.147116 0.851736 0.723699 -0.372787
C12   C     C_3   0.295656 0.746405 0.827469 -0.327133
H7    H     H_    0.275600 0.711876 0.889244 0.150010
H8    H     H_    0.429612 0.786983 0.832717 0.115189
H9    H     H_    0.264999 0.784704 0.612209 0.144676
H10   H     H_    0.285737 0.888806 0.720045 0.143765
C13   C     C_R   0.284041 0.806143 0.231502 0.067836
C14   C     C_R   0.118792 0.815279 0.183128 -0.099590
C15   C     C_R   0.963475 0.758495 0.203411 -0.195211
H11   H     H_    0.838108 0.759201 0.164439 0.139786
C16   C     C_R   0.975270 0.695255 0.269842 -0.195157
H12   H     H_    0.859109 0.649362 0.281929 0.126157
C17   C     C_R   0.143426 0.684467 0.316235 -0.094918
C18   C     C_R   0.297961 0.739082 0.293462 0.095735
C19   C     C_3   0.492053 0.712143 0.263528 -0.049762
C20   C     C_3   0.481113 0.789440 0.200270 -0.409369
H13   H     H_    0.597718 0.725655 0.313904 0.115349
H14   H     H_    0.486835 0.768569 0.132991 0.178182
H15   H     H_    0.576525 0.847569 0.215975 0.148451
C21   C     C_R   0.482846 0.303611 0.731851 0.088771
C22   C     C_R   0.644363 0.311564 0.680355 -0.110946
C23   C     C_R   0.799495 0.254216 0.697812 -0.180141
H16   H     H_    0.923877 0.255524 0.657559 0.142246
C24   C     C_R   0.790052 0.190406 0.763752 -0.189113
H17   H     H_    0.908074 0.144356 0.772691 0.132387
C25   C     C_R   0.624709 0.181992 0.814022 -0.112107
C26   C     C_R   0.473728 0.241128 0.797710 0.120597
C27   C     C_3   0.272342 0.216697 0.778437 -0.410247
C28   C     C_3   0.283654 0.282767 0.705729 -0.414940
H18   H     H_    0.173638 0.238996 0.829374 0.178751
H19   H     H_    0.255857 0.144724 0.758057 0.161626
H20   H     H_    0.187863 0.341580 0.713596 0.172397
H21   H     H_    0.276850 0.249206 0.642972 0.170578
C29   C     C_R   0.489056 0.254331 0.308192 0.106904
C30   C     C_R   0.647057 0.312186 0.317231 -0.109445
C31   C     C_R   0.800485 0.299325 0.260789 -0.181676
H22   H     H_    0.924880 0.342663 0.264758 0.133030
C32   C     C_R   0.789123 0.234996 0.194817 -0.179041
H23   H     H_    0.906280 0.229982 0.150550 0.133330
C33   C     C_R   0.623232 0.181974 0.182699 -0.110766
C34   C     C_R   0.477361 0.191031 0.242742 0.101863
C35   C     C_3   0.270342 0.209040 0.230118 -0.418555
C36   C     C_3   0.283064 0.277648 0.301530 -0.399984
H24   H     H_    0.180453 0.148911 0.245688 0.173440
H25   H     H_    0.241609 0.240721 0.167976 0.172242
H26   H     H_    0.200904 0.257064 0.358453 0.175014
H27   H     H_    0.261235 0.349035 0.280862 0.168406
O11   O     O_R   0.771490 0.080820 0.910070 -0.540491
O12   O     O_R   0.441590 0.092730 0.083780 -0.537783
O13   O     O_R   0.271350 0.913900 0.084390 -0.535492
C37   C     C_R   0.610615 0.115151 0.112381 0.697122
O14   O     O_R   0.441780 0.091820 0.910670 -0.539655
O15   O     O_R   0.271540 0.912980 0.910040 -0.542655
C38   C     C_R   0.611212 0.112875 0.881436 0.691311
O16   O     O_R   0.771300 0.081740 0.084420 -0.538223
O17   O     O_3   0.604960 0.938700 0.997240 -0.373542
V3    V     V_3+5 0.330090 0.008230 0.997220 1.386862
O18   O     O_R   0.941820 0.901930 0.910640 -0.544580
C39   C     C_R   0.110627 0.881644 0.880530 0.676532
O19   O     O_R   0.941630 0.902840 0.083750 -0.543380
C40   C     C_R   0.110132 0.880794 0.112323 0.692888
V4    V     V_3+5 0.830090 0.986410 0.997190 1.378457
O20   O     O_3   0.105080 0.055990 0.997200 -0.369681
C41   C     C_3   0.511361 0.616137 0.222510 -0.308738
C42   C     C_3   0.347863 0.584426 0.165263 -0.719247
H28   H     H_    0.224807 0.559727 0.202923 0.211109
H29   H     H_    0.300719 0.638873 0.122008 0.227556
H30   H     H_    0.397579 0.526205 0.126439 0.201055
H31   H     H_    0.643008 0.615550 0.183391 0.165831
H32   H     H_    0.530956 0.564909 0.272979 0.174320
C43   C     C_3   0.939213 0.582475 0.809337 -0.332024
C44   C     C_3   0.948107 0.491686 0.764559 -0.725687
H33   H     H_    0.920054 0.435609 0.809695 0.206983
H34   H     H_    0.841073 0.489721 0.714787 0.216019
H35   H     H_    0.087858 0.481503 0.735548 0.229881
H36   H     H_    0.045013 0.583770 0.861032 0.231093
H37   H     H_    0.798621 0.585442 0.841854 0.169561
O21   O     O_3   0.346369 0.590309 0.795018 -0.568174
C45   C     C_3   0.471128 0.532555 0.751306 -0.255157
H38   H     H_    0.576303 0.567859 0.710657 0.126291
H39   H     H_    0.387296 0.485761 0.712443 0.161151
H40   H     H_    0.547257 0.490257 0.797901 0.160164

loop_
_geom_bond_atom_site_label_1
_geom_bond_atom_site_label_2
_ccdc_geom_bond_type
C14   C40   S    
C21   C26   A    
C32   C33   A    
C26   C27   S    
C42   H28   S    
C17   C18   A    
C13   C14   A    
C1    O6    A    
V3    O20   S    
C41   H32   S    
C21   C28   S    
C16   C17   A    
O14   V3    S    
C5    C9    S    
H5    C11   S    
C10   C11   S    
C6    H3    S    
C15   H11   S    
C7    C9    S    
O5    C3    A    
C12   H7    S    
O21   C45   S    
V2    O10   S    
C27   C28   S    
C13   C18   A    
C7    C11   S    
C41   C42   S    
O8    V2    S    
C6    H2    S    
C24   C25   A    
C33   C34   A    
C37   O16   A    
C41   H31   S    
C23   C24   A    
C45   H38   S    
C35   C36   S    
O1    V2    S    
O7    V1    S    
C20   H15   S    
C33   C37   S    
C32   H23   S    
O12   V3    S    
C42   H29   S    
O9    C4    A    
C45   H39   S    
O17   V4    S    
C35   H25   S    
C20   H14   S    
C8    O21   S    
C23   H16   S    
O12   C37   A    
O13   C40   A    
C43   H37   S    
C36   H27   S    
O17   V3    S    
O14   C38   A    
O18   V4    S    
O11   C38   A    
C16   H12   S    
O4    C2    A    
O18   C39   A    
C28   H20   S    
C8    C9    S    
C11   H10   S    
C44   H35   S    
C29   C34   A    
C31   C32   A    
O2    C1    A    
C19   C20   S    
C29   C30   A    
C6    C10   S    
C5    C43   S    
C43   C44   S    
C10   C39   S    
C44   H34   S    
C5    H1    S    
C4    C9    S    
C13   C20   S    
C19   H13   S    
C2    C30   S    
O15   C39   A    
O3    C4    A    
O13   V3    S    
C21   C22   A    
O19   V4    S    
C42   H30   S    
O9    V2    S    
C45   H40   S    
H4    C7    S    
C8    H6    S    
C18   C19   S    
O2    V1    S    
C25   C38   S    
C24   H17   S    
C3    C17   S    
C8    C12   S    
O16   V4    S    
C25   C26   A    
C14   C15   A    
O1    C2    A    
C19   C41   S    
O5    V1    S    
C36   H26   S    
O8    C3    A    
C28   H21   S    
O6    V2    S    
C7    H9    S    
C27   H19   S    
C1    C22   S    
C31   H22   S    
C10   C12   S    
O7    V2    S    
O4    V1    S    
C15   C16   A    
O3    V1    S    
V1    O10   S    
C12   H8    S    
V4    O20   S    
C44   H33   S    
C5    C6    S    
C27   H18   S    
C29   C36   S    
C43   H36   S    
C34   C35   S    
C30   C31   A    
O19   C40   A    
C22   C23   A    
C35   H24   S    
O15   V3    S    
O11   V4    S    
