data_mof_unit_40213.cif
_audit_creation_date              2013-03-05T16:10:35-0500
_audit_creation_method            fapswitch 2.2
_symmetry_space_group_name_H-M    P1
_symmetry_Int_Tables_number       1
_space_group_crystal_system       triclinic
_cell_length_a                    16.366242
_cell_length_b                    14.612649
_cell_length_c                    9.398397
_cell_angle_alpha                 88.779598
_cell_angle_beta                  89.069513
_cell_angle_gamma                 89.48752
_cell_volume                      2246.77634399

loop_
_atom_site_label
_atom_site_type_symbol
_atom_site_description
_atom_site_fract_x
_atom_site_fract_y
_atom_site_fract_z
_atom_type_partial_charge
O1    O     O_R   0.091250 0.408820 0.620260 -0.568244
O2    O     O_R   0.091250 0.408820 0.379740 -0.610918
O3    O     O_R   0.091250 0.591180 0.620260 -0.596294
O4    O     O_R   0.091250 0.591180 0.379740 -0.603819
O5    O     O_R   0.591250 0.908820 0.620260 -0.566881
O6    O     O_R   0.591250 0.908820 0.379740 -0.624540
O7    O     O_R   0.591250 0.091180 0.620260 -0.596887
O8    O     O_R   0.591250 0.091180 0.379740 -0.574442
C1    C     C_R   0.122049 0.381765 0.499372 0.896197
C2    C     C_R   0.116149 0.625364 0.498499 0.906546
C3    C     C_R   0.619345 0.878368 0.499545 0.869308
C4    C     C_R   0.619946 0.120491 0.498172 0.905327
O9    O     O_R   0.908940 0.408800 0.620260 -0.574961
O10   O     O_R   0.908940 0.408800 0.379740 -0.612418
O11   O     O_R   0.908940 0.591200 0.620260 -0.599857
O12   O     O_R   0.908940 0.591200 0.379740 -0.585349
O13   O     O_R   0.408940 0.908800 0.620260 -0.573046
O14   O     O_R   0.408940 0.908800 0.379740 -0.615381
O15   O     O_R   0.408940 0.091200 0.620260 -0.595505
O16   O     O_R   0.408940 0.091200 0.379740 -0.587837
C5    C     C_R   0.881225 0.377776 0.502306 0.875039
C6    C     C_R   0.882509 0.622998 0.499114 0.920720
C7    C     C_R   0.380445 0.879175 0.502956 0.885188
C8    C     C_R   0.387410 0.128035 0.499458 0.932451
Cu1   Cu    Cu3+1 0.000100 0.500000 0.642410 0.969430
Cu2   Cu    Cu3+1 0.000100 0.500000 0.357590 0.947016
Cu3   Cu    Cu3+1 0.500100 1.000000 0.642410 0.973411
Cu4   Cu    Cu3+1 0.500100 0.000000 0.357590 0.947008
C9    C     C_3   0.779583 0.280320 0.661336 0.232966
C10   C     C_3   0.840183 0.216196 0.427113 0.229104
C11   C     C_3   0.828129 0.772458 0.605478 0.222590
C12   C     C_3   0.801031 0.735762 0.342048 0.227199
C13   C     C_3   0.278192 0.781709 0.664657 0.236976
C14   C     C_3   0.333824 0.722115 0.423928 0.217040
C15   C     C_3   0.325488 0.268740 0.628465 0.223043
C16   C     C_3   0.319226 0.258512 0.354117 0.219013
H1    H     H_    0.752039 0.344451 0.704025 0.102454
H2    H     H_    0.855030 0.234615 0.314363 0.085783
H3    H     H_    0.827405 0.741574 0.715022 0.109796
H4    H     H_    0.780174 0.679227 0.275132 0.067580
H5    H     H_    0.241172 0.841276 0.701195 0.135475
H6    H     H_    0.357837 0.742765 0.316574 0.094286
H7    H     H_    0.312621 0.227808 0.727603 0.110231
H8    H     H_    0.309374 0.209801 0.267002 0.084747
C17   C     C_3   0.220301 0.699030 0.652319 -0.392113
C18   C     C_3   0.256722 0.661941 0.402731 -0.545370
C19   C     C_3   0.255923 0.342585 0.615161 -0.442913
C20   C     C_3   0.245304 0.327031 0.356275 -0.527382
C21   C     C_3   0.710386 0.209504 0.653123 -0.438070
C22   C     C_3   0.768136 0.146534 0.429605 -0.534976
C23   C     C_3   0.756772 0.843929 0.599383 -0.460862
C24   C     C_3   0.733537 0.810157 0.348147 -0.505564
H9    H     H_    0.252514 0.633471 0.677848 0.229387
H10   H     H_    0.268134 0.588331 0.426930 0.221802
H11   H     H_    0.280128 0.411861 0.588768 0.222687
H12   H     H_    0.265373 0.399376 0.348372 0.231629
H13   H     H_    0.726468 0.144213 0.709469 0.210541
H14   H     H_    0.784274 0.084355 0.493907 0.231107
H15   H     H_    0.776770 0.913503 0.565145 0.201528
H16   H     H_    0.761009 0.878873 0.328230 0.234334
H17   H     H_    0.171498 0.705821 0.735464 0.192500
H18   H     H_    0.241165 0.660969 0.289172 0.149064
H19   H     H_    0.225140 0.349433 0.720816 0.194599
H20   H     H_    0.208514 0.320388 0.259593 0.146045
H21   H     H_    0.656012 0.235229 0.712973 0.202763
H22   H     H_    0.757917 0.120752 0.321489 0.153221
H23   H     H_    0.732295 0.853871 0.709141 0.198478
H24   H     H_    0.692639 0.803376 0.256855 0.145059
H25   H     H_    0.726712 0.414135 0.472172 0.160458
H26   H     H_    0.760667 0.369156 0.313076 0.177039
H27   H     H_    0.747878 0.610306 0.649294 0.172640
H28   H     H_    0.724768 0.588225 0.470413 0.158475
H29   H     H_    0.232547 0.928167 0.464461 0.146635
H30   H     H_    0.255565 0.867166 0.319147 0.180479
H31   H     H_    0.245760 0.104068 0.613067 0.159001
H32   H     H_    0.234626 0.099034 0.430563 0.162306
C25   C     C_3   0.741332 0.348067 0.422354 -0.666053
C26   C     C_3   0.736977 0.644560 0.544632 -0.659145
C27   C     C_3   0.238332 0.856588 0.432171 -0.671292
C28   C     C_3   0.240970 0.148796 0.517077 -0.661951
C29   C     C_3   0.814043 0.305540 0.506376 -0.133768
C30   C     C_3   0.815577 0.694392 0.496422 -0.126271
C31   C     C_3   0.311276 0.810263 0.509408 -0.131977
C32   C     C_3   0.322035 0.201771 0.498982 -0.141133
C33   C     C_3   0.184590 0.695696 0.497670 -0.103352
C34   C     C_3   0.194559 0.316552 0.497065 -0.099636
C35   C     C_3   0.689223 0.188677 0.496023 -0.093717
C36   C     C_3   0.689617 0.810535 0.497263 -0.093917
C37   C     C_3   0.157708 0.798871 0.457158 0.888821
C38   C     C_3   0.165941 0.215413 0.528842 0.898612
C39   C     C_3   0.664682 0.282842 0.423158 0.895179
C40   C     C_3   0.662656 0.711662 0.554089 0.887414
C41   C     C_3   0.966713 0.586316 0.081711 -0.167816
C42   C     C_3   0.969596 0.587829 0.914197 -0.195176
C43   C     C_3   0.951662 0.424437 0.086839 -0.175747
C44   C     C_3   0.949998 0.426637 0.919504 -0.135270
C45   C     C_3   0.482487 0.092122 0.081369 -0.179049
C46   C     C_3   0.482900 0.092332 0.913700 -0.187496
C47   C     C_3   0.439559 0.936642 0.086882 -0.173366
C48   C     C_3   0.439926 0.936930 0.919509 -0.141691
H33   H     H_    0.999823 0.645868 0.121395 0.183477
H34   H     H_    0.008063 0.645629 0.874272 0.172061
H35   H     H_    0.975992 0.357200 0.125563 0.149239
H36   H     H_    0.971605 0.360065 0.878642 0.191381
H37   H     H_    0.527151 0.142416 0.118751 0.198442
H38   H     H_    0.528612 0.142403 0.872026 0.183226
H39   H     H_    0.451558 0.865704 0.127276 0.155217
H40   H     H_    0.453524 0.866916 0.882206 0.207250
H41   H     H_    0.902038 0.594872 0.117348 0.160490
H42   H     H_    0.906751 0.601742 0.875988 0.154373
H43   H     H_    0.887551 0.429829 0.126951 0.156361
H44   H     H_    0.885972 0.437665 0.884815 0.177112
H45   H     H_    0.421428 0.115882 0.119317 0.162914
H46   H     H_    0.422293 0.116955 0.876686 0.162605
H47   H     H_    0.377430 0.956316 0.125946 0.154519
H48   H     H_    0.378211 0.956877 0.881074 0.169310
H49   H     H_    0.124598 0.545741 0.116304 0.144840
H50   H     H_    0.126498 0.540424 0.870647 0.158111
H51   H     H_    0.113469 0.424651 0.122408 0.147257
H52   H     H_    0.110726 0.419989 0.880337 0.159602
H53   H     H_    0.630818 0.015823 0.120914 0.146952
H54   H     H_    0.630425 0.018981 0.873417 0.154521
H55   H     H_    0.596853 0.900413 0.120043 0.145921
H56   H     H_    0.599180 0.902615 0.878522 0.176884
C49   C     C_3   0.085080 0.489145 0.081874 -0.198484
C50   C     C_3   0.084872 0.486766 0.914377 -0.199411
C51   C     C_3   0.581699 0.971041 0.082529 -0.197692
C52   C     C_3   0.582043 0.972060 0.914890 -0.209019
N1    N     N_3   0.001260 0.500000 0.143650 -0.149501
N2    N     N_3   0.001260 0.500000 0.856350 -0.158731
N3    N     N_3   0.501260 0.000000 0.143650 -0.147634
N4    N     N_3   0.501260 0.000000 0.856350 -0.160535
N5    N     N_R   0.839199 0.245755 0.765595 0.136400
O17   O     O_R   0.837010 0.280965 0.891309 -0.476684
O18   O     O_R   0.867392 0.162414 0.757133 -0.342690
N6    N     N_R   0.914185 0.173961 0.485615 0.171132
O19   O     O_R   0.933122 0.089448 0.458159 -0.351813
O20   O     O_R   0.965064 0.222395 0.556369 -0.324569
N7    N     N_R   0.907327 0.814657 0.583772 0.138685
O21   O     O_R   0.971760 0.764934 0.609027 -0.355125
O22   O     O_R   0.914723 0.891799 0.513273 -0.317281
N8    N     N_R   0.873055 0.773020 0.266175 0.145287
O23   O     O_R   0.946375 0.762488 0.314518 -0.281920
O24   O     O_R   0.864534 0.805731 0.137309 -0.421257
N9    N     N_R   0.335921 0.763738 0.780512 0.124707
O25   O     O_R   0.316439 0.796842 0.904120 -0.470830
O26   O     O_R   0.383075 0.691787 0.780715 -0.299452
N10   N     N_R   0.398698 0.671789 0.496998 0.147548
O27   O     O_R   0.392108 0.585959 0.535269 -0.362888
O28   O     O_R   0.458803 0.718400 0.544785 -0.336598
N11   N     N_R   0.405716 0.310817 0.647166 0.129735
O29   O     O_R   0.469255 0.258462 0.667034 -0.372457
O30   O     O_R   0.409983 0.395145 0.688081 -0.354406
N12   N     N_R   0.396747 0.305007 0.319182 0.126188
O31   O     O_R   0.463731 0.257009 0.311847 -0.346685
O32   O     O_R   0.397231 0.386457 0.260076 -0.385662
O33   O     O_3   0.115054 0.827334 0.583132 -0.584441
C53   C     C_3   0.090817 0.919881 0.593696 0.208435
H57   H     H_    0.052837 0.941469 0.502578 0.244040
H58   H     H_    0.142955 0.966652 0.600013 0.047793
C54   C     C_3   0.044330 0.930557 0.735992 -0.701150
H59   H     H_    0.020155 0.865151 0.779460 0.288617
H60   H     H_    0.086100 0.954799 0.818631 0.166308
H61   H     H_    0.992320 0.979203 0.724356 0.254505
O34   O     O_3   0.102521 0.808590 0.341192 -0.528794
C55   C     C_3   0.131301 0.778662 0.206360 0.063799
H62   H     H_    0.114419 0.706698 0.192343 0.161532
H63   H     H_    0.197564 0.783202 0.186703 0.130708
C56   C     C_3   0.091960 0.836106 0.088927 -0.743167
H64   H     H_    0.110069 0.908729 0.097908 0.232508
H65   H     H_    0.112880 0.810891 0.983653 0.199243
H66   H     H_    0.024513 0.831514 0.095517 0.306346
O35   O     O_3   0.137984 0.219310 0.673635 -0.603077
C57   C     C_3   0.103089 0.138875 0.731063 0.105854
H67   H     H_    0.151349 0.090703 0.767450 0.101451
H68   H     H_    0.062616 0.106030 0.654746 0.243134
C58   C     C_3   0.053404 0.163839 0.862673 -0.713870
H69   H     H_    0.005809 0.214474 0.833645 0.308133
H70   H     H_    0.023630 0.102177 0.910045 0.215508
H71   H     H_    0.093634 0.194685 0.942397 0.201460
O36   O     O_3   0.099610 0.187469 0.442161 -0.546421
C59   C     C_3   0.114715 0.180787 0.293568 0.019038
H72   H     H_    0.179470 0.175271 0.262421 0.109423
H73   H     H_    0.087701 0.241447 0.238152 0.159737
C60   C     C_3   0.074735 0.095346 0.237879 -0.699024
H74   H     H_    0.008027 0.106368 0.226610 0.278888
H75   H     H_    0.100893 0.079125 0.131715 0.168604
H76   H     H_    0.086829 0.036003 0.310068 0.256309
O37   O     O_3   0.603004 0.317684 0.515308 -0.576859
C61   C     C_3   0.571437 0.404081 0.475398 0.234345
H77   H     H_    0.506214 0.396942 0.451057 0.266514
H78   H     H_    0.601675 0.436584 0.380431 0.122201
C62   C     C_3   0.577413 0.464628 0.603080 -0.777746
H79   H     H_    0.640306 0.490112 0.611039 0.185081
H80   H     H_    0.533854 0.521957 0.591870 0.284225
H81   H     H_    0.562468 0.426165 0.703153 0.295941
O38   O     O_3   0.627420 0.274101 0.287538 -0.553731
C63   C     C_3   0.677099 0.245523 0.172227 0.034573
H82   H     H_    0.666423 0.171997 0.154153 0.154054
H83   H     H_    0.743280 0.254672 0.184601 0.144275
C64   C     C_3   0.651163 0.298990 0.039779 -0.738767
H84   H     H_    0.666385 0.372491 0.050056 0.233154
H85   H     H_    0.683537 0.271585 0.945570 0.226231
H86   H     H_    0.584346 0.292481 0.024248 0.263491
O39   O     O_3   0.642081 0.726442 0.700936 -0.609978
C65   C     C_3   0.600653 0.654981 0.773860 0.160647
H87   H     H_    0.638564 0.592193 0.781444 0.112958
H88   H     H_    0.541204 0.641529 0.725396 0.267011
C66   C     C_3   0.582444 0.684004 0.925223 -0.813769
H89   H     H_    0.547655 0.749343 0.925248 0.251597
H90   H     H_    0.544615 0.630805 0.979082 0.229571
H91   H     H_    0.640140 0.692460 0.984077 0.224376
O40   O     O_3   0.594547 0.671783 0.485321 -0.574344
C67   C     C_3   0.594511 0.674055 0.334544 0.028777
H92   H     H_    0.653882 0.653617 0.288803 0.114873
H93   H     H_    0.575343 0.742976 0.295931 0.168001
C68   C     C_3   0.532496 0.606762 0.277744 -0.692108
H94   H     H_    0.506252 0.562933 0.362954 0.295030
H95   H     H_    0.481500 0.644052 0.224878 0.222356
H96   H     H_    0.562128 0.560725 0.199449 0.189895

loop_
_geom_bond_atom_site_label_1
_geom_bond_atom_site_label_2
_geom_bond_distance
_ccdc_geom_bond_type
C9    N5    1.472535 S    
C2    C33   1.526747 S    
C41   C42   1.573992 S    
C35   C39   1.575609 S    
C64   H85   1.105043 S    
C56   H64   1.109681 S    
C21   C35   1.558921 S    
H25   C25   1.104535 S    
C43   C44   1.573006 S    
C48   H48   1.112531 S    
C28   C38   1.564108 S    
C28   C32   1.547191 S    
C15   C19   1.566266 S    
N9    O25   1.301698 A    
C16   N12   1.473585 S    
C55   H63   1.099489 S    
C9    C21   1.544848 S    
O35   C57   1.404958 S    
C68   H96   1.110355 S    
C39   O37   1.417562 S    
C38   O35   1.430755 S    
O34   C55   1.421078 S    
C11   C30   1.566805 S    
C21   H21   1.111937 S    
C18   H18   1.101656 S    
C6    C30   1.506099 S    
O10   C5    1.304862 A    
C19   H11   1.111979 S    
N10   O28   1.293310 A    
H53   C51   1.110630 S    
C47   H47   1.112882 S    
H52   C50   1.111346 S    
C60   H75   1.108782 S    
C50   N2    1.490762 S    
C51   N3    1.489294 S    
C66   H91   1.111228 S    
O7    Cu3   2.014359 S    
C10   H2    1.111323 S    
C64   H84   1.111284 S    
C46   N4    1.489846 S    
C57   H67   1.106731 S    
C12   C24   1.544153 S    
H28   C26   1.111799 S    
C40   O39   1.435642 S    
C24   H16   1.114800 S    
C53   C54   1.537987 S    
N9    O26   1.298638 A    
O5    Cu3   2.002540 S    
C14   N10   1.458732 S    
C53   H58   1.101161 S    
O11   C6    1.299712 A    
O6    Cu4   2.001676 S    
C36   C40   1.593187 S    
C39   O38   1.430527 S    
C62   H80   1.099587 S    
C14   H6    1.113458 S    
C61   H78   1.113066 S    
N11   O29   1.299058 A    
C63   H82   1.107168 S    
C14   C18   1.562263 S    
C15   H7    1.114612 S    
H31   C28   1.106111 S    
N12   O32   1.302723 A    
C61   C62   1.510950 S    
H56   C52   1.109883 S    
C18   C33   1.551519 S    
C45   H37   1.107626 S    
C58   H71   1.110775 S    
N11   O30   1.301458 A    
C49   C50   1.575385 S    
C10   C22   1.564200 S    
C17   H9    1.112901 S    
C58   H70   1.109630 S    
H26   C25   1.107968 S    
O1    Cu1   2.002540 S    
Cu3   N4    2.011091 S    
C56   H65   1.110937 S    
O9    Cu1   2.025522 S    
O38   C63   1.412274 S    
C15   N11   1.469530 S    
C47   H39   1.113203 S    
C41   N1    1.488659 S    
Cu1   N2    2.011091 S    
C52   N4    1.490559 S    
O14   Cu4   2.014678 S    
C54   H60   1.108755 S    
C43   H35   1.113024 S    
C45   C46   1.575662 S    
C59   H73   1.110510 S    
O12   Cu2   2.002854 S    
O7    C4    1.298376 A    
C48   H40   1.108079 S    
O14   C7    1.307921 A    
C22   H14   1.112672 S    
C19   C34   1.564048 S    
O16   C8    1.299768 A    
C24   C36   1.564713 S    
O1    C1    1.303144 A    
N10   O27   1.302290 A    
C45   N3    1.487954 S    
N6    O20   1.298101 A    
C34   C38   1.575383 S    
C41   H33   1.104013 S    
O6    C3    1.291921 A    
C33   C37   1.606452 S    
C65   H87   1.104683 S    
C60   H76   1.107998 S    
C23   H23   1.112472 S    
O16   Cu4   2.002854 S    
C26   C40   1.558121 S    
Cu1   Cu2   2.676850 S    
O36   C59   1.419554 S    
C42   H42   1.110557 S    
O33   C53   1.411011 S    
C59   C60   1.521336 S    
O13   Cu3   2.025522 S    
C53   H57   1.105222 S    
O2    C1    1.292455 A    
C17   C33   1.577212 S    
C61   H77   1.101644 S    
C9    C29   1.590315 S    
C13   C17   1.549441 S    
C15   C32   1.579779 S    
C1    C34   1.515485 S    
C22   H22   1.106951 S    
C26   C30   1.540815 S    
H55   C51   1.110738 S    
C47   C48   1.572865 S    
O13   C7    1.288784 A    
C38   O36   1.435186 S    
C25   C29   1.556367 S    
C3    C36   1.511749 S    
O8    C4    1.297623 A    
C62   H81   1.110308 S    
C18   H10   1.109481 S    
C63   C64   1.519850 S    
C66   H89   1.107270 S    
H29   C27   1.098140 S    
O9    C5    1.296772 A    
C40   O40   1.432097 S    
O2    Cu2   2.001676 S    
C42   N2    1.489944 S    
O10   Cu2   2.014678 S    
C37   O33   1.432126 S    
C13   C31   1.596455 S    
C57   C58   1.518404 S    
C37   O34   1.430701 S    
N12   O31   1.297824 A    
Cu2   N1    2.010474 S    
C13   N9    1.471064 S    
C22   C35   1.553330 S    
C55   C56   1.520265 S    
C45   H45   1.110785 S    
H51   C49   1.109859 S    
C5    C29   1.530453 S    
C62   H79   1.101963 S    
C10   N6    1.464190 S    
H30   C27   1.102655 S    
C44   H36   1.106439 S    
C55   H62   1.100822 S    
O8    Cu4   2.025203 S    
C64   H86   1.110784 S    
N8    O24   1.301691 A    
C16   H8    1.110927 S    
C23   H15   1.110341 S    
C14   C31   1.570563 S    
C20   H20   1.104619 S    
C11   N7    1.449917 S    
C51   C52   1.575209 S    
C54   H61   1.109366 S    
O15   Cu3   2.001990 S    
C44   N2    1.475882 S    
C20   H12   1.110430 S    
O39   C65   1.409602 S    
C25   C39   1.582072 S    
O12   C6    1.290191 A    
C4    C35   1.515694 S    
C67   H92   1.097668 S    
C12   N8    1.470386 S    
H32   C28   1.109022 S    
O4    C2    1.305192 A    
C11   C23   1.560667 S    
N6    O19   1.300730 A    
C67   C68   1.529660 S    
C24   H24   1.103391 S    
C23   C36   1.559189 S    
C21   H13   1.112867 S    
O4    Cu2   2.025203 S    
N7    O21   1.297441 A    
C48   N4    1.477582 S    
O5    C3    1.302882 A    
C7    C31   1.521441 S    
C68   H95   1.110926 S    
C12   C30   1.580633 S    
C46   H38   1.111988 S    
C47   N3    1.488891 S    
Cu4   N3    2.010474 S    
C13   H5    1.113196 S    
C10   C29   1.569554 S    
C63   H83   1.100873 S    
O15   C8    1.298640 A    
C68   H94   1.099049 S    
O3    C2    1.299725 A    
C8    C32   1.511650 S    
C19   H19   1.112174 S    
N7    O22   1.300920 A    
C65   C66   1.517250 S    
C60   H74   1.108591 S    
N5    O17   1.298529 A    
C54   H59   1.105339 S    
C16   C32   1.580037 S    
O40   C67   1.416752 S    
C17   H17   1.113566 S    
C44   H44   1.111800 S    
C11   H3    1.115191 S    
C16   C20   1.563645 S    
C67   H93   1.107647 S    
C12   H4    1.108454 S    
H54   C52   1.112349 S    
O37   C61   1.405674 S    
C57   H68   1.104249 S    
C27   C37   1.583978 S    
C46   H46   1.110791 S    
C27   C31   1.550202 S    
C49   N1    1.489395 S    
O3    Cu1   2.014359 S    
C42   H34   1.113042 S    
O11   Cu1   2.001990 S    
C58   H69   1.103019 S    
C9    H1    1.115784 S    
Cu3   Cu4   2.676850 S    
C43   N1    1.489437 S    
N5    O18   1.301999 A    
C66   H90   1.107036 S    
N8    O23   1.296715 A    
C43   H43   1.111834 S    
C56   H66   1.107143 S    
H50   C50   1.111100 S    
C65   H88   1.101986 S    
H49   C49   1.111192 S    
H27   C26   1.110443 S    
C20   C34   1.556266 S    
C59   H72   1.097620 S    
C41   H41   1.111797 S    
