data_mof_unit_66545.cif
_audit_creation_date              2013-03-05T15:51:46-0500
_audit_creation_method            fapswitch 2.2
_symmetry_space_group_name_H-M    P1
_symmetry_Int_Tables_number       1
_space_group_crystal_system       triclinic
_cell_length_a                    7.346424
_cell_length_b                    11.541867
_cell_length_c                    29.794671
_cell_angle_alpha                 90.000379
_cell_angle_beta                  90.004725
_cell_angle_gamma                 90.000943
_cell_volume                      2526.33330964

loop_
_atom_site_label
_atom_site_type_symbol
_atom_site_description
_atom_site_fract_x
_atom_site_fract_y
_atom_site_fract_z
_atom_type_partial_charge
O1    O     O_R   0.647170 0.849180 0.201220 -0.571189
O2    O     O_R   0.352830 0.150820 0.798780 -0.559843
O3    O     O_R   0.352830 0.150820 0.701220 -0.571251
O4    O     O_R   0.647170 0.849180 0.298780 -0.559856
O5    O     O_R   0.147170 0.650820 0.298780 -0.571247
O6    O     O_R   0.852830 0.349180 0.701220 -0.559866
O7    O     O_R   0.852830 0.349180 0.798780 -0.571207
O8    O     O_R   0.147170 0.650820 0.201220 -0.559838
O9    O     O_R   0.317430 0.862210 0.298450 -0.572500
O10   O     O_R   0.682570 0.137790 0.701550 -0.558358
O11   O     O_R   0.682570 0.137790 0.798450 -0.572496
O12   O     O_R   0.317430 0.862210 0.201550 -0.558396
O13   O     O_R   0.817430 0.637790 0.201550 -0.572521
O14   O     O_R   0.182570 0.362210 0.798450 -0.558376
O15   O     O_R   0.182570 0.362210 0.701550 -0.572470
O16   O     O_R   0.817430 0.637790 0.298450 -0.558380
H1    H     H_    0.883776 0.223691 0.459812 0.175078
H2    H     H_    0.051067 0.794180 0.541519 0.190868
H3    H     H_    0.116574 0.776264 0.959819 0.174999
H4    H     H_    0.948008 0.205911 0.041497 0.191122
H5    H     H_    0.383374 0.276252 0.040185 0.175054
H6    H     H_    0.551936 0.705905 0.958494 0.190960
H7    H     H_    0.616176 0.723664 0.540190 0.174985
H8    H     H_    0.448586 0.294134 0.458500 0.191071
C1    C     C_R   0.485398 0.887816 0.314203 0.997679
C2    C     C_R   0.515097 0.113911 0.685284 0.993793
C3    C     C_R   0.514613 0.112179 0.814202 0.997690
C4    C     C_R   0.484894 0.886091 0.185285 0.993693
C5    C     C_R   0.985385 0.612179 0.185799 0.997744
C6    C     C_R   0.015108 0.386090 0.814716 0.993773
C7    C     C_R   0.014603 0.387821 0.685798 0.997670
C8    C     C_R   0.984903 0.613906 0.314714 0.993749
H9    H     H_    0.038600 0.338791 0.598465 0.194895
H10   H     H_    0.976393 0.670302 0.401252 0.204352
H11   H     H_    0.961478 0.661249 0.098469 0.195113
H12   H     H_    0.023390 0.329694 0.901267 0.204442
H13   H     H_    0.538473 0.161246 0.901536 0.194954
H14   H     H_    0.476629 0.829691 0.098733 0.204240
H15   H     H_    0.461432 0.838760 0.401536 0.194996
H16   H     H_    0.523596 0.170297 0.598737 0.204499
O17   O     O_3   0.480630 0.680630 0.250000 -0.271962
O18   O     O_3   0.519370 0.319370 0.750000 -0.271951
O19   O     O_3   0.980630 0.819370 0.250000 -0.271949
O20   O     O_3   0.019370 0.180630 0.750000 -0.271962
V1    V     V_3+5 0.205800 0.762860 0.250000 1.333381
V2    V     V_3+5 0.794200 0.237140 0.750000 1.333423
V3    V     V_3+5 0.705800 0.737140 0.250000 1.333389
V4    V     V_3+5 0.294200 0.262860 0.750000 1.333428
C9    C     C_R   0.990056 0.533385 0.354521 -0.328901
C10   C     C_R   0.006578 0.471567 0.647029 -0.326366
C11   C     C_R   0.009990 0.466612 0.854524 -0.328950
C12   C     C_R   0.993365 0.528441 0.147027 -0.326428
C13   C     C_R   0.490021 0.966613 0.145477 -0.328883
C14   C     C_R   0.506628 0.028440 0.852974 -0.326349
C15   C     C_R   0.509947 0.033386 0.645477 -0.328953
C16   C     C_R   0.493422 0.971555 0.352974 -0.326428
C17   C     C_R   0.984023 0.336874 0.386229 0.343355
C18   C     C_R   0.005529 0.670361 0.617317 0.316632
C19   C     C_R   0.016185 0.663125 0.886232 0.343244
C20   C     C_R   0.994186 0.329655 0.117308 0.316549
C21   C     C_R   0.483817 0.163125 0.113770 0.343361
C22   C     C_R   0.505787 0.829651 0.882693 0.316532
C23   C     C_R   0.515976 0.836868 0.613773 0.343234
C24   C     C_R   0.494411 0.170346 0.382690 0.316694
C25   C     C_R   0.991155 0.412379 0.348817 0.313017
C26   C     C_R   0.992232 0.592238 0.653952 0.276968
C27   C     C_R   0.009010 0.587619 0.848820 0.313083
C28   C     C_R   0.007629 0.407764 0.153946 0.276935
C29   C     C_R   0.491008 0.087619 0.151181 0.313044
C30   C     C_R   0.492382 0.907762 0.846055 0.276953
C31   C     C_R   0.508854 0.912379 0.651184 0.313042
C32   C     C_R   0.507757 0.092228 0.346053 0.276953
C33   C     C_R   0.991275 0.577829 0.398488 -0.137784
C34   C     C_R   0.015057 0.430430 0.602698 -0.115508
C35   C     C_R   0.008655 0.422175 0.898493 -0.137628
C36   C     C_R   0.984910 0.569596 0.102699 -0.115579
C37   C     C_R   0.491363 0.922175 0.101508 -0.137593
C38   C     C_R   0.515055 0.069592 0.897303 -0.115527
C39   C     C_R   0.508724 0.077822 0.601509 -0.137691
C40   C     C_R   0.484949 0.930407 0.397303 -0.115539
C41   C     C_R   0.996056 0.503999 0.437087 0.132238
C42   C     C_R   0.001138 0.506328 0.565018 0.137237
C43   C     C_R   0.003938 0.496018 0.937088 0.132270
C44   C     C_R   0.998705 0.493700 0.065017 0.137030
C45   C     C_R   0.496083 0.996019 0.062913 0.132317
C46   C     C_R   0.501254 0.993693 0.934985 0.137200
C47   C     C_R   0.503947 0.003981 0.562913 0.132201
C48   C     C_R   0.498829 0.006304 0.434984 0.136999
C49   C     C_R   0.974339 0.383581 0.429905 -0.062456
C50   C     C_R   0.012987 0.626854 0.572966 -0.051856
C51   C     C_R   0.025831 0.616418 0.929907 -0.062617
C52   C     C_R   0.986638 0.373182 0.072960 -0.051925
C53   C     C_R   0.474172 0.116417 0.070095 -0.062485
C54   C     C_R   0.513306 0.873174 0.927041 -0.051818
C55   C     C_R   0.525659 0.883566 0.570097 -0.062579
C56   C     C_R   0.486899 0.126829 0.427039 -0.051980
C57   C     C_R   0.011809 0.545085 0.482626 -0.097197
C58   C     C_R   0.980904 0.466487 0.519566 -0.094259
C59   C     C_R   0.988040 0.454958 0.982625 -0.097420
C60   C     C_R   0.019036 0.533534 0.019568 -0.094180
C61   C     C_R   0.511974 0.954958 0.017376 -0.097156
C62   C     C_R   0.480940 0.033527 0.980434 -0.094316
C63   C     C_R   0.488167 0.045056 0.517376 -0.097474
C64   C     C_R   0.519088 0.966464 0.480435 -0.094030
C65   C     C_R   0.921593 0.352456 0.509926 0.530669
C66   C     C_R   0.059144 0.661177 0.492790 0.540491
C67   C     C_R   0.078542 0.647524 0.009933 0.531315
C68   C     C_R   0.940300 0.338940 0.992785 0.540000
C69   C     C_R   0.421407 0.147510 0.990070 0.530776
C70   C     C_R   0.559632 0.838926 0.007218 0.540020
C71   C     C_R   0.578388 0.852433 0.490074 0.531378
C72   C     C_R   0.440619 0.161106 0.507212 0.540269
C73   C     C_R   0.928180 0.311630 0.465950 -0.293045
C74   C     C_R   0.037858 0.702138 0.536541 -0.297934
C75   C     C_R   0.072065 0.688347 0.965955 -0.292632
C76   C     C_R   0.961471 0.297941 0.036533 -0.297867
C77   C     C_R   0.427903 0.188339 0.034048 -0.293002
C78   C     C_R   0.538436 0.797928 0.963468 -0.297928
C79   C     C_R   0.571788 0.811606 0.534051 -0.292571
C80   C     C_R   0.461874 0.202090 0.463465 -0.297858
N1    N     N_R   0.958480 0.635588 0.698036 0.272147
O21   O     O_R   0.828134 0.590391 0.721866 -0.290180
O22   O     O_R   0.036781 0.730415 0.711565 -0.180774
N2    N     N_R   0.984995 0.365452 0.304791 0.264987
O23   O     O_R   0.847165 0.390474 0.279151 -0.280624
O24   O     O_R   0.095629 0.282181 0.293814 -0.205495
N3    N     N_R   0.041468 0.364398 0.198026 0.272187
O25   O     O_R   0.171799 0.409630 0.221857 -0.290222
O26   O     O_R   0.963241 0.269549 0.211554 -0.180741
N4    N     N_R   0.015169 0.634541 0.804795 0.264991
O27   O     O_R   0.152948 0.609472 0.779149 -0.280646
O28   O     O_R   0.904546 0.717818 0.793813 -0.205475
N5    N     N_R   0.458577 0.864398 0.801973 0.272165
O29   O     O_R   0.328170 0.909578 0.778150 -0.290134
O30   O     O_R   0.536869 0.769569 0.788444 -0.180742
N6    N     N_R   0.484887 0.134541 0.195207 0.264958
O31   O     O_R   0.347033 0.109574 0.220841 -0.280521
O32   O     O_R   0.595575 0.217785 0.206186 -0.205516
N7    N     N_R   0.541542 0.135582 0.301970 0.272151
O33   O     O_R   0.671854 0.090353 0.278138 -0.290233
O34   O     O_R   0.463296 0.230426 0.288442 -0.180775
N8    N     N_R   0.515031 0.865463 0.695210 0.264996
O35   O     O_R   0.652817 0.890547 0.720858 -0.280704
O36   O     O_R   0.404429 0.782176 0.706192 -0.205466
N9    N     N_R   0.990456 0.212723 0.379966 0.237388
O37   O     O_R   0.892275 0.162309 0.349489 -0.323691
O38   O     O_R   0.095093 0.148789 0.404959 -0.421503
N10   N     N_R   0.005934 0.793731 0.625139 0.244327
O39   O     O_R   0.876715 0.842538 0.647830 -0.349242
O40   O     O_R   0.140775 0.857736 0.611984 -0.426883
N11   N     N_R   0.009770 0.787278 0.879973 0.237386
O41   O     O_R   0.107881 0.837687 0.849485 -0.323638
O42   O     O_R   0.905193 0.851217 0.904977 -0.421215
N12   N     N_R   0.993828 0.206282 0.125121 0.244389
O43   O     O_R   0.123145 0.157474 0.147782 -0.349305
O44   O     O_R   0.858955 0.142269 0.111989 -0.426900
N13   N     N_R   0.490212 0.287279 0.120031 0.237362
O45   O     O_R   0.392150 0.337673 0.150532 -0.323592
O46   O     O_R   0.594758 0.351230 0.095021 -0.421437
N14   N     N_R   0.506134 0.706278 0.874878 0.244337
O47   O     O_R   0.376874 0.657481 0.852193 -0.349256
O48   O     O_R   0.641012 0.642268 0.888004 -0.426874
N15   N     N_R   0.509518 0.712720 0.620038 0.237391
O49   O     O_R   0.607712 0.662302 0.650511 -0.323719
O50   O     O_R   0.404844 0.648792 0.595047 -0.421252
N16   N     N_R   0.494036 0.293717 0.374872 0.244367
O51   O     O_R   0.623300 0.342525 0.352197 -0.349271
O52   O     O_R   0.359200 0.357731 0.388021 -0.426939
O53   O     O_3   0.843825 0.284506 0.543003 -0.764692
H17   H     H_    0.818152 0.205925 0.531153 0.317847
O54   O     O_3   0.134604 0.732780 0.460582 -0.761438
H18   H     H_    0.161846 0.810033 0.473593 0.326111
O55   O     O_3   0.156334 0.715438 0.043021 -0.764883
H19   H     H_    0.182530 0.793924 0.031145 0.317795
O56   O     O_3   0.864716 0.267424 0.960565 -0.761501
H20   H     H_    0.835217 0.190732 0.973706 0.326148
O57   O     O_3   0.343570 0.215407 0.956984 -0.764626
H21   H     H_    0.317382 0.293898 0.968859 0.317805
O58   O     O_3   0.635301 0.767430 0.039432 -0.761420
H22   H     H_    0.663110 0.690311 0.026400 0.326081
O59   O     O_3   0.656203 0.784495 0.457000 -0.764914
H23   H     H_    0.681565 0.705821 0.468831 0.317748
O60   O     O_3   0.365113 0.232669 0.539423 -0.761528
H24   H     H_    0.335682 0.309366 0.526275 0.326166

loop_
_geom_bond_atom_site_label_1
_geom_bond_atom_site_label_2
_geom_bond_distance
_ccdc_geom_bond_type
O54   H18   0.992640 S    
C48   C56   1.413796 A    
O9    V1    2.017672 S    
C61   C62   1.444232 A    
C17   N9    1.445805 S    
C54   C78   1.402235 A    
C66   O54   1.382476 S    
C13   C37   1.406890 A    
N15   O49   1.297420 A    
C1    C16   1.507316 S    
C6    C11   1.507286 S    
C13   C29   1.406960 A    
C2    C15   1.507275 S    
H2    C74   1.077020 S    
C39   C47   1.431763 A    
O4    C1    1.350006 A    
C3    C14   1.507349 S    
O9    C1    1.352843 A    
O55   H19   0.991394 S    
C23   N15   1.445789 S    
C59   C68   1.416943 A    
N13   O45   1.297409 A    
C58   C65   1.415798 A    
C17   C49   1.410347 A    
C66   C74   1.395428 A    
O8    C5    1.350013 A    
O13   C5    1.352834 A    
N15   O50   1.300008 A    
C11   C35   1.406887 A    
C62   C69   1.415789 A    
N2    O24   1.300514 A    
C10   C34   1.404949 A    
H7    C79   1.081688 S    
C18   N10   1.442867 S    
H4    C76   1.077004 S    
C68   O56   1.382414 S    
C23   C55   1.410335 A    
O3    V4    1.992533 S    
C71   O59   1.383057 S    
C19   C27   1.415883 A    
C22   C30   1.419187 A    
C71   C79   1.393281 A    
O53   H17   0.991368 S    
C25   N2    1.419869 S    
O8    V1    1.992473 S    
H5    C77   1.081685 S    
C46   C54   1.413776 A    
N9    O38   1.299963 A    
C9    C25   1.406961 A    
C45   C53   1.415186 A    
C18   C26   1.419164 A    
C32   N7    1.427309 S    
O56   H20   0.991865 S    
C16   C32   1.411909 A    
C47   C55   1.415223 A    
O10   V2    2.017674 S    
C30   N5    1.427295 S    
C24   N16   1.442867 S    
N11   O41   1.297402 A    
C15   C31   1.406973 A    
O2    C3    1.350024 A    
O11   C3    1.352845 A    
N12   O44   1.296396 A    
C12   C28   1.411907 A    
O5    C8    1.352052 A    
C41   C49   1.415242 A    
O10   C2    1.350714 A    
C50   C74   1.402230 A    
O6    C7    1.350010 A    
C37   C45   1.431784 A    
N13   O46   1.300018 A    
O7    C6    1.352064 A    
C43   C59   1.441874 A    
N11   O42   1.299994 A    
N16   O52   1.296402 A    
C42   C58   1.437857 A    
C36   C44   1.427640 A    
C53   C77   1.399315 A    
O15   V4    2.017701 S    
O14   C6    1.350725 A    
O16   V3    2.017698 S    
C33   C41   1.431779 A    
C48   C64   1.437857 A    
O20   V2    1.778145 S    
C57   C58   1.444264 A    
C72   O60   1.382418 S    
C20   C52   1.414693 A    
C49   C73   1.399313 A    
H11   C36   1.079147 S    
H8    C80   1.077037 S    
H1    C73   1.081675 S    
C44   C60   1.437861 A    
O7    V2    1.992470 S    
N10   O39   1.294493 A    
C24   C56   1.414687 A    
N6    O32   1.300493 A    
C17   C25   1.415870 A    
O13   V3    2.017786 S    
O1    V3    1.992494 S    
O14   V4    2.017784 S    
C67   O55   1.383045 S    
O2    V4    1.992492 S    
C61   C70   1.416946 A    
O59   H23   0.991724 S    
O5    V1    1.992535 S    
C63   C72   1.416966 A    
N14   O48   1.296363 A    
C69   C77   1.393286 A    
O18   V4    1.778125 S    
N4    O28   1.300513 A    
O60   H24   0.991866 S    
N3    O26   1.300454 A    
H12   C35   1.076066 S    
C21   N13   1.445811 S    
O1    C4    1.352060 A    
C15   C39   1.406876 A    
H9    C34   1.079134 S    
C59   C60   1.444249 A    
C14   C30   1.411900 A    
H3    C75   1.081672 S    
C16   C40   1.404953 A    
C4    C13   1.507278 S    
C26   N1    1.427280 S    
O17   V3    1.778125 S    
H16   C39   1.076081 S    
C11   C27   1.406966 A    
C42   C50   1.413780 A    
C70   C78   1.395439 A    
C18   C50   1.414686 A    
C28   N3    1.427310 S    
C67   C75   1.393275 A    
N1    O21   1.301254 A    
C23   C31   1.415875 A    
C65   O53   1.383051 S    
C31   N8    1.419865 S    
C47   C63   1.441880 A    
C57   C66   1.417034 A    
O12   C4    1.350727 A    
O57   H21   0.991420 S    
C29   N6    1.419849 S    
C22   C54   1.414693 A    
N5    O29   1.301331 A    
C9    C33   1.406862 A    
C27   N4    1.419852 S    
C7    C10   1.507345 S    
N3    O25   1.301270 A    
C46   C62   1.437845 A    
N9    O37   1.297397 A    
N8    O36   1.300516 A    
C45   C61   1.441879 A    
C72   C80   1.395387 A    
C19   C51   1.410309 A    
C21   C29   1.415883 A    
H6    C78   1.076980 S    
C60   C67   1.415788 A    
O6    V2    1.992537 S    
C56   C80   1.402227 A    
O3    C2    1.352064 A    
N10   O40   1.296416 A    
O12   V1    2.017782 S    
C12   C36   1.404934 A    
C65   C73   1.393260 A    
C64   C71   1.415789 A    
N7    O33   1.301272 A    
C10   C26   1.411896 A    
O15   C7    1.352851 A    
H14   C37   1.076088 S    
C19   N11   1.445806 S    
O16   C8    1.350714 A    
C43   C51   1.415180 A    
H13   C38   1.079140 S    
C52   C76   1.402218 A    
C55   C79   1.399328 A    
N14   O47   1.294457 A    
C68   C76   1.395395 A    
N4    O27   1.300866 A    
O19   V1    1.778145 S    
H15   C40   1.079184 S    
N7    O34   1.300449 A    
C35   C43   1.431769 A    
N16   O51   1.294473 A    
C41   C57   1.441936 A    
C70   O58   1.382445 S    
C51   C75   1.399305 A    
C22   N14   1.442868 S    
C24   C32   1.419180 A    
C20   N12   1.442862 S    
C8    C9    1.507264 S    
N1    O22   1.300458 A    
H10   C33   1.076053 S    
O58   H22   0.992369 S    
C69   O57   1.383043 S    
N12   O43   1.294467 A    
C20   C28   1.419182 A    
C40   C48   1.427653 A    
C38   C46   1.427654 A    
C63   C64   1.444247 A    
N5    O30   1.300490 A    
N8    O35   1.300857 A    
N6    O31   1.300808 A    
O11   V2    2.017780 S    
C44   C52   1.413774 A    
C21   C53   1.410317 A    
O4    V3    1.992531 S    
C34   C42   1.427672 A    
N2    O23   1.300845 A    
C14   C38   1.404939 A    
C5    C12   1.507310 S    
