data_mof_unit_43573.cif
_audit_creation_date              2012-12-11T15:32:43-0500
_audit_creation_method            fapswitch 2.2
_symmetry_space_group_name_H-M    P1
_symmetry_Int_Tables_number       1
_space_group_crystal_system       triclinic
_cell_length_a                    6.950464
_cell_length_b                    20.444736
_cell_length_c                    24.400179
_cell_angle_alpha                 89.588126
_cell_angle_beta                  90.609175
_cell_angle_gamma                 89.585754
_cell_volume                      3466.89712702

loop_
_atom_site_label
_atom_site_type_symbol
_atom_type_description
_atom_site_fract_x
_atom_site_fract_y
_atom_site_fract_z
_atom_type_partial_charge
O1    O     O_R   0.507320 0.423560 0.460500 -0.528970
O2    O     O_R   0.170760 0.556250 0.437010 -0.539337
O3    O     O_R   0.004030 0.576440 0.539500 -0.536221
C1    C     C_R   0.338770 0.576360 0.420990 0.739991
O4    O     O_R   0.177370 0.422820 0.454110 -0.548006
O5    O     O_R   0.010680 0.442050 0.556720 -0.536148
C2    C     C_R   0.345598 0.398643 0.443569 0.751941
O6    O     O_R   0.500680 0.557950 0.443280 -0.531618
O7    O     O_3   0.340380 0.506470 0.533650 -0.368761
V1    V     V_3+5 0.064130 0.498800 0.493760 1.407798
O8    O     O_R   0.681160 0.443750 0.562990 -0.539062
C3    C     C_R   0.850927 0.423640 0.578862 0.720666
O9    O     O_R   0.674560 0.577180 0.545890 -0.538138
C4    C     C_R   0.842953 0.601122 0.556511 0.695373
V2    V     V_3+5 0.564560 0.501200 0.506240 1.433352
O10   O     O_3   0.838180 0.493530 0.466350 -0.368610
C5    C     C_R   0.975268 0.838109 0.911317 -0.041378
C6    C     C_R   0.848630 0.661840 0.588659 -0.041811
C7    C     C_R   0.034674 0.721710 0.906528 -0.163525
C8    C     C_R   0.026975 0.779120 0.936713 -0.169132
C9    C     C_R   0.931755 0.839453 0.854886 -0.215338
C10   C     C_R   0.941645 0.781543 0.822750 0.086611
C11   C     C_R   0.993874 0.722393 0.850060 0.141182
C12   C     C_R   0.904147 0.780207 0.764696 0.058408
C13   C     C_R   0.919658 0.719739 0.735283 0.058387
C14   C     C_R   0.971532 0.662662 0.764932 -0.188156
C15   C     C_R   0.007337 0.664153 0.820968 -0.203703
C16   C     C_R   0.852232 0.837282 0.735049 -0.188162
C17   C     C_R   0.816403 0.835788 0.679014 -0.203610
C18   C     C_R   0.829901 0.777550 0.649920 0.141082
C19   C     C_R   0.882178 0.718405 0.677229 0.086537
C20   C     C_R   0.789089 0.778232 0.593453 -0.163085
C21   C     C_R   0.796845 0.720823 0.563265 -0.169516
C22   C     C_R   0.892146 0.660499 0.645089 -0.215109
H1    H     H_    0.047267 0.618955 0.841801 0.120295
H2    H     H_    0.928760 0.613439 0.662533 0.093170
H3    H     H_    0.761116 0.722309 0.519936 0.104747
H4    H     H_    0.776431 0.880984 0.658183 0.120414
H5    H     H_    0.075250 0.676587 0.927341 0.110868
H6    H     H_    0.062705 0.777632 0.980043 0.104928
H7    H     H_    0.895228 0.886518 0.837438 0.092909
H8    H     H_    0.986444 0.615534 0.746023 0.121996
H9    H     H_    0.837279 0.884406 0.753961 0.121946
H10   H     H_    0.748469 0.823350 0.572641 0.111199
C23   C     C_3   0.952395 0.310288 0.767929 -0.136887
C24   C     C_3   0.092954 0.251040 0.769917 -0.139140
H11   H     H_    0.242284 0.251700 0.786512 0.107542
H12   H     H_    0.985368 0.360304 0.782532 0.107398
H13   H     H_    0.137075 0.220503 0.677249 0.105946
C25   C     C_1   0.960656 0.121789 0.875250 -0.194822
C26   C     C_1   0.863658 0.378113 0.624683 -0.195312
C27   C     C_3   0.788955 0.266210 0.789683 -0.139885
C28   C     C_3   0.929288 0.207590 0.791056 0.171064
C29   C     C_3   0.731382 0.248839 0.729998 -0.139503
C30   C     C_3   0.895048 0.292288 0.708859 0.171028
C31   C     C_3   0.871941 0.189590 0.731986 -0.137334
C32   C     C_3   0.035382 0.233669 0.710231 -0.140407
C33   C     C_1   0.947468 0.160293 0.837204 -0.066177
C34   C     C_1   0.876860 0.339594 0.662718 -0.066720
H14   H     H_    0.838968 0.139574 0.717382 0.107379
H15   H     H_    0.582053 0.248179 0.713403 0.107520
H16   H     H_    0.687259 0.279377 0.822665 0.106062
C35   C     C_3   0.593169 0.745522 0.231581 -0.139635
C36   C     C_3   0.445479 0.688995 0.232208 -0.134072
H17   H     H_    0.472714 0.638494 0.217638 0.110197
H18   H     H_    0.742822 0.742002 0.216351 0.107400
H19   H     H_    0.186234 0.725073 0.175275 0.106627
C37   C     C_1   0.348634 0.621974 0.374973 -0.189198
C38   C     C_1   0.475571 0.878005 0.125023 -0.195065
C39   C     C_3   0.535791 0.763690 0.290843 -0.139783
C40   C     C_3   0.388349 0.707758 0.290888 0.169101
C41   C     C_3   0.378723 0.810960 0.267781 -0.135925
C42   C     C_3   0.435852 0.792199 0.209099 0.169256
C43   C     C_3   0.231033 0.754433 0.268407 -0.139876
C44   C     C_3   0.288410 0.736265 0.209145 -0.140268
C45   C     C_1   0.364026 0.660477 0.336945 -0.062189
C46   C     C_1   0.460175 0.839487 0.163043 -0.064207
H20   H     H_    0.081382 0.757951 0.283640 0.107483
H21   H     H_    0.351483 0.861459 0.282358 0.108988
H22   H     H_    0.637965 0.774880 0.324715 0.106753
C47   C     C_R   0.473822 0.161702 0.089143 -0.043196
C48   C     C_R   0.345444 0.337328 0.411700 -0.126035
C49   C     C_R   0.542180 0.277155 0.095741 -0.163683
C50   C     C_R   0.532394 0.220217 0.064967 -0.170410
C51   C     C_R   0.426648 0.160343 0.145069 -0.216953
C52   C     C_R   0.436727 0.217904 0.177727 0.096799
C53   C     C_R   0.496082 0.276494 0.151609 0.149318
C54   C     C_R   0.390692 0.219581 0.235082 0.013714
C55   C     C_R   0.416349 0.278552 0.265716 0.054530
C56   C     C_R   0.464948 0.335830 0.236530 -0.154456
C57   C     C_R   0.506283 0.334529 0.181036 -0.233445
C58   C     C_R   0.312246 0.165002 0.261995 -0.188649
C59   C     C_R   0.253207 0.167480 0.316459 0.167744
C60   C     C_R   0.282591 0.224861 0.347312 0.079697
C61   C     C_R   0.377823 0.279562 0.323579 -0.061679
C62   C     C_R   0.215778 0.228776 0.401527 -0.177500
C63   C     C_R   0.239470 0.285118 0.432022 -0.261881
C64   C     C_R   0.427461 0.333051 0.359144 0.322874
H23   H     H_    0.544505 0.379884 0.160726 0.122991
H24   H     H_    0.175851 0.287766 0.472324 0.131068
H25   H     H_    0.587496 0.321939 0.075816 0.111722
H26   H     H_    0.571788 0.221691 0.022130 0.106061
H27   H     H_    0.389559 0.113298 0.161885 0.093510
H28   H     H_    0.461968 0.383553 0.254789 0.185181
H29   H     H_    0.285638 0.120125 0.240567 0.124635
H30   H     H_    0.137946 0.189197 0.420534 0.139400
O11   O     O_R   0.323550 0.942140 0.056770 -0.535282
O12   O     O_R   0.647080 0.077200 0.045890 -0.538196
O13   O     O_R   0.813610 0.057920 0.943260 -0.535245
C65   C     C_R   0.478607 0.101181 0.056598 0.694769
O14   O     O_R   0.653470 0.943760 0.063000 -0.536848
O15   O     O_R   0.820050 0.923540 0.960490 -0.536550
C66   C     C_R   0.485456 0.923644 0.079014 0.724738
O16   O     O_R   0.317110 0.076520 0.039540 -0.536285
O17   O     O_3   0.483830 0.993580 0.966380 -0.366639
V3    V     V_3+5 0.760140 0.001190 0.006240 1.423873
O18   O     O_R   0.149510 0.922740 0.954070 -0.537966
C67   C     C_R   0.981067 0.898830 0.943461 0.694049
O19   O     O_R   0.143120 0.056170 0.936970 -0.537673
C68   C     C_R   0.973365 0.076283 0.921089 0.725928
V4    V     V_3+5 0.259690 0.998700 0.993700 1.424132
O20   O     O_3   0.986130 0.006420 0.033620 -0.366821
O21   O     O_3   0.554954 0.381241 0.343848 -0.574236
C69   C     C_3   0.744335 0.356840 0.351059 0.101475
H31   H     H_    0.768184 0.311399 0.327012 0.124858
H32   H     H_    0.775157 0.346507 0.395201 0.131070
C70   C     C_3   0.885948 0.407878 0.331110 -0.665292
H33   H     H_    0.869890 0.453534 0.355058 0.228198
H34   H     H_    0.035303 0.389115 0.336230 0.175310
H35   H     H_    0.859048 0.418885 0.287038 0.207218
C71   C     C_3   0.158780 0.107617 0.340751 -0.811999
H36   H     H_    0.242412 0.090176 0.377096 0.206912
H37   H     H_    0.009257 0.119711 0.352903 0.208524
H38   H     H_    0.151147 0.066527 0.311289 0.206877

loop_
_geom_bond_atom_site_label_1
_geom_bond_atom_site_label_2
_ccdc_geom_bond_type
C13   C19   A    
C49   C53   A    
C59   C60   A    
O17   V4    S    
C28   C33   S    
C53   C57   A    
C50   H26   S    
C4    C6    S    
C38   C46   T    
C7    C8    A    
C1    O6    A    
C71   H38   S    
C3    C26   S    
C61   C64   A    
O21   C69   S    
C23   C24   S    
C38   C66   S    
C14   C15   A    
V3    O20   S    
C25   C68   S    
C69   H32   S    
C16   C17   A    
C41   H21   S    
C30   C34   S    
O5    C3    A    
C40   C45   S    
C8    H6    S    
C52   C54   A    
C23   H12   S    
O17   V3    S    
C5    C8    A    
H13   C32   S    
C31   C32   S    
C36   C40   S    
O18   V4    S    
O11   C66   A    
O13   V3    S    
C9    C10   A    
C24   H11   S    
O16   V4    S    
O8    V2    S    
C54   C58   A    
C17   H4    S    
O14   V3    S    
O1    V2    S    
C11   C15   A    
C18   C20   A    
O7    V1    S    
C65   O16   A    
C51   H27   S    
C35   H18   S    
O1    C2    A    
O9    C4    A    
C42   C44   S    
C27   C29   S    
O19   V4    S    
C64   O21   S    
C29   C31   S    
C43   C44   S    
C48   C64   A    
C39   H22   S    
C25   C33   T    
C12   C13   A    
C41   C43   S    
C1    C37   S    
C7    C11   A    
C35   C42   S    
C23   C27   S    
C15   H1    S    
C13   C14   A    
C51   C52   A    
C21   H3    S    
C31   H14   S    
C55   C61   A    
O2    C1    A    
C70   H34   S    
C17   C18   A    
C49   C50   A    
C35   C39   S    
O19   C68   A    
C62   C63   A    
C20   H10   S    
C19   C22   A    
O14   C66   A    
C47   C65   S    
C60   C62   A    
C6    C22   A    
C56   H28   S    
V4    O20   S    
C39   C40   S    
O3    C4    A    
C7    H5    S    
C5    C67   S    
C69   C70   S    
C9    H7    S    
O6    V2    S    
O9    V2    S    
C24   C32   S    
C48   C63   A    
C10   C12   A    
C26   C34   T    
O11   V4    S    
C70   H33   S    
O2    V1    S    
O15   V3    S    
C47   C50   A    
C27   C28   S    
C14   H8    S    
O4    C2    A    
C28   C31   S    
C62   H30   S    
C29   C30   S    
C63   H24   S    
C49   H25   S    
C52   C53   A    
C12   C16   A    
C41   C42   S    
C71   H37   S    
O5    V1    S    
C40   C43   S    
C39   C41   S    
O8    C3    A    
C29   H15   S    
C37   C45   T    
C16   H9    S    
C20   C21   A    
O12   V3    S    
C30   C32   S    
O7    V2    S    
C70   H35   S    
O4    V1    S    
O3    V1    S    
C27   H16   S    
O18   C67   A    
C36   H17   S    
O15   C67   A    
C56   C57   A    
C18   C19   A    
V2    O10   S    
C24   C28   S    
C58   C59   A    
C36   C44   S    
O12   C65   A    
C22   H2    S    
C60   C61   A    
C6    C21   A    
C5    C9    A    
C35   C36   S    
C58   H29   S    
C2    C48   S    
H19   C44   S    
C54   C55   A    
C23   C30   S    
C43   H20   S    
C42   C46   S    
C10   C11   A    
V1    O10   S    
C57   H23   S    
C55   C56   A    
C59   C71   S    
C47   C51   A    
C71   H36   S    
O13   C68   A    
C69   H31   S    
