data_mof_unit_49308.cif
_audit_creation_date              2012-12-11T14:44:18-0500
_audit_creation_method            fapswitch 2.2
_symmetry_space_group_name_H-M    P1
_symmetry_Int_Tables_number       1
_space_group_crystal_system       triclinic
_cell_length_a                    19.344239
_cell_length_b                    11.008526
_cell_length_c                    18.889981
_cell_angle_alpha                 89.608859
_cell_angle_beta                  90.421074
_cell_angle_gamma                 90.4859
_cell_volume                      4022.30556712

loop_
_atom_site_label
_atom_site_type_symbol
_atom_type_description
_atom_site_fract_x
_atom_site_fract_y
_atom_site_fract_z
_atom_type_partial_charge
C1    C     C_R   0.730123 0.374990 0.146031 0.556153
C2    C     C_R   0.272697 0.372258 0.855256 0.554859
C3    C     C_R   0.230123 0.874990 0.146030 0.556155
C4    C     C_R   0.772699 0.872252 0.855258 0.554843
C5    C     C_R   0.540354 0.331944 0.909382 0.088284
C6    C     C_R   0.520944 0.409538 0.045041 0.081480
C7    C     C_R   0.040321 0.831986 0.909385 0.088339
C8    C     C_R   0.020930 0.909547 0.045052 0.081490
C9    C     C_R   0.014115 0.947388 0.917408 0.113641
C10   C     C_R   0.005764 0.988859 0.986862 0.100782
C11   C     C_R   0.514172 0.447365 0.917394 0.113638
C12   C     C_R   0.505796 0.488843 0.986844 0.100755
C13   C     C_R   0.684229 0.935129 0.026462 0.072176
C14   C     C_R   0.291204 0.850134 0.959171 0.022440
C15   C     C_R   0.184231 0.435135 0.026462 0.072172
C16   C     C_R   0.791205 0.350150 0.959174 0.022429
C17   C     C_R   0.695341 0.928638 0.952919 0.091057
C18   C     C_R   0.291969 0.834230 0.032783 0.033819
C19   C     C_R   0.195345 0.428665 0.952919 0.091018
C20   C     C_R   0.791966 0.334234 0.032784 0.033819
C21   C     C_R   0.760890 0.899325 0.928584 0.032382
C22   C     C_R   0.252697 0.911637 0.075785 0.005282
C23   C     C_R   0.260890 0.399333 0.928583 0.032414
C24   C     C_R   0.752698 0.411640 0.075788 0.005280
C25   C     C_R   0.816393 0.883210 0.975447 -0.171908
C26   C     C_R   0.220673 0.010448 0.046792 -0.162929
C27   C     C_R   0.316393 0.383204 0.975446 -0.171878
C28   C     C_R   0.720684 0.510464 0.046801 -0.162918
C29   C     C_R   0.807403 0.898725 0.047034 0.002158
C30   C     C_R   0.211722 0.020152 0.974456 0.001614
C31   C     C_R   0.307403 0.398719 0.047033 0.002167
C32   C     C_R   0.711733 0.520186 0.974464 0.001611
C33   C     C_R   0.742433 0.928442 0.073215 -0.032772
C34   C     C_R   0.250461 0.942565 0.928996 -0.045114
C35   C     C_R   0.242434 0.428438 0.073215 -0.032770
C36   C     C_R   0.750467 0.442592 0.929002 -0.045136
C37   C     C_R   0.478598 0.064732 0.456870 -0.182449
C38   C     C_R   0.468843 0.061695 0.528763 -0.185345
C39   C     C_R   0.978596 0.564738 0.456870 -0.182472
C40   C     C_R   0.968838 0.561700 0.528763 -0.185359
C41   C     C_R   0.483847 0.163897 0.570563 0.043863
C42   C     C_R   0.503691 0.169901 0.424317 0.049463
C43   C     C_R   0.983847 0.663898 0.570564 0.043784
C44   C     C_R   0.003697 0.669903 0.424319 0.049449
C45   C     C_R   0.532070 0.158460 0.146661 0.571379
C46   C     C_R   0.441529 0.150352 0.861418 0.544114
C47   C     C_R   0.032070 0.658460 0.146661 0.571380
C48   C     C_R   0.941528 0.650353 0.861418 0.544076
C49   C     C_R   0.505961 0.272808 0.538620 0.074243
C50   C     C_R   0.513767 0.277339 0.464549 0.088839
C51   C     C_R   0.005971 0.772804 0.538624 0.074278
C52   C     C_R   0.013781 0.777336 0.464554 0.088866
C53   C     C_R   0.814084 0.919996 0.455984 -0.157664
C54   C     C_R   0.213038 0.025605 0.525813 -0.157819
C55   C     C_R   0.314060 0.419736 0.455962 -0.157707
C56   C     C_R   0.713012 0.525566 0.525818 -0.157800
C57   C     C_R   0.820361 0.907709 0.528314 -0.171469
C58   C     C_R   0.212314 0.011090 0.453409 -0.175412
C59   C     C_R   0.320358 0.407374 0.528289 -0.171476
C60   C     C_R   0.712291 0.511069 0.453413 -0.175400
C61   C     C_R   0.761317 0.897464 0.571080 0.072796
C62   C     C_R   0.250965 0.918821 0.422647 0.069357
C63   C     C_R   0.261321 0.397450 0.571087 0.072784
C64   C     C_R   0.750967 0.418841 0.422642 0.069388
C65   C     C_R   0.695263 0.893202 0.540120 0.070053
C66   C     C_R   0.297758 0.850778 0.464985 0.084918
C67   C     C_R   0.195245 0.393574 0.540174 0.069964
C68   C     C_R   0.797784 0.350838 0.464972 0.084950
C69   C     C_R   0.689224 0.905833 0.466954 -0.132176
C70   C     C_R   0.298791 0.867457 0.538037 -0.132775
C71   C     C_R   0.189182 0.406268 0.467015 -0.132190
C72   C     C_R   0.798816 0.367501 0.538027 -0.132759
C73   C     C_R   0.748569 0.923418 0.425262 0.012955
C74   C     C_R   0.254526 0.951162 0.568781 0.011092
C75   C     C_R   0.248533 0.423502 0.425284 0.012922
C76   C     C_R   0.754526 0.451158 0.568780 0.011125
C77   C     C_R   0.738206 0.975430 0.145419 0.561490
C78   C     C_R   0.259481 0.975576 0.854373 0.556652
C79   C     C_R   0.238208 0.475424 0.145420 0.561486
C80   C     C_R   0.759485 0.475592 0.854378 0.556668
C81   C     C_R   0.729971 0.377842 0.352246 0.554140
C82   C     C_R   0.272582 0.373667 0.645790 0.577192
C83   C     C_R   0.229970 0.877836 0.352248 0.554126
C84   C     C_R   0.772582 0.873666 0.645786 0.577150
C85   C     C_R   0.532801 0.157626 0.353545 0.568059
C86   C     C_R   0.464680 0.157000 0.644954 0.590296
C87   C     C_R   0.032803 0.657627 0.353546 0.568023
C88   C     C_R   0.964680 0.657000 0.644954 0.590282
C89   C     C_R   0.740846 0.971325 0.354201 0.552598
C90   C     C_R   0.260296 0.979130 0.643466 0.542542
C91   C     C_R   0.240839 0.471347 0.354209 0.552576
C92   C     C_R   0.760295 0.479128 0.643466 0.542558
C93   C     C_R   0.466123 0.156912 0.935192 0.061012
C94   C     C_R   0.494771 0.183217 0.079783 0.091390
C95   C     C_R   0.966124 0.656914 0.935192 0.061005
C96   C     C_R   0.994770 0.683214 0.079783 0.091380
C97   C     C_R   0.513448 0.247376 0.958246 -0.034673
C98   C     C_R   0.514554 0.279314 0.031130 -0.073332
C99   C     C_R   0.013437 0.747395 0.958247 -0.034709
C100  C     C_R   0.014544 0.779323 0.031134 -0.073335
C101  C     C_R   0.446496 0.096510 0.056862 -0.094216
C102  C     C_R   0.429843 0.087949 0.985319 -0.144338
C103  C     C_R   0.946504 0.596497 0.056860 -0.094219
C104  C     C_R   0.929852 0.587935 0.985318 -0.144312
Cr1   Cr    Cr6+3 0.772000 0.169640 0.250110 1.069996
Cr2   Cr    Cr6+3 0.228000 0.169640 0.749890 1.080263
Cr3   Cr    Cr6+3 0.272000 0.669640 0.250110 1.069989
Cr4   Cr    Cr6+3 0.728000 0.669640 0.749890 1.080303
Cr5   Cr    Cr6+3 0.614960 0.323350 0.249260 1.092622
Cr6   Cr    Cr6+3 0.385040 0.323350 0.750740 1.064869
Cr7   Cr    Cr6+3 0.114960 0.823350 0.249260 1.092627
Cr8   Cr    Cr6+3 0.885040 0.823350 0.750740 1.064914
Cr9   Cr    Cr6+3 0.616670 0.010620 0.250840 1.068257
Cr10  Cr    Cr6+3 0.383330 0.010620 0.749160 1.058142
Cr11  Cr    Cr6+3 0.116670 0.510620 0.250840 1.068256
Cr12  Cr    Cr6+3 0.883330 0.510620 0.749160 1.058124
H1    H     H_    0.425263 0.030039 0.093470 0.139296
H2    H     H_    0.391464 0.022335 0.968567 0.138202
H3    H     H_    0.925276 0.530017 0.093467 0.139290
H4    H     H_    0.891480 0.522309 0.968565 0.138235
H5    H     H_    0.860228 0.932685 0.424508 0.145209
H6    H     H_    0.181370 0.096414 0.547931 0.149383
H7    H     H_    0.360202 0.432177 0.424453 0.145220
H8    H     H_    0.681322 0.596335 0.547943 0.149268
H9    H     H_    0.871919 0.905438 0.550757 0.146776
H10   H     H_    0.177919 0.067322 0.421973 0.138422
H11   H     H_    0.371921 0.404802 0.550710 0.146794
H12   H     H_    0.677878 0.567278 0.421984 0.138378
H13   H     H_    0.637898 0.909524 0.443675 0.138249
H14   H     H_    0.333889 0.814449 0.570583 0.125178
H15   H     H_    0.137850 0.410273 0.443771 0.138312
H16   H     H_    0.833934 0.314524 0.570566 0.125157
H17   H     H_    0.867225 0.860377 0.956057 0.117796
H18   H     H_    0.195706 0.072587 0.082308 0.226920
H19   H     H_    0.367223 0.360365 0.956055 0.117791
H20   H     H_    0.695725 0.572601 0.082324 0.226917
H21   H     H_    0.469157 0.982368 0.427101 0.144475
H22   H     H_    0.449074 0.977808 0.551449 0.147333
H23   H     H_    0.969151 0.482378 0.427099 0.144479
H24   H     H_    0.949065 0.477814 0.551447 0.147350
O1    O     O_R   0.787540 0.042690 0.170470 -0.488391
O2    O     O_R   0.212460 0.042690 0.829530 -0.433345
O3    O     O_R   0.287540 0.542690 0.170470 -0.488402
O4    O     O_R   0.712460 0.542690 0.829530 -0.433276
O5    O     O_R   0.556540 0.252920 0.323970 -0.443445
O6    O     O_R   0.443460 0.252920 0.676030 -0.456103
O7    O     O_R   0.056540 0.752920 0.323970 -0.443436
O8    O     O_R   0.943460 0.752920 0.676030 -0.456060
O9    O     O_R   0.545870 0.051100 0.330840 -0.540060
O10   O     O_R   0.454130 0.051100 0.669160 -0.527932
O11   O     O_R   0.045870 0.551100 0.330840 -0.540086
O12   O     O_R   0.954130 0.551100 0.669160 -0.527950
O13   O     O_R   0.681340 0.959300 0.325510 -0.514314
O14   O     O_R   0.318660 0.959300 0.674490 -0.510675
O15   O     O_R   0.181340 0.459300 0.325510 -0.514313
O16   O     O_R   0.818660 0.459300 0.674490 -0.510682
O17   O     O_3   0.667880 0.167870 0.250070 -0.297101
O18   O     O_3   0.332120 0.167870 0.749930 -0.318050
O19   O     O_3   0.167880 0.667870 0.250070 -0.297112
O20   O     O_3   0.832120 0.667870 0.749930 -0.318049
O21   O     O_R   0.765660 0.292160 0.175050 -0.465856
O22   O     O_R   0.234340 0.292160 0.824950 -0.509003
O23   O     O_R   0.265660 0.792160 0.175050 -0.465857
O24   O     O_R   0.734340 0.792160 0.824950 -0.508993
O25   O     O_R   0.670190 0.408980 0.168550 -0.519449
O26   O     O_R   0.329810 0.408980 0.831450 -0.511277
O27   O     O_R   0.170190 0.908980 0.168550 -0.519450
O28   O     O_R   0.829810 0.908980 0.831450 -0.511262
O29   O     O_R   0.556580 0.251450 0.175160 -0.465106
O30   O     O_R   0.443420 0.251450 0.824840 -0.499248
O31   O     O_R   0.056580 0.751450 0.175160 -0.465104
O32   O     O_R   0.943420 0.751450 0.824840 -0.499240
O33   O     O_R   0.545920 0.049510 0.170320 -0.485471
O34   O     O_R   0.454080 0.049510 0.829680 -0.439852
O35   O     O_R   0.045920 0.549510 0.170320 -0.485486
O36   O     O_R   0.954080 0.549510 0.829680 -0.439883
O37   O     O_R   0.681390 0.957840 0.176710 -0.470440
O38   O     O_R   0.318610 0.957840 0.823290 -0.490227
O39   O     O_R   0.181390 0.457840 0.176710 -0.470440
O40   O     O_R   0.818610 0.457840 0.823290 -0.490227
O41   O     O_R   0.787500 0.044280 0.330990 -0.500038
O42   O     O_R   0.212500 0.044280 0.669010 -0.511623
O43   O     O_R   0.287500 0.544280 0.330990 -0.499991
O44   O     O_R   0.712500 0.544280 0.669010 -0.511590
O45   O     O_R   0.765610 0.293630 0.323860 -0.464724
O46   O     O_R   0.234390 0.293630 0.676140 -0.469091
O47   O     O_R   0.265610 0.793630 0.323860 -0.464734
O48   O     O_R   0.734390 0.793630 0.676140 -0.469023
O49   O     O_R   0.670140 0.410570 0.329080 -0.521002
O50   O     O_R   0.329860 0.410570 0.670920 -0.526822
O51   O     O_R   0.170140 0.910570 0.329080 -0.520985
O52   O     O_R   0.829860 0.910570 0.670920 -0.526846
N1    N     N_3   0.634616 0.880807 0.582737 -0.602430
H25   H     H_    0.603761 0.956968 0.573798 0.236951
H26   H     H_    0.607005 0.804408 0.565412 0.221052
N2    N     N_3   0.342589 0.762261 0.434935 -0.585194
H27   H     H_    0.393545 0.786163 0.447836 0.208082
H28   H     H_    0.331859 0.678427 0.458894 0.236866
N3    N     N_3   0.134607 0.381562 0.582837 -0.602450
H29   H     H_    0.103979 0.458062 0.574027 0.237000
H30   H     H_    0.106744 0.305481 0.565437 0.221128
N4    N     N_3   0.842646 0.262381 0.434912 -0.585235
H31   H     H_    0.893594 0.286332 0.447813 0.208058
H32   H     H_    0.831946 0.178531 0.458864 0.236831
C105  C     C_2   0.579195 0.297037 0.844963 0.650953
O53   O     O_2   0.598157 0.192503 0.837706 -0.514204
O54   O     O_R   0.594865 0.383761 0.792950 -0.617007
H33   H     H_    0.621560 0.348567 0.752012 0.338286
C106  C     C_2   0.535017 0.473926 0.113531 0.670621
O55   O     O_2   0.508313 0.443365 0.169155 -0.483949
O56   O     O_R   0.573168 0.582071 0.112016 -0.635877
H34   H     H_    0.577684 0.621286 0.160271 0.347681
C107  C     C_2   0.079173 0.797117 0.844966 0.650994
O57   O     O_2   0.098188 0.692609 0.837721 -0.514246
O58   O     O_R   0.094791 0.883848 0.792940 -0.616962
H35   H     H_    0.121501 0.848681 0.752003 0.338285
C108  C     C_2   0.035017 0.973930 0.113539 0.670601
O59   O     O_2   0.008316 0.943374 0.169166 -0.483944
O60   O     O_R   0.073173 0.082071 0.112017 -0.635890
H36   H     H_    0.077696 0.121288 0.160272 0.347687
N5    N     N_3   0.989225 0.013485 0.856569 -0.539643
H37   H     H_    0.011183 0.100049 0.854114 0.259616
H38   H     H_    0.936097 0.024636 0.862203 0.240798
N6    N     N_3   0.975051 0.104793 0.998710 -0.542355
H39   H     H_    0.924053 0.098001 0.980650 0.249897
H40   H     H_    0.998412 0.170002 0.966707 0.246061
N7    N     N_3   0.489289 0.513444 0.856545 -0.539670
H41   H     H_    0.511236 0.600017 0.854089 0.259646
H42   H     H_    0.436157 0.524570 0.862163 0.240764
N8    N     N_3   0.475059 0.604762 0.998678 -0.542408
H43   H     H_    0.424062 0.597930 0.980626 0.249918
H44   H     H_    0.498400 0.669968 0.966661 0.246018
C109  C     C_2   0.611496 0.923295 0.051630 0.617101
O61   O     O_2   0.597682 0.856004 0.101456 -0.447443
O62   O     O_R   0.557721 0.961961 0.008276 -0.675110
H45   H     H_    0.514854 0.909740 0.015431 0.339750
C110  C     C_2   0.332191 0.768761 0.914336 0.557843
O63   O     O_2   0.304897 0.679683 0.887421 -0.521081
O64   O     O_R   0.401161 0.798103 0.900506 -0.709694
H46   H     H_    0.421850 0.743868 0.863349 0.322219
C111  C     C_2   0.111499 0.423272 0.051629 0.617142
O65   O     O_2   0.097692 0.355969 0.101452 -0.447428
O66   O     O_R   0.057719 0.461928 0.008276 -0.675120
H47   H     H_    0.014853 0.409706 0.015436 0.339752
C112  C     C_2   0.832198 0.268787 0.914339 0.557815
O67   O     O_2   0.804910 0.179706 0.887420 -0.521092
O68   O     O_R   0.901167 0.298142 0.900515 -0.709712
H48   H     H_    0.921860 0.243920 0.863353 0.322221
N9    N     N_3   0.639567 0.945785 0.903259 -0.521539
H49   H     H_    0.656770 0.003345 0.862848 0.288795
H50   H     H_    0.626445 0.862353 0.880651 0.258104
N10   N     N_3   0.331760 0.738834 0.063811 -0.548093
H51   H     H_    0.316482 0.657673 0.039851 0.264977
H52   H     H_    0.383794 0.756551 0.053200 0.267318
N11   N     N_3   0.139577 0.445862 0.903258 -0.521555
H53   H     H_    0.156794 0.503448 0.862868 0.288823
H54   H     H_    0.126456 0.362449 0.880625 0.258034
N12   N     N_3   0.831752 0.238829 0.063810 -0.548093
H55   H     H_    0.816482 0.157673 0.039840 0.264968
H56   H     H_    0.883788 0.256556 0.053214 0.267308
C113  C     C_2   0.867267 0.904525 0.093944 0.579628
O69   O     O_2   0.879758 0.820926 0.134740 -0.503463
O70   O     O_R   0.896788 0.019038 0.103534 -0.674554
H57   H     H_    0.907042 0.038952 0.154771 0.385306
C114  C     C_2   0.157557 0.108481 0.953396 0.584270
O71   O     O_2   0.122834 0.097504 0.900142 -0.499390
O72   O     O_R   0.138896 0.197013 0.000300 -0.678014
H58   H     H_    0.097760 0.242329 0.981236 0.350116
C115  C     C_2   0.367267 0.404516 0.093941 0.579625
O73   O     O_2   0.379753 0.320920 0.134739 -0.503462
O74   O     O_R   0.396791 0.519025 0.103527 -0.674568
H59   H     H_    0.407042 0.538943 0.154763 0.385309
C116  C     C_2   0.657571 0.608538 0.953416 0.584231
O75   O     O_2   0.622869 0.597639 0.900145 -0.499430
O76   O     O_R   0.638882 0.696995 0.000353 -0.677990
H60   H     H_    0.597719 0.742272 0.981322 0.350185
N13   N     N_3   0.522598 0.376214 0.581665 -0.600686
H61   H     H_    0.493100 0.450169 0.564856 0.219461
H62   H     H_    0.574882 0.397866 0.575118 0.233294
N14   N     N_3   0.532924 0.389465 0.430554 -0.584170
H63   H     H_    0.579742 0.419726 0.452053 0.234409
H64   H     H_    0.495011 0.453991 0.440719 0.211641
N15   N     N_3   0.022623 0.876198 0.581673 -0.600686
H65   H     H_    0.993142 0.950172 0.564863 0.219447
H66   H     H_    0.074911 0.897820 0.575132 0.233284
N16   N     N_3   0.032956 0.889457 0.430564 -0.584139
H67   H     H_    0.079776 0.919697 0.452066 0.234412
H68   H     H_    0.995050 0.953998 0.440727 0.211634

loop_
_geom_bond_atom_site_label_1
_geom_bond_atom_site_label_2
_ccdc_geom_bond_type
C58   C62   A    
Cr9   O37   S    
C62   C83   S    
N11   H54   S    
C112  O68   S    
Cr7   O51   S    
C101  C102  A    
C56   C76   A    
C48   C95   S    
C55   C59   A    
N15   H66   S    
Cr6   O26   S    
C14   C18   A    
N12   H56   S    
O64   H46   S    
Cr12  O12   S    
C72   C76   A    
C30   C34   A    
Cr5   O17   S    
N6    H39   S    
C2    O22   A    
N8    H44   S    
C15   C111  S    
C97   C98   A    
C3    O27   A    
O70   H57   S    
C6    C106  S    
C66   C70   A    
C16   C112  S    
C15   C19   A    
C41   C86   S    
Cr4   O24   S    
N9    H49   S    
N5    H37   S    
C57   C61   A    
N4    H32   S    
C82   O46   A    
C43   C88   S    
C80   O40   A    
C83   O51   A    
C85   O5    A    
Cr7   O31   S    
C5    C11   A    
C67   N3    S    
C78   O2    A    
C11   N7    S    
C6    C12   A    
N16   H67   S    
C95   C99   A    
C17   N9    S    
C94   C98   A    
C59   H11   S    
O74   H59   S    
Cr8   O28   S    
C50   N14   S    
C70   H14   S    
C110  O63   D    
N16   H68   S    
Cr9   O17   S    
C111  O65   D    
Cr1   O45   S    
C37   C42   A    
C15   C35   A    
N7    H41   S    
Cr7   O19   S    
Cr5   O25   S    
C52   N16   S    
Cr11  O35   S    
C32   C116  S    
C81   O45   A    
C106  O56   S    
C54   C74   A    
C89   O13   A    
C40   C43   A    
C79   O3    A    
C20   C24   A    
C29   C33   A    
Cr5   O49   S    
C80   O4    A    
O66   H47   S    
C70   C74   A    
C29   C113  S    
O62   H45   S    
C46   O34   A    
C78   O38   A    
C8    C108  S    
C23   C27   A    
C90   O14   A    
C44   C87   S    
C25   H17   S    
C114  O71   D    
C2    O26   A    
C65   N1    S    
Cr6   O18   S    
C75   C91   S    
Cr6   O6    S    
C55   C75   A    
C44   C52   A    
C48   O36   A    
C107  O58   S    
C54   H6    S    
C1    O21   A    
N3    H29   S    
C87   O11   A    
C115  O73   D    
C82   O50   A    
C88   O12   A    
C51   N15   S    
C102  H2    S    
Cr10  O18   S    
C45   C94   S    
C86   O6    A    
C41   C49   A    
C5    C105  S    
Cr5   O29   S    
C72   H16   S    
C39   H23   S    
C105  O54   S    
C25   C29   A    
C18   C22   A    
C63   C67   A    
N9    H50   S    
N4    H31   S    
C62   C66   A    
C63   C82   S    
C27   C31   A    
O54   H33   S    
C6    C98   A    
C30   C114  S    
C90   O42   A    
C28   C32   A    
N14   H63   S    
C94   C101  A    
C38   C41   A    
N2    H28   S    
C36   C80   S    
C47   C96   S    
Cr9   O13   S    
O60   H36   S    
C113  O70   S    
C115  O74   S    
Cr12  O36   S    
Cr11  O11   S    
N1    H26   S    
C108  O59   D    
C105  O53   D    
C68   N4    S    
Cr6   O50   S    
C77   O37   A    
Cr8   O8    S    
Cr3   O43   S    
C68   C72   A    
C111  O66   S    
C89   O41   A    
C7    C99   A    
N1    H25   S    
C19   C23   A    
O58   H35   S    
C73   C89   S    
C13   C33   A    
C37   C38   A    
C26   H18   S    
Cr7   O7    S    
Cr8   O52   S    
C114  O72   S    
C81   O49   A    
C93   C97   A    
C66   N2    S    
O56   H34   S    
C107  O57   D    
C16   C20   A    
Cr1   O17   S    
Cr3   O19   S    
C2    C23   S    
C64   C68   A    
C4    O24   A    
C106  O55   D    
C38   H22   S    
Cr9   O33   S    
Cr11  O39   S    
C92   O16   A    
C42   C85   S    
C37   H21   S    
C69   C73   A    
C84   O52   A    
C109  O62   S    
C86   O10   A    
Cr2   O46   S    
C7    C107  S    
C46   O30   A    
C87   O7    A    
C76   C92   S    
Cr6   O30   S    
C19   N11   S    
C83   O47   A    
O76   H60   S    
C42   C50   A    
C58   H10   S    
Cr5   O5    S    
C110  O64   S    
Cr12  O20   S    
C92   O44   A    
C109  O61   D    
C54   C58   A    
N13   H61   S    
Cr1   O21   S    
C84   O48   A    
Cr7   O27   S    
C91   O15   A    
Cr10  O10   S    
Cr3   O3    S    
N11   H53   S    
C55   H7    S    
C56   H8    S    
Cr4   O4    S    
C95   C104  A    
C48   O32   A    
C13   C109  S    
C9    C10   A    
C18   N10   S    
C7    C9    A    
Cr12  O40   S    
C21   C25   A    
Cr2   O2    S    
C53   C57   A    
Cr8   O20   S    
Cr9   O9    S    
N7    H42   S    
C91   O43   A    
C28   H20   S    
C4    O28   A    
C53   C73   A    
Cr4   O48   S    
C1    O25   A    
C103  H3    S    
Cr10  O38   S    
C24   C28   A    
C60   H12   S    
N14   H64   S    
N2    H27   S    
C3    C22   S    
C61   C84   S    
N6    H40   S    
C93   C102  A    
C14   C34   A    
C14   C110  S    
C47   O31   A    
O68   H48   S    
C32   C36   A    
C12   N8    S    
C39   C44   A    
Cr4   O20   S    
N10   H52   S    
C10   N6    S    
C108  O60   S    
C85   O9    A    
C49   N13   S    
C96   C100  A    
C59   C63   A    
C99   C100  A    
C13   C17   A    
C31   C115  S    
C60   C64   A    
O72   H58   S    
C27   H19   S    
C3    O23   A    
N15   H65   S    
N13   H62   S    
Cr4   O44   S    
Cr11  O15   S    
C101  H1    S    
C51   C52   A    
N5    H38   S    
Cr2   O18   S    
C16   C36   A    
C57   H9    S    
C71   C75   A    
C4    C21   S    
C88   O8    A    
C33   C77   S    
Cr8   O32   S    
C46   C93   S    
C43   C51   A    
C69   H13   S    
C65   C69   A    
C74   C90   S    
C40   H24   S    
C31   C35   A    
C35   C79   S    
C116  O76   S    
C5    C97   A    
C67   C71   A    
Cr2   O22   S    
C61   C65   A    
C8    C100  A    
N8    H43   S    
Cr1   O1    S    
C17   C21   A    
C64   C81   S    
Cr12  O16   S    
C47   O35   A    
C71   H15   S    
C39   C40   A    
C9    N5    S    
C45   O33   A    
Cr10  O34   S    
C79   O39   A    
C56   C60   A    
C1    C24   S    
C8    C10   A    
C49   C50   A    
C22   C26   A    
C96   C103  A    
N12   H55   S    
C103  C104  A    
N3    H30   S    
C113  O69   D    
Cr11  O19   S    
Cr3   O47   S    
C53   H5    S    
Cr3   O23   S    
Cr1   O41   S    
C112  O67   D    
C77   O1    A    
Cr10  O14   S    
C34   C78   S    
C45   O29   A    
Cr2   O42   S    
C11   C12   A    
C20   N12   S    
N10   H51   S    
C104  H4    S    
C26   C30   A    
C116  O75   D    
