data_mof_unit_19734.cif
_audit_creation_date              2012-12-11T16:18:00-0500
_audit_creation_method            fapswitch 2.2
_symmetry_space_group_name_H-M    P1
_symmetry_Int_Tables_number       1
_space_group_crystal_system       triclinic
_cell_length_a                    14.036867
_cell_length_b                    14.062126
_cell_length_c                    30.137244
_cell_angle_alpha                 97.19873
_cell_angle_beta                  97.148342
_cell_angle_gamma                 61.317632
_cell_volume                      5163.50663357

loop_
_atom_site_label
_atom_site_type_symbol
_atom_type_description
_atom_site_fract_x
_atom_site_fract_y
_atom_site_fract_z
_atom_type_partial_charge
C1    C     C_R   0.385833 0.710690 0.442155 0.538618
C2    C     C_R   0.407832 0.329583 0.221092 -0.107114
C3    C     C_R   0.420046 0.334445 0.267866 -0.105967
C4    C     C_R   0.334492 0.350190 0.292451 0.037593
C5    C     C_R   0.309750 0.341092 0.198801 0.035676
C6    C     C_1   0.300468 0.324973 0.150868 -0.061019
C7    C     C_1   0.348451 0.356678 0.340475 -0.057342
C8    C     C_1   0.290846 0.304423 0.111160 -0.016742
C9    C     C_R   0.761808 0.368739 0.399199 0.004872
C10   C     C_R   0.743871 0.290199 0.370886 -0.143580
C11   C     C_R   0.765867 0.272103 0.326013 -0.126582
C12   C     C_R   0.398988 0.381288 0.426367 0.547478
C13   C     C_R   0.807524 0.330917 0.308906 0.024400
C14   C     C_R   0.834802 0.402220 0.337185 -0.119197
C15   C     C_R   0.812936 0.421300 0.382409 -0.019834
C16   C     C_R   0.816993 0.409164 0.155496 0.014214
C17   C     C_R   0.848699 0.395710 0.111939 -0.108966
C18   C     C_R   0.893525 0.205482 0.106785 -0.131406
C19   C     C_R   0.862898 0.217766 0.150135 -0.129061
C20   C     C_R   0.828981 0.317703 0.175179 0.053681
C21   C     C_1   0.819588 0.320908 0.222114 -0.031422
C22   C     C_1   0.814772 0.324125 0.261723 -0.035476
C23   C     C_R   0.709697 0.405656 0.442228 0.539197
C24   C     C_R   0.891660 0.293057 0.088168 0.008004
C25   C     C_R   0.367557 0.766123 0.401013 0.032465
C26   C     C_R   0.460452 0.750042 0.381123 -0.136904
C27   C     C_R   0.452538 0.776618 0.337573 -0.121208
C28   C     C_R   0.351722 0.821042 0.313426 0.025123
C29   C     C_R   0.257108 0.847341 0.333745 -0.087709
C30   C     C_R   0.263447 0.821013 0.377780 -0.006042
C31   C     C_R   0.257763 0.827563 0.152369 -0.097949
C32   C     C_R   0.239469 0.851180 0.107436 -0.015752
C33   C     C_R   0.394927 0.888681 0.117432 -0.022591
C34   C     C_R   0.389708 0.711583 0.568218 0.546373
C35   C     C_R   0.410447 0.864148 0.162168 -0.098895
C36   C     C_R   0.338646 0.839956 0.179863 0.010273
C37   C     C_1   0.344259 0.833458 0.226965 -0.030474
C38   C     C_1   0.347188 0.829521 0.266557 -0.027287
C39   C     C_R   0.301849 0.892652 0.090428 0.041420
C40   C     C_R   0.365079 0.364060 0.592211 0.005594
C41   C     C_R   0.428993 0.267540 0.613659 -0.126022
C42   C     C_R   0.409789 0.260181 0.656980 -0.125849
C43   C     C_R   0.326589 0.348833 0.679160 0.023177
C44   C     C_R   0.256615 0.442696 0.656787 -0.003652
C45   C     C_R   0.402154 0.383206 0.552317 0.545083
C46   C     C_R   0.275736 0.449509 0.613245 -0.127389
C47   C     C_R   0.207063 0.393065 0.830099 -0.005771
C48   C     C_R   0.200263 0.375525 0.873767 -0.143034
C49   C     C_R   0.396576 0.259780 0.881729 -0.020349
C50   C     C_R   0.403038 0.278067 0.837937 -0.128656
C51   C     C_R   0.308512 0.340762 0.811702 0.010493
C52   C     C_1   0.315776 0.343897 0.765095 -0.003841
C53   C     C_1   0.320288 0.345559 0.725837 -0.005546
C54   C     C_R   0.293447 0.304528 0.899249 -0.009633
C55   C     C_1   0.762450 0.377011 0.612529 -0.004043
C56   C     C_R   0.713010 0.407899 0.568547 0.549029
C57   C     C_R   0.791220 0.430527 0.729207 -0.094954
C58   C     C_R   0.807481 0.417348 0.775293 0.013001
C59   C     C_R   0.877761 0.222424 0.759099 -0.116365
C60   C     C_R   0.860938 0.236305 0.713103 -0.106704
C61   C     C_R   0.818001 0.340360 0.698116 0.024163
C62   C     C_R   0.850825 0.312530 0.790409 0.018566
C63   C     C_1   0.876841 0.295458 0.837567 -0.037839
C64   C     C_1   0.792593 0.357144 0.651075 -0.046006
C65   C     C_1   0.905755 0.282799 0.876710 0.006940
C66   C     C_1   0.375280 0.759446 0.613293 -0.005883
C67   C     C_1   0.367060 0.365184 0.380378 -0.011151
C68   C     C_R   0.249334 0.839900 0.715966 -0.019481
C69   C     C_R   0.236698 0.857100 0.762447 -0.011116
C70   C     C_R   0.424186 0.823293 0.776861 -0.101326
C71   C     C_R   0.438108 0.806050 0.730765 0.000466
C72   C     C_R   0.350015 0.814544 0.699998 0.026349
C73   C     C_R   0.324899 0.848166 0.792798 -0.003265
C74   C     C_1   0.311579 0.873031 0.840260 -0.037255
C75   C     C_1   0.364111 0.788689 0.652471 -0.044462
C76   C     C_1   0.293319 0.902300 0.878982 0.007615
C77   C     C_R   0.950294 0.273227 0.047999 0.543160
C78   C     C_R   0.235910 0.362911 0.270219 -0.105793
C79   C     C_R   0.275273 0.270086 0.065462 0.547426
C80   C     C_R   0.261593 0.952702 0.048838 0.539354
C81   C     C_R   0.952572 0.268969 0.921992 0.550127
C82   C     C_R   0.276527 0.266623 0.939689 0.542646
C83   C     C_R   0.261614 0.950635 0.922965 0.547130
C84   C     C_R   0.223685 0.358048 0.223383 -0.106552
Cr1   Cr    Cr6+3 0.581000 0.584320 0.508140 1.045743
Cr2   Cr    Cr6+3 0.339110 0.576430 0.496080 1.034691
Cr3   Cr    Cr6+3 0.579910 0.339270 0.495810 1.028016
Cr4   Cr    Cr6+3 0.082090 0.079210 0.982490 1.037038
Cr5   Cr    Cr6+3 0.082460 0.324610 0.994920 1.030304
Cr6   Cr    Cr6+3 0.323630 0.087860 0.996130 1.032794
H1    H     H_    0.169134 0.375848 0.288981 0.112273
H2    H     H_    0.871655 0.147481 0.165055 0.110737
H3    H     H_    0.925877 0.125489 0.089183 0.130295
H4    H     H_    0.745445 0.216081 0.304205 0.110001
H5    H     H_    0.205899 0.803500 0.166543 0.113506
H6    H     H_    0.179033 0.883848 0.314540 0.110682
H7    H     H_    0.541100 0.709547 0.397946 0.146743
H8    H     H_    0.476195 0.868322 0.183931 0.113053
H9    H     H_    0.147951 0.365640 0.206324 0.114236
H10   H     H_    0.525941 0.756997 0.321935 0.116763
H11   H     H_    0.120392 0.411801 0.886596 0.150974
H12   H     H_    0.225126 0.524370 0.597047 0.145756
H13   H     H_    0.497953 0.200308 0.598141 0.141347
H14   H     H_    0.481412 0.239918 0.823621 0.123940
H15   H     H_    0.463447 0.187378 0.674034 0.121399
H16   H     H_    0.756988 0.511131 0.717479 0.115866
H17   H     H_    0.475231 0.315085 0.202362 0.113061
H18   H     H_    0.912499 0.141300 0.770263 0.146484
H19   H     H_    0.880815 0.166155 0.689300 0.133826
H20   H     H_    0.491205 0.817965 0.800498 0.139877
H21   H     H_    0.496391 0.325290 0.284876 0.110596
H22   H     H_    0.845212 0.464388 0.097619 0.132784
H23   H     H_    0.869289 0.445922 0.323598 0.109470
H24   H     H_    0.705560 0.247796 0.382462 0.141473
O1    O     O_R   0.688580 0.499770 0.460490 -0.496390
O2    O     O_R   0.348600 0.476260 0.536540 -0.500742
O3    O     O_R   0.494840 0.313840 0.539010 -0.512611
O4    O     O_R   0.672120 0.351750 0.545910 -0.493148
O5    O     O_3   0.500010 0.500010 0.500010 -0.250567
O6    O     O_R   0.167510 0.972920 0.030390 -0.522113
O7    O     O_R   0.990840 0.178580 0.027590 -0.500785
O8    O     O_R   0.972840 0.345510 0.038590 -0.515932
O9    O     O_R   0.181550 0.320660 0.045200 -0.492575
O10   O     O_R   0.346150 0.177650 0.050510 -0.517484
O11   O     O_R   0.314200 0.996600 0.036060 -0.507575
O12   O     O_R   0.480400 0.672610 0.462660 -0.504857
O13   O     O_R   0.168690 0.969990 0.933130 -0.495668
O14   O     O_R   0.991920 0.175870 0.937430 -0.486700
O15   O     O_R   0.974010 0.342590 0.941330 -0.505351
O16   O     O_R   0.182630 0.317940 0.955040 -0.506736
O17   O     O_R   0.347320 0.174720 0.953250 -0.489859
O18   O     O_R   0.315290 0.993890 0.945900 -0.493388
O19   O     O_3   0.162730 0.163890 0.991180 -0.249182
O20   O     O_R   0.315310 0.685650 0.451800 -0.515539
O21   O     O_R   0.346220 0.474990 0.446280 -0.490799
O22   O     O_R   0.492270 0.312460 0.441630 -0.511927
O23   O     O_R   0.669740 0.350480 0.455640 -0.506596
O24   O     O_R   0.691150 0.501150 0.557860 -0.498772
O25   O     O_R   0.482790 0.673890 0.552920 -0.495962
O26   O     O_R   0.317880 0.687030 0.549170 -0.500432
C85   C     C_3   0.151629 0.833078 0.079551 -0.374999
H25   H     H_    0.129943 0.779882 0.095675 0.111788
H26   H     H_    0.076468 0.911670 0.075513 0.154202
H27   H     H_    0.180543 0.791854 0.046325 0.154330
C86   C     C_3   0.159375 0.849834 0.398235 -0.376886
H28   H     H_    0.086893 0.907549 0.378237 0.115122
H29   H     H_    0.151006 0.775684 0.399498 0.165101
H30   H     H_    0.159002 0.889447 0.432536 0.146967
C87   C     C_3   0.477678 0.912698 0.100771 -0.372845
H31   H     H_    0.503381 0.867602 0.067771 0.144909
H32   H     H_    0.443337 0.001370 0.098370 0.178996
H33   H     H_    0.552419 0.886515 0.123933 0.104897
C88   C     C_1   0.108137 0.459651 0.803939 0.216186
N1    N     N_1   0.028935 0.512833 0.782991 -0.256161
C89   C     C_1   0.169272 0.535161 0.678775 0.211694
N2    N     N_1   0.099420 0.609241 0.696405 -0.240792
C90   C     C_1   0.496441 0.193009 0.907209 0.225831
N3    N     N_1   0.576571 0.139537 0.927583 -0.280657
C91   C     C_1   0.779768 0.512177 0.806369 0.205871
N4    N     N_1   0.757531 0.588203 0.831239 -0.285171
C92   C     C_1   0.159054 0.847395 0.684637 0.212276
N5    N     N_1   0.087107 0.853325 0.659655 -0.272784
C93   C     C_1   0.133138 0.884486 0.779004 0.214129
N6    N     N_1   0.050560 0.906329 0.792230 -0.276070
C94   C     C_3   0.548113 0.778496 0.716288 -0.384890
H34   H     H_    0.552570 0.765916 0.679406 0.144090
H35   H     H_    0.567503 0.845576 0.728442 0.142879
H36   H     H_    0.611177 0.702908 0.731168 0.140247
C95   C     C_3   0.776520 0.520158 0.180170 -0.405500
H37   H     H_    0.750000 0.523609 0.213751 0.140092
H38   H     H_    0.842206 0.543886 0.184440 0.125709
H39   H     H_    0.705660 0.580540 0.160408 0.132237
C96   C     C_1   0.841128 0.497005 0.410091 0.208846
N7    N     N_1   0.863831 0.557675 0.432214 -0.290929

loop_
_geom_bond_atom_site_label_1
_geom_bond_atom_site_label_2
_ccdc_geom_bond_type
C58   C62   A    
C55   C56   S    
C63   C65   T    
C50   H14   S    
C90   N3    T    
C41   C42   A    
C34   O25   A    
C35   C36   A    
C34   C66   S    
C80   O6    A    
C86   H28   S    
C94   H34   S    
C68   C92   S    
C40   C46   A    
C46   H12   S    
C26   C27   A    
C33   C39   A    
C74   C76   T    
C18   C24   A    
C27   C28   A    
C36   C37   S    
C23   O1    A    
Cr4   O19   S    
Cr3   O3    S    
Cr4   O13   S    
C58   C91   S    
C85   H26   S    
C5    C6    S    
Cr5   O8    S    
C48   H11   S    
C49   C54   A    
C2    H17   S    
Cr5   O15   S    
Cr2   O2    S    
C18   C19   A    
C73   C74   S    
C32   C39   A    
Cr1   O5    S    
C19   H2    S    
C70   H20   S    
C65   C81   S    
C16   C95   S    
Cr2   O20   S    
C80   O11   A    
C91   N4    T    
C44   C46   A    
C16   C17   A    
C12   O21   A    
C8    C79   S    
C69   C73   A    
Cr2   O5    S    
C60   H19   S    
Cr4   O6    S    
C35   H8    S    
C9    C10   A    
Cr1   O25   S    
C31   C36   A    
C10   H24   S    
Cr2   O26   S    
Cr6   O18   S    
C57   H16   S    
C59   C60   A    
C94   H35   S    
C21   C22   T    
C1    C25   S    
C95   H38   S    
C49   C90   S    
Cr1   O12   S    
Cr6   O10   S    
Cr3   O23   S    
C4    C7    S    
C76   C83   S    
C86   H29   S    
C43   C53   S    
C92   N5    T    
C40   C45   S    
C12   C67   S    
C27   H10   S    
C17   C24   A    
Cr5   O19   S    
C15   C96   S    
C51   C52   S    
C95   H37   S    
Cr1   O1    S    
C1    O12   A    
Cr3   O4    S    
C85   H27   S    
C3    H21   S    
C5    C84   A    
C68   C69   A    
C47   C51   A    
Cr5   O9    S    
C25   C26   A    
C96   N7    T    
C70   C73   A    
C79   O9    A    
Cr5   O16   S    
C41   H13   S    
C60   C61   A    
C61   C64   S    
C48   C54   A    
C43   C44   A    
C4    C78   A    
C37   C38   T    
C56   O24   A    
Cr2   O21   S    
C81   O15   A    
C47   C48   A    
C28   C38   S    
C29   C30   A    
C68   C72   A    
C55   C64   T    
C62   C63   S    
Cr3   O5    S    
C50   C51   A    
C16   C20   A    
C32   C85   S    
C70   C71   A    
Cr6   O17   S    
C11   H4    S    
C40   C41   A    
C94   H36   S    
C85   H25   S    
C81   O14   A    
C71   C94   S    
C95   H39   S    
C87   H33   S    
C2    C5    A    
C82   O16   A    
C42   C43   A    
C1    O20   A    
C17   H22   S    
C54   C82   S    
C86   H30   S    
C52   C53   T    
C30   C86   S    
C45   O3    A    
C25   C30   A    
Cr6   O19   S    
C28   C29   A    
C59   C62   A    
C77   O8    A    
C84   H9    S    
C56   O4    A    
Cr3   O22   S    
C23   O23   A    
C31   C32   A    
C9    C23   S    
C69   C93   S    
C83   O13   A    
Cr4   O7    S    
C29   H6    S    
C6    C8    T    
C57   C61   A    
C78   H1    S    
C14   H23   S    
C47   C88   S    
C79   O10   A    
C59   H18   S    
C39   C80   S    
C44   C89   S    
C19   C20   A    
C87   H32   S    
C2    C3    A    
C9    C15   A    
C71   C72   A    
Cr4   O14   S    
C33   C87   S    
C87   H31   S    
C11   C13   A    
C45   O2    A    
C72   C75   S    
C57   C58   A    
C31   H5    S    
C66   C75   T    
C34   O26   A    
C33   C35   A    
Cr6   O11   S    
C13   C22   S    
C42   H15   S    
C93   N6    T    
C77   O7    A    
C10   C11   A    
C26   H7    S    
C7    C67   T    
C78   C84   A    
C24   C77   S    
C83   O18   A    
C20   C21   S    
C49   C50   A    
C12   O22   A    
C89   N2    T    
C18   H3    S    
C14   C15   A    
C82   O17   A    
C13   C14   A    
Cr1   O24   S    
C3    C4    A    
C88   N1    T    
