data_mof_unit_8706.cif
_audit_creation_date              2013-03-05T15:50:11-0500
_audit_creation_method            fapswitch 2.2
_symmetry_space_group_name_H-M    P1
_symmetry_Int_Tables_number       1
_space_group_crystal_system       triclinic
_cell_length_a                    18.335067
_cell_length_b                    25.870751
_cell_length_c                    18.319339
_cell_angle_alpha                 89.886041
_cell_angle_beta                  89.790996
_cell_angle_gamma                 89.883224
_cell_volume                      8689.53811547

loop_
_atom_site_label
_atom_site_type_symbol
_atom_site_description
_atom_site_fract_x
_atom_site_fract_y
_atom_site_fract_z
_atom_type_partial_charge
Zn1   Zn    Zn3+2 0.249990 0.293780 0.913250 1.070898
Zn2   Zn    Zn3+2 0.249990 0.706220 0.086750 1.008654
Zn3   Zn    Zn3+2 0.249990 0.706220 0.913250 1.025621
Zn4   Zn    Zn3+2 0.249990 0.293780 0.086750 1.005140
Zn5   Zn    Zn3+2 0.749990 0.793780 0.413250 1.026032
Zn6   Zn    Zn3+2 0.749990 0.206220 0.586750 0.971363
Zn7   Zn    Zn3+2 0.749990 0.206220 0.413250 1.031442
Zn8   Zn    Zn3+2 0.749990 0.793780 0.586750 1.024184
Zn9   Zn    Zn3+2 0.336760 0.206240 0.000000 1.009496
Zn10  Zn    Zn3+2 0.336760 0.793760 0.000000 0.982045
Zn11  Zn    Zn3+2 0.836760 0.706240 0.500000 0.999271
Zn12  Zn    Zn3+2 0.836760 0.293760 0.500000 1.021394
Zn13  Zn    Zn3+2 0.163250 0.206230 0.000000 0.953767
Zn14  Zn    Zn3+2 0.163250 0.793770 0.000000 0.979281
Zn15  Zn    Zn3+2 0.663250 0.706230 0.500000 0.990333
Zn16  Zn    Zn3+2 0.663250 0.293770 0.500000 0.993044
O1    O     O_3   0.249990 0.250010 0.000000 -0.514914
O2    O     O_3   0.249990 0.749990 0.000000 -0.489492
O3    O     O_3   0.749990 0.750010 0.500000 -0.485350
O4    O     O_3   0.749990 0.249990 0.500000 -0.510417
O5    O     O_R   0.335430 0.280650 0.146160 -0.653655
O6    O     O_R   0.335430 0.719350 0.853840 -0.656524
O7    O     O_R   0.335430 0.719350 0.146160 -0.645948
O8    O     O_R   0.335430 0.280650 0.853840 -0.545974
O9    O     O_R   0.835430 0.780650 0.646160 -0.670222
O10   O     O_R   0.835430 0.219350 0.353840 -0.649116
O11   O     O_R   0.835430 0.219350 0.646160 -0.668056
O12   O     O_R   0.835430 0.780650 0.353840 -0.639052
O13   O     O_R   0.164550 0.280640 0.853840 -0.579733
O14   O     O_R   0.164550 0.719360 0.146160 -0.650802
O15   O     O_R   0.164550 0.719360 0.853840 -0.626624
O16   O     O_R   0.164550 0.280640 0.146160 -0.599150
O17   O     O_R   0.664550 0.780640 0.353840 -0.667925
O18   O     O_R   0.664550 0.219360 0.646160 -0.638951
O19   O     O_R   0.664550 0.219360 0.353840 -0.558462
O20   O     O_R   0.664550 0.780640 0.646160 -0.622094
O21   O     O_R   0.396160 0.219380 0.914560 -0.655910
O22   O     O_R   0.396160 0.780620 0.085440 -0.656688
O23   O     O_R   0.396160 0.780620 0.914560 -0.647822
O24   O     O_R   0.396160 0.219380 0.085440 -0.586863
O25   O     O_R   0.896160 0.719380 0.414560 -0.647472
O26   O     O_R   0.896160 0.280620 0.585440 -0.584897
O27   O     O_R   0.896160 0.280620 0.414560 -0.621974
O28   O     O_R   0.896160 0.719380 0.585440 -0.655347
O29   O     O_R   0.103840 0.219370 0.085450 -0.662849
O30   O     O_R   0.103840 0.780630 0.914550 -0.664912
O31   O     O_R   0.103840 0.780630 0.085450 -0.647730
O32   O     O_R   0.103840 0.219370 0.914550 -0.667040
O33   O     O_R   0.603840 0.719370 0.585450 -0.665266
O34   O     O_R   0.603840 0.280630 0.414550 -0.659096
O35   O     O_R   0.603840 0.280630 0.585450 -0.602371
O36   O     O_R   0.603840 0.719370 0.414550 -0.652277
O37   O     O_R   0.310730 0.133160 0.000000 -0.622914
O38   O     O_R   0.310730 0.866840 0.000000 -0.643237
O39   O     O_R   0.810730 0.633160 0.500000 -0.652527
O40   O     O_R   0.810730 0.366840 0.500000 -0.619562
O41   O     O_R   0.249970 0.366860 0.060720 -0.622504
O42   O     O_R   0.249970 0.633140 0.939280 -0.611356
O43   O     O_R   0.249970 0.633140 0.060720 -0.640388
O44   O     O_R   0.249970 0.366860 0.939280 -0.615080
O45   O     O_R   0.749970 0.866860 0.560720 -0.621524
O46   O     O_R   0.749970 0.133140 0.439280 -0.606042
O47   O     O_R   0.749970 0.133140 0.560720 -0.647374
O48   O     O_R   0.749970 0.866860 0.439280 -0.646462
O49   O     O_R   0.189290 0.133150 0.000000 -0.645836
O50   O     O_R   0.189290 0.866850 0.000000 -0.648170
O51   O     O_R   0.689290 0.633150 0.500000 -0.653706
O52   O     O_R   0.689290 0.366850 0.500000 -0.649481
C1    C     C_R   0.391781 0.251059 0.138189 0.762873
C2    C     C_R   0.385789 0.754512 0.856202 0.828049
C3    C     C_R   0.390620 0.749066 0.139894 0.850477
C4    C     C_R   0.391740 0.252057 0.862504 0.822162
C5    C     C_R   0.886508 0.746789 0.643588 0.846038
C6    C     C_R   0.890518 0.249131 0.360992 0.762885
C7    C     C_R   0.889405 0.250119 0.640357 0.803640
C8    C     C_R   0.890607 0.750415 0.360113 0.896432
C9    C     C_R   0.111200 0.249390 0.859006 0.800298
C10   C     C_R   0.113918 0.754362 0.143682 0.837654
C11   C     C_R   0.109305 0.749084 0.860093 0.855654
C12   C     C_R   0.108679 0.251329 0.138178 0.787919
C13   C     C_R   0.613250 0.747117 0.356599 0.859459
C14   C     C_R   0.608505 0.249376 0.638665 0.779545
C15   C     C_R   0.608651 0.248567 0.361832 0.843510
C16   C     C_R   0.609196 0.750556 0.639703 0.866564
C17   C     C_R   0.250050 0.109288 0.000076 0.775080
C18   C     C_R   0.249976 0.890585 0.000510 0.819774
C19   C     C_R   0.750014 0.609407 0.500436 0.820000
C20   C     C_R   0.750074 0.390714 0.499140 0.811949
C21   C     C_R   0.247915 0.391241 0.999949 0.796136
C22   C     C_R   0.247957 0.608820 0.000132 0.801207
C23   C     C_R   0.748135 0.891208 0.499672 0.815911
C24   C     C_R   0.748948 0.108758 0.499841 0.761689
C25   C     C_3   0.204531 0.469784 0.070813 -0.244302
C26   C     C_3   0.199620 0.530696 0.932894 -0.223629
C27   C     C_3   0.210524 0.529990 0.074335 -0.253546
C28   C     C_3   0.206130 0.470498 0.928593 -0.239279
C29   C     C_3   0.682932 0.969782 0.550349 -0.225796
C30   C     C_3   0.729126 0.030153 0.419679 -0.255901
C31   C     C_3   0.688357 0.030047 0.556383 -0.237150
C32   C     C_3   0.735297 0.970209 0.418015 -0.264831
H1    H     H_    0.350883 0.458180 0.051233 0.181792
H2    H     H_    0.347176 0.541645 0.941498 0.190663
H3    H     H_    0.357291 0.546050 0.038384 0.192234
H4    H     H_    0.354587 0.453877 0.953887 0.217933
H5    H     H_    0.826580 0.957932 0.584730 0.187596
H6    H     H_    0.862966 0.041339 0.481058 0.171540
H7    H     H_    0.837773 0.045682 0.575211 0.182484
H8    H     H_    0.864726 0.953322 0.494965 0.185640
C33   C     C_3   0.322621 0.470176 0.000225 -0.411320
C34   C     C_3   0.322385 0.529760 0.994491 -0.413413
C35   C     C_3   0.818503 0.969879 0.526897 -0.402800
C36   C     C_3   0.820794 0.029508 0.521629 -0.431680
C37   C     C_3   0.243319 0.448991 0.999842 -0.026465
C38   C     C_3   0.243279 0.551195 0.000611 -0.027912
C39   C     C_3   0.744424 0.948871 0.498143 -0.027047
C40   C     C_3   0.744930 0.051057 0.498932 -0.006013
H9    H     H_    0.143720 0.103181 0.683578 0.128388
H10   H     H_    0.900473 0.862149 0.071324 0.139464
H11   H     H_    0.877890 0.799823 0.978280 0.137916
H12   H     H_    0.897478 0.368156 0.073575 0.160708
H13   H     H_    0.431026 0.611860 0.410392 0.143157
H14   H     H_    0.374195 0.174544 0.555675 0.123438
H15   H     H_    0.385304 0.146415 0.437870 0.126200
H16   H     H_    0.364572 0.731668 0.515964 0.131426
C41   C     C_R   0.011670 0.333003 0.851066 -0.118914
C42   C     C_R   0.153612 0.737392 0.301215 -0.130897
C43   C     C_R   0.125076 0.701513 0.711396 -0.121667
C44   C     C_R   0.123860 0.184949 0.258698 -0.138572
C45   C     C_R   0.634497 0.798580 0.206036 -0.121406
C46   C     C_R   0.636423 0.301834 0.774079 -0.145329
C47   C     C_R   0.626237 0.307744 0.232246 -0.140632
C48   C     C_R   0.630980 0.776769 0.793679 -0.120422
C49   C     C_R   0.964156 0.374574 0.850316 -0.107520
C50   C     C_R   0.170148 0.728114 0.374059 -0.147777
C51   C     C_R   0.128789 0.665875 0.654465 -0.142456
C52   C     C_R   0.134322 0.151827 0.317166 -0.195157
C53   C     C_R   0.645648 0.815457 0.134678 -0.139468
C54   C     C_R   0.649061 0.331540 0.835763 -0.143927
C55   C     C_R   0.642157 0.329843 0.164744 -0.110374
C56   C     C_R   0.642066 0.805636 0.856824 -0.146264
C57   C     C_R   0.605116 0.794593 0.078409 -0.250070
C58   C     C_R   0.592405 0.342020 0.883915 -0.215912
C59   C     C_R   0.604624 0.313831 0.103144 -0.216712
C60   C     C_R   0.585353 0.835192 0.885400 -0.282564
C61   C     C_R   0.908332 0.376409 0.800050 -0.123398
C62   C     C_R   0.118096 0.736746 0.427741 -0.223987
C63   C     C_R   0.065331 0.642980 0.628882 -0.228302
C64   C     C_R   0.084344 0.150604 0.373681 -0.116137
C65   C     C_R   0.546173 0.762300 0.093843 0.048985
C66   C     C_R   0.522894 0.321168 0.872732 0.013990
C67   C     C_R   0.547212 0.278547 0.109730 -0.062969
C68   C     C_R   0.514666 0.829394 0.858260 0.030802
C69   C     C_R   0.897973 0.336201 0.749906 0.015439
C70   C     C_R   0.047898 0.753358 0.409078 0.034946
C71   C     C_R   0.997298 0.660057 0.654103 0.033663
C72   C     C_R   0.021519 0.181395 0.371838 0.034786
C73   C     C_R   0.524101 0.755392 0.168039 0.083301
C74   C     C_R   0.511471 0.285182 0.814476 0.054533
C75   C     C_R   0.519925 0.265690 0.180458 0.084123
C76   C     C_R   0.501583 0.790776 0.804512 0.086748
C77   C     C_R   0.947825 0.292879 0.748551 -0.011722
C78   C     C_R   0.026305 0.753604 0.333908 0.073479
C79   C     C_R   0.994114 0.703716 0.701510 0.069064
C80   C     C_R   0.008569 0.215634 0.310988 -0.008827
C81   C     C_R   0.005269 0.291949 0.800553 0.052702
C82   C     C_R   0.081980 0.750375 0.279643 0.066098
C83   C     C_R   0.056864 0.716182 0.741394 0.051284
C84   C     C_R   0.061454 0.217359 0.254279 0.086455
C85   C     C_R   0.575615 0.765028 0.223707 0.045385
C86   C     C_R   0.567639 0.279212 0.761590 0.067526
C87   C     C_R   0.566050 0.273959 0.240466 0.054764
C88   C     C_R   0.560746 0.774121 0.762242 0.035297
C89   C     C_R   0.452413 0.741241 0.189991 -0.153616
C90   C     C_R   0.448527 0.253269 0.807405 -0.130782
C91   C     C_R   0.448067 0.247641 0.194570 -0.113738
C92   C     C_R   0.433927 0.765883 0.792529 -0.162188
C93   C     C_R   0.943134 0.250571 0.698736 -0.143428
C94   C     C_R   0.952274 0.757159 0.309595 -0.141076
C95   C     C_R   0.933524 0.737791 0.708407 -0.167322
C96   C     C_R   0.946425 0.248490 0.304620 -0.123977
C97   C     C_R   0.442970 0.716674 0.258932 0.038661
C98   C     C_R   0.437527 0.223645 0.744067 0.048653
C99   C     C_R   0.430102 0.226133 0.263456 0.087607
C100  C     C_R   0.417398 0.750350 0.720091 0.059615
C101  C     C_R   0.992797 0.208477 0.701935 0.059805
C102  C     C_R   0.938247 0.773215 0.237038 0.037494
C103  C     C_R   0.923251 0.763428 0.777111 0.052321
C104  C     C_R   0.935150 0.280197 0.242415 0.086711
C105  C     C_R   0.054644 0.211342 0.747523 0.057138
C106  C     C_R   0.997110 0.789869 0.194403 0.071461
C107  C     C_R   0.975522 0.754357 0.832463 0.082027
C108  C     C_R   0.986912 0.280736 0.184633 -0.014573
C109  C     C_R   0.505745 0.704337 0.298915 0.070906
C110  C     C_R   0.481660 0.233239 0.683088 0.081079
C111  C     C_R   0.485377 0.219896 0.316990 0.068748
C112  C     C_R   0.473062 0.753224 0.665653 0.079708
C113  C     C_R   0.056492 0.250768 0.801162 -0.117060
C114  C     C_R   0.065273 0.765460 0.206940 -0.149223
C115  C     C_R   0.047386 0.740906 0.810181 -0.150089
C116  C     C_R   0.051473 0.250515 0.193304 -0.128881
C117  C     C_R   0.565907 0.738703 0.292104 -0.160656
C118  C     C_R   0.552248 0.253523 0.695266 -0.113548
C119  C     C_R   0.552008 0.247500 0.306462 -0.135251
C120  C     C_R   0.547133 0.757479 0.689916 -0.159257
C121  C     C_R   0.374817 0.702064 0.289004 -0.136459
C122  C     C_R   0.381122 0.186744 0.738336 -0.083150
C123  C     C_R   0.358700 0.208239 0.278523 -0.077362
C124  C     C_R   0.345816 0.737160 0.698967 -0.134398
C125  C     C_R   0.983020 0.163768 0.658369 -0.073372
C126  C     C_R   0.867786 0.775746 0.206044 -0.091609
C127  C     C_R   0.863019 0.795686 0.795363 -0.154375
C128  C     C_R   0.871862 0.311639 0.237226 -0.190149
C129  C     C_R   0.371300 0.666564 0.346304 -0.153942
C130  C     C_R   0.363797 0.165426 0.670852 -0.055913
C131  C     C_R   0.342885 0.182390 0.342928 -0.122213
C132  C     C_R   0.329245 0.726932 0.626503 -0.151819
C133  C     C_R   0.035521 0.125142 0.655479 -0.119943
C134  C     C_R   0.856002 0.804680 0.142917 -0.144826
C135  C     C_R   0.852426 0.812755 0.866634 -0.169088
C136  C     C_R   0.859794 0.343087 0.177324 -0.163852
C137  C     C_R   0.100546 0.131161 0.692524 -0.228869
C138  C     C_R   0.912396 0.834205 0.113771 -0.287971
C139  C     C_R   0.894252 0.792551 0.922601 -0.242588
C140  C     C_R   0.909176 0.343807 0.120365 -0.048936
C141  C     C_R   0.434899 0.643612 0.371933 -0.250310
C142  C     C_R   0.396780 0.184801 0.608031 -0.201248
C143  C     C_R   0.398054 0.170802 0.391512 -0.214314
C144  C     C_R   0.381196 0.734737 0.572538 -0.227196
C145  C     C_R   0.111993 0.174256 0.736950 0.026378
C146  C     C_R   0.983364 0.828408 0.140400 0.027525
C147  C     C_R   0.953871 0.760892 0.906803 0.043153
C148  C     C_R   0.971623 0.312605 0.121748 0.048239
C149  C     C_R   0.502825 0.660594 0.346420 0.032377
C150  C     C_R   0.452371 0.221729 0.613305 -0.063627
C151  C     C_R   0.469440 0.187852 0.379151 0.044821
C152  C     C_R   0.451291 0.751727 0.590481 0.027085
H17   H     H_    0.970446 0.405566 0.889415 0.178216
H18   H     H_    0.225357 0.718434 0.389616 0.131127
H19   H     H_    0.181169 0.653482 0.633430 0.144365
H20   H     H_    0.181386 0.126553 0.318416 0.134972
H21   H     H_    0.689370 0.842075 0.122293 0.150367
H22   H     H_    0.702188 0.348652 0.844325 0.144003
H23   H     H_    0.687188 0.356438 0.159235 0.132527
H24   H     H_    0.695440 0.807646 0.880914 0.140016
H25   H     H_    0.621785 0.802053 0.022812 0.135942
H26   H     H_    0.602094 0.368496 0.928598 0.131402
H27   H     H_    0.624524 0.325538 0.049894 0.127686
H28   H     H_    0.596759 0.863033 0.927922 0.141634
H29   H     H_    0.871256 0.409090 0.801846 0.175193
H30   H     H_    0.134634 0.734586 0.484438 0.128962
H31   H     H_    0.069397 0.611221 0.590610 0.144671
H32   H     H_    0.094046 0.124398 0.418910 0.151569
H33   H     H_    0.323990 0.717846 0.269930 0.146390
H34   H     H_    0.349987 0.174565 0.785568 0.123472
H35   H     H_    0.314396 0.212829 0.240297 0.124705
H36   H     H_    0.300682 0.737391 0.736596 0.150759
H37   H     H_    0.935069 0.158004 0.625333 0.157904
H38   H     H_    0.821629 0.755984 0.230054 0.152740
H39   H     H_    0.822144 0.808612 0.757966 0.186261
H40   H     H_    0.830940 0.313034 0.279879 0.115730
C153  C     C_R   0.316179 0.053098 0.118348 -0.164062
C154  C     C_R   0.312881 0.945917 0.119991 -0.219684
C155  C     C_R   0.817141 0.554699 0.382763 -0.140268
C156  C     C_R   0.824154 0.447688 0.385135 -0.239668
C157  C     C_R   0.349336 0.026456 0.176275 0.017092
C158  C     C_R   0.348000 0.971884 0.176835 -0.039168
C159  C     C_R   0.857612 0.529319 0.328599 0.012937
C160  C     C_R   0.861167 0.474833 0.329986 -0.047530
C161  C     C_R   0.282354 0.972625 0.059782 0.079078
C162  C     C_R   0.283450 0.026803 0.059150 0.035355
C163  C     C_R   0.786621 0.473478 0.442298 0.074962
C164  C     C_R   0.784554 0.527623 0.441740 0.025713
C165  C     C_R   0.249927 0.946160 0.000766 -0.128929
C166  C     C_R   0.250004 0.053519 0.000488 -0.132507
C167  C     C_R   0.750469 0.446472 0.499405 -0.121444
C168  C     C_R   0.749993 0.553820 0.500024 -0.141844
C169  C     C_R   0.217527 0.972626 0.941738 0.065599
C170  C     C_R   0.216363 0.026940 0.942161 0.075962
C171  C     C_R   0.716143 0.472774 0.557929 0.069368
C172  C     C_R   0.716904 0.527099 0.558716 0.057398
C173  C     C_R   0.187233 0.945965 0.881362 -0.118522
C174  C     C_R   0.182757 0.053291 0.883139 -0.146535
C175  C     C_R   0.683327 0.446086 0.617381 -0.055218
C176  C     C_R   0.686160 0.553458 0.619413 -0.120491
C177  C     C_R   0.153545 0.972662 0.824784 -0.130693
C178  C     C_R   0.150693 0.026183 0.826084 -0.148734
C179  C     C_R   0.652333 0.472800 0.675690 -0.123802
C180  C     C_R   0.653922 0.526404 0.676799 -0.135760
H41   H     H_    0.315039 0.094820 0.121232 0.172107
H42   H     H_    0.310812 0.904189 0.123136 0.134350
H43   H     H_    0.813209 0.596292 0.379123 0.187956
H44   H     H_    0.825189 0.405968 0.382168 0.133850
H45   H     H_    0.235898 0.454833 0.118510 0.199853
H46   H     H_    0.227007 0.545937 0.882829 0.199583
H47   H     H_    0.251542 0.538776 0.117381 0.192868
H48   H     H_    0.244676 0.462000 0.882879 0.204894
H49   H     H_    0.694424 0.954195 0.605973 0.195506
H50   H     H_    0.773579 0.044854 0.383420 0.191088
H51   H     H_    0.711948 0.038262 0.611181 0.189788
H52   H     H_    0.787353 0.960935 0.389066 0.192888
H53   H     H_    0.027353 0.091708 0.621019 0.141168
H54   H     H_    0.802264 0.806913 0.119482 0.140781
H55   H     H_    0.808189 0.838902 0.879354 0.141468
H56   H     H_    0.811966 0.367522 0.175313 0.149194
H57   H     H_    0.318981 0.654278 0.367524 0.148566
H58   H     H_    0.319966 0.137629 0.666623 0.134184
H59   H     H_    0.288219 0.168827 0.353572 0.136550
H60   H     H_    0.274069 0.717100 0.611310 0.130703
C181  C     C_2   0.188136 0.182232 0.759938 0.343006
H61   H     H_    0.218957 0.150489 0.783262 0.004207
O53   O     O_2   0.218980 0.222943 0.746633 -0.526517
C182  C     C_2   0.037309 0.868820 0.120445 0.486507
H62   H     H_    0.027549 0.893767 0.073748 0.049130
O54   O     O_2   0.091907 0.875727 0.157139 -0.584244
C183  C     C_2   0.983785 0.729640 0.967908 0.442946
H63   H     H_    0.973957 0.741428 0.023925 0.063745
O55   O     O_2   0.016516 0.689267 0.956612 -0.558733
C184  C     C_2   0.014736 0.313309 0.053584 0.327718
H64   H     H_    0.024285 0.278073 0.023338 0.088640
O56   O     O_2   0.036359 0.354166 0.028393 -0.621302
C185  C     C_2   0.566945 0.626925 0.360717 0.472821
H65   H     H_    0.564130 0.597397 0.402828 0.054894
O57   O     O_2   0.622597 0.630696 0.324263 -0.577436
C186  C     C_2   0.458551 0.258592 0.551762 0.466820
H66   H     H_    0.447855 0.246193 0.496651 0.025046
O58   O     O_2   0.467958 0.304627 0.562880 -0.507076
C187  C     C_2   0.524124 0.166596 0.430003 0.311046
H67   H     H_    0.511966 0.163674 0.487823 0.024923
O59   O     O_2   0.580219 0.147369 0.407144 -0.544847
C188  C     C_2   0.492244 0.776261 0.529698 0.445524
H68   H     H_    0.483638 0.763284 0.474069 0.047862
O60   O     O_2   0.531927 0.813290 0.540224 -0.541264
H69   H     H_    0.123910 0.046701 0.782413 0.136463
H70   H     H_    0.129778 0.951723 0.779657 0.135885
H71   H     H_    0.630660 0.547140 0.722602 0.145944
H72   H     H_    0.627849 0.451745 0.720633 0.152562
C189  C     C_2   0.381847 0.056800 0.236529 0.459795
H73   H     H_    0.384208 0.041331 0.291482 0.106847
O61   O     O_2   0.406383 0.099918 0.225245 -0.547139
C190  C     C_2   0.383880 0.939686 0.233690 0.373531
H74   H     H_    0.366877 0.899858 0.241423 0.063130
O62   O     O_2   0.434722 0.955848 0.269829 -0.556569
C191  C     C_2   0.898771 0.560893 0.274398 0.459362
H75   H     H_    0.943861 0.544571 0.243803 0.151193
O63   O     O_2   0.883701 0.606357 0.264242 -0.584599
C192  C     C_2   0.902246 0.444144 0.275335 0.361349
H76   H     H_    0.925244 0.407114 0.291090 0.107315
O64   O     O_2   0.908334 0.458380 0.212052 -0.562560
C193  C     C_2   0.127538 0.449665 0.080302 0.548233
H77   H     H_    0.084188 0.462470 0.044572 0.044186
O65   O     O_2   0.112919 0.420072 0.130243 -0.487095
C194  C     C_2   0.121911 0.550794 0.930442 0.491323
H78   H     H_    0.080763 0.535618 0.967178 0.033475
O66   O     O_2   0.104339 0.583572 0.885752 -0.494218
C195  C     C_2   0.141975 0.557443 0.100878 0.406969
H79   H     H_    0.114850 0.586259 0.067577 0.075092
O67   O     O_2   0.117773 0.548567 0.161807 -0.532066
C196  C     C_2   0.136699 0.443099 0.906190 0.371493
H80   H     H_    0.111597 0.414476 0.941182 0.085403
O68   O     O_2   0.109336 0.452014 0.846802 -0.526041
C197  C     C_2   0.607639 0.950554 0.530609 0.482516
H81   H     H_    0.579121 0.966073 0.483748 0.036244
O69   O     O_2   0.577042 0.918585 0.568975 -0.483314
C198  C     C_2   0.658507 0.049945 0.387195 0.602103
H82   H     H_    0.606486 0.040440 0.411828 0.023246
O70   O     O_2   0.659394 0.074715 0.330369 -0.451969
C199  C     C_2   0.615875 0.058413 0.558122 0.362009
H83   H     H_    0.603430 0.088240 0.518711 0.080422
O71   O     O_2   0.571394 0.049178 0.606149 -0.527494
C200  C     C_2   0.677263 0.943952 0.371640 0.435767
H84   H     H_    0.636633 0.918738 0.395639 0.071529
O72   O     O_2   0.676712 0.950349 0.305578 -0.518875
H85   H     H_    0.189322 0.904348 0.876682 0.135195
H86   H     H_    0.180698 0.094907 0.879996 0.131587
H87   H     H_    0.682235 0.404408 0.620696 0.162300
H88   H     H_    0.687449 0.595096 0.624010 0.143008
H89   H     H_    0.054374 0.334014 0.891375 0.156995
H90   H     H_    0.198756 0.737032 0.263611 0.149058
H91   H     H_    0.175841 0.717315 0.730247 0.140512
H92   H     H_    0.165317 0.184169 0.216537 0.116706
H93   H     H_    0.673608 0.813016 0.244053 0.193333
H94   H     H_    0.680719 0.297366 0.735800 0.121387
H95   H     H_    0.660697 0.317943 0.277841 0.107371
H96   H     H_    0.677407 0.756897 0.770287 0.141967
C201  C     C_2   0.517465 0.730907 0.032582 0.432528
H97   H     H_    0.527506 0.742847 0.976611 0.064271
O73   O     O_2   0.485456 0.690288 0.043732 -0.589898
C202  C     C_2   0.464167 0.343223 0.918530 0.319785
H98   H     H_    0.470303 0.344835 0.977377 0.014577
O74   O     O_2   0.411609 0.364121 0.890345 -0.545699
C203  C     C_2   0.534800 0.245475 0.045445 0.471330
H99   H     H_    0.535427 0.261854 0.991240 0.013688
O75   O     O_2   0.530993 0.198574 0.052128 -0.481252
C204  C     C_2   0.460058 0.869535 0.877908 0.504590
H100  H     H_    0.469502 0.894678 0.924290 0.054069
O76   O     O_2   0.405196 0.875961 0.841341 -0.571265
C205  C     C_2   0.832085 0.341420 0.703991 0.375415
H101  H     H_    0.796308 0.308986 0.695118 0.023484
O77   O     O_2   0.815985 0.383107 0.677131 -0.585294
C206  C     C_2   0.006440 0.779044 0.468542 0.408524
H102  H     H_    0.014334 0.766839 0.524705 0.057939
O78   O     O_2   0.967159 0.816196 0.456204 -0.601729
C207  C     C_2   0.933275 0.626589 0.639484 0.497581
H103  H     H_    0.936290 0.597223 0.597312 0.057374
O79   O     O_2   0.877488 0.630320 0.675749 -0.584891
C208  C     C_2   0.972034 0.174600 0.434793 0.341178
H104  H     H_    0.917305 0.159796 0.427266 0.053120
O80   O     O_2   0.993238 0.184515 0.496235 -0.580807

loop_
_geom_bond_atom_site_label_1
_geom_bond_atom_site_label_2
_geom_bond_distance
_ccdc_geom_bond_type
C127  H39   1.069881 S    
H7    C36   1.113509 S    
C162  C166  1.417328 A    
C31   C199  1.517081 S    
C189  H73   1.083579 S    
C145  C181  1.474714 S    
C155  C159  1.400550 A    
C47   C87   1.416560 A    
O26   C7    1.283145 A    
C91   C99   1.416159 A    
C207  O79   1.221396 D    
C205  O77   1.220646 D    
O30   C11   1.293640 A    
H15   C143  1.082110 S    
C163  C164  1.401238 A    
C109  C117  1.423148 A    
C17   C166  1.442787 S    
C156  H44   1.080910 S    
Zn12  O26   1.939168 S    
C73   C85   1.415361 A    
C74   C90   1.426783 A    
C168  C172  1.412799 A    
C186  H66   1.078714 S    
C58   H26   1.083764 S    
C98   C110  1.399073 A    
C171  C175  1.420854 A    
C112  C120  1.435039 A    
C63   C71   1.399636 A    
C134  H54   1.077589 S    
Zn3   O15   1.939829 S    
C53   H21   1.081029 S    
C122  C130  1.392725 A    
C59   C67   1.399445 A    
C50   H18   1.081387 S    
C32   C39   1.576598 S    
C110  C150  1.420719 A    
O11   C7    1.275319 A    
O34   C15   1.277035 A    
C133  C137  1.383230 A    
C50   C62   1.385997 A    
C21   C37   1.496230 S    
C64   H32   1.084512 S    
C188  H68   1.085769 S    
C135  H55   1.080159 S    
C80   C84   1.419182 A    
C190  H74   1.085968 S    
Zn1   O44   1.950761 S    
C31   C40   1.571988 S    
C14   C118  1.463827 S    
Zn2   O43   1.950763 S    
C150  C186  1.479409 S    
C128  C136  1.382954 A    
C69   C205  1.480346 S    
Zn5   O48   1.950761 S    
C69   C77   1.444980 A    
C56   H24   1.076379 S    
Zn6   O47   1.950763 S    
C102  C106  1.398167 A    
C26   C194  1.516502 S    
C82   C114  1.421425 A    
Zn7   O46   1.948923 S    
O16   C12   1.284706 A    
C125  H37   1.079925 S    
C195  H79   1.083594 S    
C62   C70   1.399467 A    
Zn16  O4    1.950591 S    
C63   H31   1.083431 S    
C194  H78   1.082908 S    
Zn12  O4    1.954652 S    
Zn1   O13   1.941706 S    
C76   C88   1.398319 A    
C43   C83   1.415668 A    
C26   C28   1.563812 S    
C24   C40   1.494856 S    
Zn4   O16   1.934529 S    
C75   C87   1.406381 A    
C103  C127  1.422139 A    
C156  C163  1.418087 A    
C43   H91   1.075736 S    
C52   H20   1.081884 S    
C101  C125  1.418607 A    
C49   C61   1.379986 A    
C77   C93   1.429369 A    
C46   C54   1.388263 A    
C187  O59   1.215002 D    
C105  C113  1.418256 A    
C92   C100  1.421213 A    
C155  H43   1.080242 S    
C84   C116  1.419164 A    
C43   C51   1.394786 A    
C72   C208  1.475252 S    
C161  C165  1.414377 A    
H8    C35   1.113463 S    
Zn10  O22   1.939168 S    
C125  C133  1.387061 A    
C141  C149  1.399893 A    
O25   C8    1.283395 A    
Zn13  O29   1.934090 S    
C104  C128  1.419105 A    
C26   H46   1.115728 S    
Zn10  O2    1.954652 S    
C126  H38   1.081306 S    
O29   C12   1.276183 A    
Zn15  O33   1.934090 S    
C7    C93   1.456762 S    
C86   C118  1.415652 A    
C31   H51   1.115534 S    
C204  H100  1.085727 S    
C94   C102  1.416080 A    
C3    C89   1.474039 S    
C45   C53   1.391919 A    
C42   C50   1.389853 A    
C107  C147  1.427417 A    
C185  H65   1.085765 S    
O37   C17   1.273581 A    
C10   C114  1.487801 S    
O48   C23   1.274492 A    
C2    C92   1.489402 S    
C77   C81   1.422868 A    
C201  O73   1.221140 D    
H14   C142  1.079896 S    
C193  H77   1.082492 S    
C111  C119  1.428632 A    
H10   C138  1.083269 S    
C99   C123  1.415532 A    
C97   C121  1.415594 A    
C35   C36   1.546122 S    
Zn16  O35   1.933776 S    
C42   H90   1.074986 S    
C90   C98   1.407210 A    
C200  H84   1.082682 S    
H13   C141  1.083413 S    
C22   C38   1.493430 S    
C132  C144  1.385114 A    
Zn7   O10   1.934485 S    
H3    C34   1.113523 S    
C70   C206  1.483521 S    
O33   C16   1.285539 A    
C61   H29   1.084254 S    
O40   C20   1.271164 A    
C198  H82   1.082244 S    
C184  O56   1.218944 D    
C68   C204  1.484950 S    
C55   C59   1.388278 A    
C177  H70   1.082646 S    
C198  O70   1.221426 D    
C202  H98   1.085183 S    
Zn5   O17   1.941706 S    
C57   H25   1.079433 S    
C55   H23   1.080122 S    
C34   C38   1.555490 S    
C108  C116  1.426476 A    
C25   C27   1.563169 S    
C169  C170  1.405301 A    
C151  C187  1.475819 S    
C179  H72   1.082879 S    
C49   H17   1.082815 S    
C181  O53   1.220200 D    
Zn14  O50   1.950931 S    
H6    C36   1.113480 S    
Zn8   O3    1.953193 S    
C18   C165  1.437775 S    
C129  H57   1.081835 S    
C29   C31   1.566620 S    
O38   C18   1.270998 A    
C74   C86   1.419769 A    
C71   C79   1.427098 A    
C135  C139  1.383633 A    
O5    C1    1.292669 A    
C98   C122  1.413208 A    
C67   C75   1.426187 A    
O32   C9    1.285708 A    
C41   C81   1.415411 A    
C192  O64   1.220497 D    
C67   C203  1.475616 S    
Zn15  O51   1.949044 S    
C25   H45   1.115918 S    
Zn11  O28   1.941037 S    
C196  O68   1.221071 D    
C52   C64   1.380462 A    
C195  O67   1.221176 D    
C51   C63   1.390013 A    
C191  O63   1.221691 D    
C79   C95   1.422200 A    
C27   C195  1.521114 S    
C29   C39   1.571690 S    
C48   H96   1.081186 S    
C36   C40   1.555193 S    
C121  H33   1.075874 S    
O8    C4    1.279047 A    
C71   C207  1.485514 S    
C203  O75   1.221399 D    
C70   C78   1.434237 A    
C206  H102  1.085733 S    
C173  H85   1.080822 S    
O50   C18   1.272043 A    
C159  C160  1.411147 A    
C101  C105  1.412922 A    
C190  O62   1.220373 D    
C175  H87   1.080065 S    
C127  C135  1.391956 A    
Zn1   O1    1.949526 S    
C142  C150  1.402142 A    
Zn13  O1    1.954351 S    
Zn2   O14   1.934167 S    
Zn11  O39   1.950888 S    
C60   C68   1.398287 A    
C205  H101  1.079066 S    
C16   C120  1.471492 S    
C65   C73   1.427769 A    
C158  C190  1.486859 S    
C131  C143  1.381847 A    
O39   C19   1.272660 A    
O36   C13   1.291600 A    
C78   C94   1.432831 A    
C129  C141  1.390259 A    
C89   C97   1.422892 A    
O13   C9    1.273434 A    
C138  C146  1.398977 A    
Zn1   O8    1.934124 S    
C186  O58   1.221334 D    
Zn2   O7    1.941662 S    
C83   C115  1.424221 A    
Zn3   O6    1.934485 S    
O18   C14   1.294284 A    
O31   C10   1.277507 A    
O6    C2    1.298372 A    
C157  C189  1.483272 S    
C30   H50   1.116461 S    
C133  H53   1.082803 S    
C111  C151  1.436719 A    
Zn14  O30   1.941290 S    
Zn15  O3    1.954351 S    
C197  O69   1.220431 D    
Zn11  O3    1.950892 S    
O41   C21   1.279107 A    
C160  C192  1.481619 S    
C20   C167  1.442565 S    
Zn16  O34   1.941290 S    
C8    C94   1.468953 S    
C44   C52   1.384012 A    
C95   C103  1.435485 A    
C27   C38   1.574210 S    
H1    C33   1.113423 S    
C110  C118  1.416167 A    
C93   C101  1.419373 A    
Zn8   O20   1.934529 S    
C88   C120  1.417146 A    
C25   C193  1.514850 S    
C96   C104  1.418275 A    
C78   C82   1.424726 A    
H9    C137  1.083815 S    
C207  H103  1.085784 S    
C194  O66   1.221156 D    
C99   C111  1.421579 A    
C171  C172  1.405606 A    
C4    C90   1.447839 S    
C97   C109  1.402455 A    
C80   C96   1.425139 A    
C146  C182  1.484930 S    
H5    C35   1.113372 S    
C121  C129  1.394795 A    
C183  H63   1.085453 S    
C1    C91   1.465162 S    
C161  C162  1.401827 A    
Zn8   O9    1.939787 S    
C65   C201  1.485209 S    
Zn7   O19   1.939829 S    
C109  C149  1.427178 A    
C189  O61   1.220618 D    
C139  C147  1.394447 A    
C132  H60   1.081210 S    
C173  C177  1.390291 A    
C47   H95   1.082539 S    
C11   C115  1.476136 S    
C175  C179  1.392284 A    
O7    C3    1.276755 A    
C176  C180  1.392366 A    
C29   H49   1.115769 S    
C15   C119  1.454707 S    
C54   C58   1.387032 A    
O19   C15   1.280238 A    
C13   C117  1.485302 S    
C112  C152  1.435807 A    
C66   C202  1.477046 S    
C100  C112  1.426286 A    
C128  H40   1.081905 S    
Zn9   O24   1.941037 S    
C165  C169  1.411064 A    
Zn6   O18   1.934167 S    
Zn10  O23   1.933840 S    
C27   H47   1.115739 S    
C167  C171  1.415924 A    
C153  C157  1.403862 A    
C177  C178  1.385768 A    
C81   C113  1.418857 A    
C179  C180  1.387322 A    
C164  C168  1.413192 A    
C123  C131  1.385096 A    
C199  O71   1.221078 D    
C25   C37   1.574793 S    
Zn15  O36   1.939421 S    
O15   C11   1.275463 A    
O42   C22   1.279425 A    
C204  O76   1.221472 D    
Zn4   O1    1.953193 S    
C30   C32   1.555032 S    
C53   C57   1.384069 A    
C102  C126  1.414416 A    
C28   C37   1.574863 S    
H2    C34   1.113461 S    
Zn9   O37   1.950888 S    
O12   C8    1.282898 A    
C130  H58   1.082609 S    
C30   C198  1.514775 S    
C106  C114  1.418369 A    
C201  H97   1.085466 S    
C108  C148  1.443293 A    
C169  C173  1.420103 A    
C152  C188  1.483101 S    
C66   C74   1.433858 A    
C193  O65   1.221180 D    
C56   C60   1.390814 A    
C42   C82   1.412578 A    
C200  O72   1.221241 D    
Zn5   O3    1.949526 S    
C48   C56   1.393897 A    
Zn6   O4    1.949525 S    
C100  C124  1.412373 A    
C104  C108  1.419188 A    
C29   C197  1.513651 S    
C58   C66   1.400874 A    
C187  H67   1.084152 S    
C33   C34   1.544868 S    
C46   C86   1.411029 A    
C46   H94   1.077276 S    
C182  O54   1.221497 D    
C87   C119  1.411264 A    
O28   C5    1.292277 A    
C85   C117  1.435609 A    
Zn3   O42   1.948923 S    
C32   C200  1.525529 S    
C147  C183  1.485476 S    
C202  O74   1.219807 D    
Zn7   O4    1.953195 S    
O21   C4    1.275823 A    
C137  C145  1.398301 A    
C208  H104  1.084177 S    
C64   C72   1.399642 A    
C106  C146  1.425909 A    
C9    C113  1.462113 S    
C73   C89   1.421592 A    
C191  H75   1.082626 S    
C68   C76   1.425418 A    
Zn2   O2    1.949525 S    
Zn14  O2    1.950591 S    
C105  C145  1.434861 A    
C199  H83   1.080276 S    
C41   H89   1.078605 S    
C26   C38   1.572441 S    
C57   C65   1.395129 A    
C203  H99   1.078882 S    
Zn13  O49   1.949044 S    
C181  H61   1.083879 S    
C182  H62   1.085720 S    
C149  C185  1.485483 S    
C62   H30   1.084372 S    
C45   C85   1.422642 A    
C107  C115  1.420796 A    
C163  C167  1.419814 A    
Zn12  O27   1.933840 S    
C28   C196  1.516621 S    
C140  C148  1.399838 A    
H4    C33   1.112959 S    
C153  H41   1.080950 S    
C12   C116  1.453518 S    
Zn3   O2    1.953195 S    
C123  H35   1.080631 S    
C178  H69   1.078459 S    
C159  C191  1.488779 S    
C185  O57   1.221418 D    
O46   C24   1.275225 A    
O47   C24   1.282589 A    
Zn16  O52   1.950931 S    
C32   H52   1.116096 S    
C157  C158  1.412105 A    
O9    C5    1.281866 A    
C54   H22   1.082865 S    
C33   C37   1.554960 S    
Zn8   O45   1.948923 S    
C61   C69   1.402801 A    
O27   C6    1.281246 A    
C124  C132  1.388970 A    
C75   C91   1.421365 A    
C76   C92   1.416878 A    
C130  C142  1.391137 A    
H11   C139  1.078937 S    
H16   C144  1.084460 S    
C45   H93   1.069821 S    
C134  C138  1.391119 A    
C183  O55   1.221201 D    
O24   C1    1.270530 A    
C47   C55   1.391571 A    
C206  O78   1.221113 D    
C176  H88   1.080981 S    
C154  H42   1.081706 S    
O43   C22   1.277640 A    
O14   C10   1.296375 A    
Zn4   O41   1.948923 S    
C79   C83   1.403614 A    
C28   H48   1.115755 S    
C184  H64   1.081340 S    
Zn5   O12   1.934124 S    
C30   C40   1.578339 S    
Zn6   O11   1.941662 S    
C156  C160  1.403054 A    
C148  C184  1.475551 S    
Zn9   O21   1.933526 S    
C188  O60   1.220198 D    
O35   C14   1.268322 A    
C174  H86   1.078671 S    
C153  C162  1.417142 A    
Zn12  O40   1.949002 S    
Zn9   O1    1.950892 S    
C155  C164  1.417376 A    
C59   H27   1.083124 S    
C60   H28   1.083218 S    
O52   C20   1.275182 A    
C19   C168  1.438108 S    
C122  H34   1.081613 S    
C136  C140  1.379137 A    
C41   C49   1.382737 A    
O44   C21   1.279411 A    
O22   C3    1.291598 A    
C23   C39   1.493406 S    
C166  C170  1.415794 A    
C103  C107  1.416698 A    
C172  C176  1.419869 A    
C154  C158  1.399916 A    
Zn13  O32   1.939421 S    
O49   C17   1.272549 A    
Zn14  O31   1.933776 S    
C143  C151  1.399556 A    
C197  H81   1.082876 S    
O51   C19   1.270537 A    
C126  C134  1.393591 A    
C174  C178  1.392482 A    
C180  H71   1.082584 S    
Zn4   O5    1.939787 S    
C192  H76   1.084901 S    
C44   H92   1.081881 S    
O20   C16   1.286180 A    
O10   C6    1.278874 A    
O23   C2    1.280700 A    
C51   H19   1.081747 S    
Zn11  O25   1.933526 S    
C208  O80   1.220085 D    
C136  H56   1.080681 S    
C196  H80   1.080932 S    
Zn10  O38   1.949002 S    
C144  C152  1.399612 A    
C48   C88   1.414421 A    
C131  H59   1.079571 S    
C5    C95   1.487567 S    
C6    C96   1.452503 S    
C72   C80   1.442486 A    
H12   C140  1.084514 S    
C170  C174  1.419033 A    
C44   C84   1.419617 A    
C35   C39   1.557894 S    
C124  H36   1.075102 S    
O17   C13   1.281487 A    
O45   C23   1.282965 A    
C154  C161  1.416736 A    
