data_mof_unit_34222.cif
_audit_creation_date              2012-12-10T17:46:23-0500
_audit_creation_method            fapswitch 2.2
_symmetry_space_group_name_H-M    P1
_symmetry_Int_Tables_number       1
_space_group_crystal_system       triclinic
_cell_length_a                    20.755501
_cell_length_b                    21.18297
_cell_length_c                    14.745461
_cell_angle_alpha                 89.62455
_cell_angle_beta                  127.979454
_cell_angle_gamma                 90.190244
_cell_volume                      5110.02116392

loop_
_atom_site_label
_atom_site_type_symbol
_atom_type_description
_atom_site_fract_x
_atom_site_fract_y
_atom_site_fract_z
_atom_type_partial_charge
C1    C     C_R   0.602979 0.913994 0.631566 0.803944
C2    C     C_R   0.398092 0.087258 0.369188 0.794805
C3    C     C_R   0.397050 0.913824 0.368599 0.801999
C4    C     C_R   0.602800 0.086282 0.631226 0.799692
C5    C     C_R   0.103805 0.414056 0.632793 0.803034
C6    C     C_R   0.897215 0.586166 0.368678 0.803998
C7    C     C_R   0.896750 0.414068 0.368231 0.798638
C8    C     C_R   0.103134 0.586018 0.631638 0.808859
C9    C     C_R   0.326018 0.776767 0.919581 -0.257797
C10   C     C_R   0.672733 0.224157 0.078813 -0.259698
C11   C     C_R   0.677771 0.779698 0.084753 -0.258478
C12   C     C_R   0.351130 0.236892 0.939581 -0.259336
C13   C     C_R   0.820617 0.280826 0.912969 -0.262448
C14   C     C_R   0.176358 0.721401 0.083283 -0.260795
C15   C     C_R   0.257375 0.323707 0.159648 -0.258575
C16   C     C_R   0.825635 0.722971 0.919705 -0.257116
C17   C     C_R   0.321943 0.997758 0.665672 -0.310060
C18   C     C_R   0.678106 0.001737 0.334398 -0.310373
C19   C     C_R   0.822444 0.486899 0.665587 -0.315907
C20   C     C_R   0.175533 0.518339 0.331940 -0.311883
C21   C     C_R   0.351647 0.998832 0.602913 0.081379
C22   C     C_R   0.648355 0.001340 0.397110 0.080986
C23   C     C_R   0.852237 0.491551 0.603056 0.073505
C24   C     C_R   0.147380 0.509592 0.395889 0.080567
C25   C     C_R   0.488243 0.000300 0.775349 0.069663
C26   C     C_R   0.511815 0.998733 0.224688 0.076402
C27   C     C_R   0.987125 0.506071 0.774981 0.040787
C28   C     C_R   0.011636 0.496736 0.224734 0.071038
C29   C     C_R   0.461904 0.999348 0.844806 -0.006759
C30   C     C_R   0.538197 0.999195 0.155270 -0.002870
C31   C     C_R   0.960165 0.503460 0.843737 -0.014360
C32   C     C_R   0.036688 0.504017 0.154251 -0.005933
C33   C     C_R   0.376542 0.997924 0.786307 0.161953
C34   C     C_R   0.623551 0.000806 0.213781 0.162513
C35   C     C_R   0.876124 0.491835 0.785853 0.159270
C36   C     C_R   0.120516 0.516575 0.211393 0.153883
C37   C     C_R   0.516315 0.999660 0.968769 0.079577
C38   C     C_R   0.483810 0.998502 0.031323 0.080594
C39   C     C_R   0.013265 0.510097 0.966937 0.068311
C40   C     C_R   0.982299 0.500379 0.030427 0.079615
C41   C     C_R   0.398137 0.996770 0.967807 -0.221888
C42   C     C_R   0.601997 0.001169 0.032299 -0.222423
C43   C     C_R   0.898226 0.487358 0.967839 -0.220340
C44   C     C_R   0.095924 0.527192 0.028499 -0.203298
C45   C     C_R   0.345963 0.996554 0.848169 -0.194606
C46   C     C_R   0.654158 0.001661 0.151939 -0.194985
C47   C     C_R   0.846294 0.484252 0.848204 -0.197448
C48   C     C_R   0.148671 0.528972 0.148082 -0.192578
C49   C     C_R   0.658708 0.137877 0.701396 -0.059690
C50   C     C_R   0.340498 0.862671 0.297666 -0.060566
C51   C     C_R   0.350245 0.144328 0.306167 -0.063838
C52   C     C_R   0.660120 0.863398 0.703020 -0.059909
C53   C     C_R   0.160323 0.636670 0.703380 -0.060632
C54   C     C_R   0.839113 0.363731 0.295980 -0.057734
C55   C     C_R   0.840910 0.637400 0.298303 -0.060896
C56   C     C_R   0.167555 0.367501 0.711800 -0.061959
C57   C     C_R   0.751530 0.221087 0.737595 -0.188715
C58   C     C_R   0.246157 0.780336 0.259663 -0.185526
C59   C     C_R   0.290063 0.243512 0.300015 -0.180107
C60   C     C_R   0.754346 0.781232 0.741334 -0.184629
C61   C     C_R   0.255831 0.718256 0.742745 -0.183089
C62   C     C_R   0.743594 0.282088 0.256347 -0.184221
C63   C     C_R   0.747938 0.720258 0.261756 -0.185259
C64   C     C_R   0.275005 0.295193 0.760087 -0.184097
C65   C     C_R   0.699204 0.172110 0.668555 -0.188365
C66   C     C_R   0.299320 0.828723 0.329716 -0.188600
C67   C     C_R   0.322804 0.184631 0.350847 -0.185893
C68   C     C_R   0.700390 0.829236 0.670240 -0.187919
C69   C     C_R   0.201996 0.670381 0.671905 -0.190239
C70   C     C_R   0.797793 0.329682 0.327676 -0.195196
C71   C     C_R   0.800915 0.671509 0.331591 -0.185988
C72   C     C_R   0.214308 0.338598 0.684473 -0.187159
C73   C     C_R   0.669104 0.154350 0.801073 -0.225151
C74   C     C_R   0.329847 0.846522 0.197696 -0.225460
C75   C     C_R   0.342283 0.162931 0.208342 -0.219571
C76   C     C_R   0.672531 0.848190 0.804508 -0.227823
C77   C     C_R   0.171327 0.652448 0.803754 -0.212497
C78   C     C_R   0.827190 0.348691 0.194705 -0.224175
C79   C     C_R   0.829381 0.653495 0.197747 -0.226994
C80   C     C_R   0.183931 0.353446 0.817157 -0.225511
C81   C     C_R   0.712768 0.208446 0.863439 0.085841
C82   C     C_R   0.285430 0.792866 0.134393 0.086088
C83   C     C_R   0.316926 0.224273 0.162482 0.084672
C84   C     C_R   0.716892 0.794618 0.868266 0.086544
C85   C     C_R   0.216445 0.705707 0.867894 0.084267
C86   C     C_R   0.781894 0.295598 0.130063 0.085184
C87   C     C_R   0.785865 0.707607 0.135273 0.086445
C88   C     C_R   0.249237 0.313438 0.898611 0.086758
C89   C     C_R   0.760061 0.238376 0.836257 0.145271
C90   C     C_R   0.237521 0.763265 0.160830 0.143746
C91   C     C_R   0.287132 0.263706 0.206585 0.142896
C92   C     C_R   0.764155 0.764677 0.841482 0.143765
C93   C     C_R   0.264641 0.735120 0.841788 0.142841
C94   C     C_R   0.734168 0.265766 0.156632 0.144044
C95   C     C_R   0.738735 0.737487 0.162314 0.143408
C96   C     C_R   0.291667 0.281485 0.865828 0.144289
C97   C     C_R   0.715608 0.230474 0.957052 -0.002262
C98   C     C_R   0.282578 0.770934 0.040721 -0.001733
C99   C     C_R   0.316856 0.246542 0.070782 -0.002557
C100  C     C_R   0.720144 0.773123 0.962556 -0.001736
C101  C     C_R   0.219503 0.727504 0.961814 0.001288
C102  C     C_R   0.778386 0.274224 0.035531 -0.002449
C103  C     C_R   0.783014 0.729533 0.041556 -0.001794
C104  C     C_R   0.269930 0.301284 0.008865 -0.002704
C105  C     C_R   0.340332 0.789983 0.022847 -0.033075
C106  C     C_R   0.658188 0.211100 0.975348 -0.032689
C107  C     C_R   0.662841 0.792651 0.980796 -0.033945
C108  C     C_R   0.364332 0.219054 0.041108 -0.031011
C109  C     C_R   0.835452 0.293842 0.016648 -0.033059
C110  C     C_R   0.161791 0.708466 0.979757 -0.031173
C111  C     C_R   0.249655 0.343153 0.062851 -0.027465
C112  C     C_R   0.840512 0.710142 0.023649 -0.034268
Cu1   Cu    Cu3+1 0.526640 1.000000 0.436960 0.955168
Cu2   Cu    Cu3+1 0.473360 0.000000 0.563040 0.954735
Cu3   Cu    Cu3+1 0.026640 0.500000 0.436960 0.956163
Cu4   Cu    Cu3+1 0.973360 0.500000 0.563040 0.949485
H1    H     H_    0.367800 0.794604 0.904414 0.157350
H2    H     H_    0.631230 0.206059 0.094316 0.157231
H3    H     H_    0.636539 0.797870 0.100405 0.157624
H4    H     H_    0.387367 0.215531 0.917611 0.157288
H5    H     H_    0.861802 0.299137 0.897033 0.151952
H6    H     H_    0.134659 0.703468 0.098543 0.158515
H7    H     H_    0.240990 0.355924 0.199472 0.152264
H8    H     H_    0.866992 0.704853 0.904251 0.157390
H9    H     H_    0.369111 0.995526 0.008187 0.128955
H10   H     H_    0.631035 0.002084 0.991922 0.129402
H11   H     H_    0.870429 0.479322 0.009047 0.130008
H12   H     H_    0.121220 0.540689 0.985757 0.160119
H13   H     H_    0.353351 0.878431 0.167211 0.154668
H14   H     H_    0.646004 0.122391 0.832085 0.155754
H15   H     H_    0.650118 0.880559 0.835426 0.154759
H16   H     H_    0.355513 0.128442 0.168335 0.153128
H17   H     H_    0.850553 0.381001 0.164562 0.151870
H18   H     H_    0.147411 0.620609 0.833743 0.158701
H19   H     H_    0.143800 0.372664 0.833420 0.161237
H20   H     H_    0.851747 0.621400 0.166384 0.157364
H21   H     H_    0.306448 0.840613 0.406774 0.160625
H22   H     H_    0.692151 0.160041 0.591616 0.159928
H23   H     H_    0.691951 0.840674 0.591846 0.162059
H24   H     H_    0.328601 0.171408 0.426655 0.162124
H25   H     H_    0.805685 0.340867 0.405539 0.154535
H26   H     H_    0.194697 0.658699 0.594645 0.159774
H27   H     H_    0.203077 0.348677 0.603728 0.160880
H28   H     H_    0.808806 0.659489 0.409393 0.163569
H29   H     H_    0.291336 0.741531 0.721015 0.143588
H30   H     H_    0.708414 0.258520 0.278362 0.142638
H31   H     H_    0.713412 0.743837 0.284462 0.144511
H32   H     H_    0.308762 0.272122 0.735654 0.143794
H33   H     H_    0.786267 0.244782 0.714952 0.135873
H34   H     H_    0.210917 0.756908 0.281703 0.143573
H35   H     H_    0.268919 0.273986 0.335614 0.140407
H36   H     H_    0.789003 0.757608 0.718892 0.144654
H37   H     H_    0.280579 0.995278 0.803386 0.142718
H38   H     H_    0.719544 0.002892 0.196734 0.143252
H39   H     H_    0.782022 0.474649 0.803972 0.144645
H40   H     H_    0.212208 0.541068 0.191515 0.155314
H41   H     H_    0.448130 0.997799 0.187588 0.109277
H42   H     H_    0.551931 0.001033 0.812430 0.109825
H43   H     H_    0.948486 0.490232 0.188126 0.110465
H44   H     H_    0.050806 0.511100 0.813118 0.129978
H45   H     H_    0.690574 0.002210 0.490116 0.122359
H46   H     H_    0.309399 0.998486 0.509892 0.123436
H47   H     H_    0.189687 0.512560 0.488714 0.123912
H48   H     H_    0.810660 0.487039 0.510427 0.126806
H49   H     H_    0.256467 0.996680 0.620013 0.138824
H50   H     H_    0.743581 0.002932 0.380078 0.138106
H51   H     H_    0.757758 0.478678 0.620121 0.141087
H52   H     H_    0.239908 0.527575 0.376548 0.139367
N1    N     N_R   0.433280 0.000000 0.657760 -0.175347
N2    N     N_R   0.566720 0.000000 0.342240 -0.175026
N3    N     N_R   0.933280 0.500000 0.657760 -0.177695
N4    N     N_R   0.066720 0.500000 0.342240 -0.175584
O1    O     O_R   0.600040 0.935040 0.546740 -0.587081
O2    O     O_R   0.399960 0.064960 0.453260 -0.584335
O3    O     O_R   0.399960 0.935040 0.453260 -0.586142
O4    O     O_R   0.600040 0.064960 0.546740 -0.586934
O5    O     O_R   0.100040 0.435040 0.546740 -0.581932
O6    O     O_R   0.899960 0.564960 0.453260 -0.583626
O7    O     O_R   0.899960 0.435040 0.453260 -0.593558
O8    O     O_R   0.100040 0.564960 0.546740 -0.588886
O9    O     O_R   0.555010 0.935070 0.653220 -0.579129
O10   O     O_R   0.444990 0.064930 0.346780 -0.576792
O11   O     O_R   0.444990 0.935070 0.346780 -0.580820
O12   O     O_R   0.555010 0.064930 0.653220 -0.581094
O13   O     O_R   0.055010 0.435070 0.653220 -0.583349
O14   O     O_R   0.944990 0.564930 0.346780 -0.578308
O15   O     O_R   0.944990 0.435070 0.346780 -0.581145
O16   O     O_R   0.055010 0.564930 0.653220 -0.578134
C113  C     C_1   0.420437 0.815315 0.112229 0.221724
N5    N     N_1   0.484712 0.835379 0.183359 -0.290531
C114  C     C_1   0.578216 0.185458 0.886218 0.218273
N6    N     N_1   0.514057 0.165137 0.815291 -0.291804
C115  C     C_1   0.582562 0.818002 0.891313 0.221402
N7    N     N_1   0.518164 0.838071 0.820108 -0.288809
C116  C     C_1   0.436248 0.181052 0.120381 0.219078
N8    N     N_1   0.494213 0.151009 0.183786 -0.291732
C117  C     C_1   0.915689 0.319125 0.105515 0.218896
N9    N     N_1   0.980107 0.339092 0.176267 -0.287948
C118  C     C_1   0.081261 0.684002 0.889949 0.211772
N10   N     N_1   0.016611 0.664704 0.818424 -0.290694
C119  C     C_1   0.237153 0.409779 0.035793 0.231348
N11   N     N_1   0.228401 0.463151 0.014305 -0.327631
C120  C     C_1   0.920723 0.684748 0.113372 0.221953
N12   N     N_1   0.985036 0.664606 0.184760 -0.286485

loop_
_geom_bond_atom_site_label_1
_geom_bond_atom_site_label_2
_ccdc_geom_bond_type
C72   H27   S    
C120  N12   T    
C88   C96   A    
C14   H6    S    
Cu4   O6    S    
Cu2   N1    S    
C33   C45   A    
C119  N11   T    
C5    C56   S    
C109  C117  S    
C5    O13   A    
C6    C55   S    
C53   C69   A    
C76   C84   A    
C79   C87   A    
C13   H5    S    
C18   H50   S    
C61   C69   A    
C8    O16   A    
C99   C108  A    
Cu4   O16   S    
C1    O1    A    
C80   H19   S    
C19   H51   S    
C10   H2    S    
C32   C36   A    
C7    O15   A    
C51   C75   A    
C23   H48   S    
C62   H30   S    
C1    C52   S    
C50   C74   A    
C2    O10   A    
C76   H15   S    
C21   N1    A    
C70   H25   S    
C10   C94   A    
C9    C105  A    
Cu3   Cu4   S    
C63   C95   A    
C55   C79   A    
C62   C70   A    
C26   H41   S    
C14   C110  A    
C60   H36   S    
C63   H31   S    
C37   C42   A    
C61   H29   S    
C14   C90   A    
C13   C109  A    
C86   C94   A    
C59   C67   A    
C12   H4    S    
C85   C93   A    
C58   C66   A    
C40   C43   A    
C20   C24   A    
C29   C33   A    
C56   C72   A    
C61   C93   A    
C57   H33   S    
C34   C46   A    
C43   C47   A    
C97   C102  A    
C52   C68   A    
C112  C120  S    
C81   C89   A    
C78   C86   A    
C32   C40   A    
C99   C104  A    
C48   H40   S    
C35   C47   A    
C118  N10   T    
C83   C99   A    
C6    O6    A    
C82   C98   A    
C111  C119  S    
C15   H7    S    
C17   C33   A    
C106  C114  S    
C74   C82   A    
C20   H52   S    
C73   C81   A    
C88   C104  A    
C3    C50   S    
C28   N4    A    
C60   C92   A    
C25   C29   A    
C46   H38   S    
C30   C34   A    
C27   C31   A    
C114  N6    T    
C84   C100  A    
C15   C111  A    
C28   C32   A    
C102  C109  A    
C64   C96   A    
C38   C41   A    
C11   H3    S    
C43   H11   S    
C39   C40   A    
C12   C108  A    
Cu3   O14   S    
C1    O9    A    
C51   C67   A    
C69   H26   S    
C15   C91   A    
C100  C103  A    
C17   C21   A    
Cu4   N3    S    
C87   C95   A    
C103  C112  A    
C104  C111  A    
C19   C23   A    
C37   C38   A    
C49   C65   A    
C41   H9    S    
C22   N2    A    
Cu3   O15   S    
C8    O8    A    
C98   C105  A    
Cu1   O10   S    
C54   C70   A    
C57   C65   A    
C7    O7    A    
C59   C91   A    
C82   C90   A    
C4    O12   A    
C108  C116  S    
C67   H24   S    
C18   C34   A    
C5    O5    A    
Cu3   O5    S    
C57   C89   A    
C58   C90   A    
Cu1   O4    S    
C87   C103  A    
C65   H22   S    
C3    O3    A    
Cu2   O3    S    
C79   H20   S    
C16   C92   A    
C62   C94   A    
C42   C46   A    
C53   C77   A    
C49   C73   A    
C10   C106  A    
C24   H47   S    
C45   H37   S    
C77   H18   S    
C97   C106  A    
C42   H10   S    
C86   C102  A    
C9    C93   A    
C107  C115  S    
C85   C101  A    
C75   H16   S    
C16   C112  A    
Cu1   O1    S    
Cu1   Cu2   S    
C11   C95   A    
C113  N5    T    
C22   H45   S    
C73   H14   S    
C44   H12   S    
C100  C107  A    
C21   H46   S    
C13   C89   A    
C110  C118  S    
C18   C22   A    
C27   H44   S    
C63   C71   A    
Cu3   N4    S    
C52   C76   A    
C56   C80   A    
C8    C53   S    
Cu3   O8    S    
C50   C66   A    
C26   C30   A    
C39   C44   A    
C59   H35   S    
Cu2   O9    S    
C83   C91   A    
Cu4   O13   S    
C6    O14   A    
C7    C54   S    
C98   C101  A    
C4    C49   S    
C60   C68   A    
C25   N1    A    
C101  C110  A    
C80   C88   A    
C17   H49   S    
C2    O2    A    
C11   C107  A    
C75   C83   A    
Cu1   O11   S    
C66   H21   S    
C47   H39   S    
Cu2   O12   S    
C31   C35   A    
C81   C97   A    
C105  C113  S    
C31   C39   A    
C36   C48   A    
Cu1   N2    S    
C64   C72   A    
C16   H8    S    
C117  N9    T    
C24   N4    A    
C78   H17   S    
C55   C71   A    
C2    C51   S    
C28   H43   S    
C77   C85   A    
C116  N8    T    
C20   C36   A    
C44   C48   A    
Cu2   O2    S    
C23   N3    A    
C26   N2    A    
C115  N7    T    
C4    O4    A    
C74   H13   S    
C29   C37   A    
C25   H42   S    
C41   C45   A    
C12   C96   A    
C68   H23   S    
C19   C35   A    
C84   C92   A    
C30   C38   A    
Cu4   O7    S    
C27   N3    A    
C3    O11   A    
C64   H32   S    
C9    H1    S    
C58   H34   S    
C71   H28   S    
C54   C78   A    
