data_mof_unit_65141.cif
_audit_creation_date              2012-12-10T16:43:20-0500
_audit_creation_method            fapswitch 2.2
_symmetry_space_group_name_H-M    P1
_symmetry_Int_Tables_number       1
_space_group_crystal_system       monoclinic
_cell_length_a                    30.1733
_cell_length_b                    31.292423
_cell_length_c                    21.729787
_cell_angle_alpha                 90.0
_cell_angle_beta                  134.987769
_cell_angle_gamma                 90.0
_cell_volume                      14510.9272264

loop_
_atom_site_label
_atom_site_type_symbol
_atom_type_description
_atom_site_fract_x
_atom_site_fract_y
_atom_site_fract_z
_atom_type_partial_charge
C1    C     C_R   0.689505 0.808405 0.881740 0.845997
C2    C     C_R   0.310494 0.808405 0.118260 0.845998
C3    C     C_R   0.189505 0.308405 0.881740 0.845998
C4    C     C_R   0.810494 0.308405 0.118260 0.845998
C5    C     C_R   0.453098 0.788779 0.999323 0.109926
C6    C     C_R   0.546902 0.788779 0.000677 0.109926
C7    C     C_R   0.953098 0.288779 0.999323 0.109926
C8    C     C_R   0.046902 0.288779 0.000677 0.109926
C9    C     C_R   0.477555 0.671797 0.001361 -0.199906
C10   C     C_R   0.522445 0.671797 0.998638 -0.199907
C11   C     C_R   0.977555 0.171797 0.001361 -0.199906
C12   C     C_R   0.022445 0.171797 0.998639 -0.199906
C13   C     C_R   0.523474 0.827480 0.000668 -0.201733
C14   C     C_R   0.476527 0.827480 0.999332 -0.201733
C15   C     C_R   0.023473 0.327480 0.000668 -0.201732
C16   C     C_R   0.976527 0.327480 0.999332 -0.201732
C17   C     C_2   0.596056 0.908146 0.749782 -0.153197
C18   C     C_2   0.403942 0.908147 0.250216 -0.153196
C19   C     C_2   0.096057 0.408147 0.749783 -0.153197
C20   C     C_2   0.903942 0.408147 0.250216 -0.153196
C21   C     C_2   0.597407 0.911037 0.689606 -0.301118
C22   C     C_2   0.402594 0.911036 0.310395 -0.301113
C23   C     C_2   0.097407 0.411037 0.689605 -0.301115
C24   C     C_2   0.902594 0.411036 0.310396 -0.301113
C25   C     C_2   0.636763 0.877695 0.822586 -0.155929
C26   C     C_2   0.363235 0.877695 0.177414 -0.155931
C27   C     C_2   0.136764 0.377696 0.822587 -0.155928
C28   C     C_2   0.863236 0.377695 0.177414 -0.155930
C29   C     C_2   0.651682 0.839893 0.812244 -0.299016
C30   C     C_2   0.348318 0.839893 0.187755 -0.299017
C31   C     C_2   0.151681 0.339893 0.812244 -0.299017
C32   C     C_2   0.848318 0.339893 0.187755 -0.299017
C33   C     C_R   0.133284 0.749704 0.079044 -0.177683
C34   C     C_R   0.866716 0.749704 0.920956 -0.177683
C35   C     C_R   0.633284 0.249704 0.079044 -0.177683
C36   C     C_R   0.366716 0.249704 0.920956 -0.177683
C37   C     C_R   0.116000 0.750968 0.999973 -0.079383
C38   C     C_R   0.884000 0.750968 0.000027 -0.079383
C39   C     C_R   0.616000 0.250968 0.999973 -0.079383
C40   C     C_R   0.383999 0.250968 0.000027 -0.079382
C41   C     C_R   0.052833 0.752719 0.921192 -0.202050
C42   C     C_R   0.947167 0.752719 0.078808 -0.202051
C43   C     C_R   0.552833 0.252719 0.921192 -0.202050
C44   C     C_R   0.447167 0.252719 0.078808 -0.202049
C45   C     C_R   0.664102 0.749839 0.999596 0.804380
C46   C     C_R   0.335898 0.749839 0.000404 0.804381
C47   C     C_R   0.164102 0.249839 0.999596 0.804382
C48   C     C_R   0.835897 0.249839 0.000404 0.804381
C49   C     C_R   0.006326 0.752219 0.920722 0.061719
C50   C     C_R   0.993674 0.752219 0.079277 0.061719
C51   C     C_R   0.506326 0.252219 0.920722 0.061719
C52   C     C_R   0.493674 0.252219 0.079277 0.061719
C53   C     C_R   0.023479 0.751552 0.000319 0.007792
C54   C     C_R   0.976521 0.751552 0.999681 0.007792
C55   C     C_R   0.523479 0.251553 0.000319 0.007792
C56   C     C_R   0.476521 0.251553 0.999681 0.007792
C57   C     C_R   0.087514 0.750775 0.080410 0.034036
C58   C     C_R   0.912486 0.750775 0.919590 0.034036
C59   C     C_R   0.587514 0.250775 0.080410 0.034036
C60   C     C_R   0.412486 0.250775 0.919590 0.034036
C61   C     C_R   0.942998 0.752133 0.841789 -0.235130
C62   C     C_R   0.057001 0.752133 0.158211 -0.235130
C63   C     C_R   0.442999 0.252133 0.841789 -0.235130
C64   C     C_R   0.557001 0.252133 0.158211 -0.235130
C65   C     C_R   0.896135 0.751074 0.840591 0.368317
C66   C     C_R   0.103865 0.751074 0.159409 0.368317
C67   C     C_R   0.396135 0.251074 0.840591 0.368317
C68   C     C_R   0.603865 0.251074 0.159409 0.368317
C69   C     C_2   0.903909 0.591808 0.250178 -0.152723
C70   C     C_2   0.096096 0.591805 0.749827 -0.152724
C71   C     C_2   0.403897 0.091802 0.250167 -0.152727
C72   C     C_2   0.596098 0.091804 0.749828 -0.152725
C73   C     C_2   0.902664 0.588967 0.310465 -0.307883
C74   C     C_2   0.097335 0.588967 0.689534 -0.307877
C75   C     C_2   0.402666 0.088969 0.310469 -0.307872
C76   C     C_2   0.597335 0.088968 0.689533 -0.307877
C77   C     C_2   0.863172 0.622252 0.177357 -0.151677
C78   C     C_2   0.136834 0.622250 0.822647 -0.151675
C79   C     C_2   0.363159 0.122247 0.177348 -0.151678
C80   C     C_2   0.636836 0.122249 0.822649 -0.151675
C81   C     C_2   0.848335 0.660087 0.187725 -0.312671
C82   C     C_2   0.151663 0.660087 0.812274 -0.312674
C83   C     C_2   0.348338 0.160087 0.187725 -0.312681
C84   C     C_2   0.651663 0.160087 0.812274 -0.312676
C85   C     C_R   0.060017 0.557844 0.619242 0.842333
C86   C     C_R   0.939983 0.557844 0.380758 0.842335
C87   C     C_R   0.560017 0.057845 0.619241 0.842330
C88   C     C_R   0.439983 0.057845 0.380759 0.842330
C89   C     C_R   0.810487 0.691574 0.118214 0.842764
C90   C     C_R   0.189513 0.691574 0.881786 0.842767
C91   C     C_R   0.310488 0.191574 0.118214 0.842770
C92   C     C_R   0.689512 0.191574 0.881786 0.842768
C93   C     C_R   0.560063 0.942137 0.619279 0.844287
C94   C     C_R   0.439937 0.942137 0.380721 0.844286
C95   C     C_R   0.060063 0.442137 0.619279 0.844287
C96   C     C_R   0.939937 0.442137 0.380721 0.844287
C97   C     C_R   0.835735 0.750251 0.000121 0.802789
C98   C     C_R   0.164265 0.750251 0.999879 0.802789
C99   C     C_R   0.335734 0.250251 0.000121 0.802791
C100  C     C_R   0.664265 0.250251 0.999879 0.802789
C101  C     C_R   0.406289 0.788489 0.998318 -0.235252
C102  C     C_R   0.593711 0.788489 0.001682 -0.235252
C103  C     C_R   0.906289 0.288489 0.998318 -0.235251
C104  C     C_R   0.093711 0.288489 0.001682 -0.235251
C105  C     C_R   0.384674 0.749677 0.001255 -0.055947
C106  C     C_R   0.615326 0.749677 0.998745 -0.055946
C107  C     C_R   0.884674 0.249677 0.001255 -0.055947
C108  C     C_R   0.115326 0.249677 0.998745 -0.055947
C109  C     C_R   0.409150 0.710822 0.004052 -0.234340
C110  C     C_R   0.590850 0.710822 0.995948 -0.234341
C111  C     C_R   0.909150 0.210822 0.004052 -0.234340
C112  C     C_R   0.090850 0.210822 0.995948 -0.234340
C113  C     C_R   0.454478 0.710495 0.002083 0.108067
C114  C     C_R   0.545522 0.710495 0.997917 0.108067
C115  C     C_R   0.954478 0.210495 0.002083 0.108067
C116  C     C_R   0.045522 0.210495 0.997917 0.108067
C117  C     C_R   0.476892 0.749631 0.000368 0.062183
C118  C     C_R   0.523107 0.749631 0.999632 0.062183
C119  C     C_R   0.976893 0.249631 0.000368 0.062183
C120  C     C_R   0.023107 0.249631 0.999632 0.062183
Cu1   Cu    Cu3+1 0.719490 0.719480 0.938970 0.980497
Cu2   Cu    Cu3+1 0.280510 0.719480 0.061030 0.980496
Cu3   Cu    Cu3+1 0.219490 0.219480 0.938970 0.980495
Cu4   Cu    Cu3+1 0.780510 0.219480 0.061030 0.980496
Cu5   Cu    Cu3+1 0.780480 0.780500 0.060980 0.965514
Cu6   Cu    Cu3+1 0.219520 0.780500 0.939020 0.965513
Cu7   Cu    Cu3+1 0.280480 0.280500 0.060980 0.965512
Cu8   Cu    Cu3+1 0.719520 0.280500 0.939020 0.965513
Cu9   Cu    Cu3+1 0.455530 0.999980 0.499990 0.972765
Cu10  Cu    Cu3+1 0.544470 0.999980 0.500010 0.972765
Cu11  Cu    Cu3+1 0.955530 0.499980 0.499990 0.972764
Cu12  Cu    Cu3+1 0.044470 0.499980 0.500010 0.972763
H1    H     H_    0.387372 0.818404 0.996807 0.143350
H2    H     H_    0.612628 0.818404 0.003193 0.143350
H3    H     H_    0.887372 0.318404 0.996807 0.143350
H4    H     H_    0.112628 0.318404 0.003193 0.143350
H5    H     H_    0.040010 0.753391 0.860305 0.146252
H6    H     H_    0.959990 0.753391 0.139695 0.146252
H7    H     H_    0.540010 0.253391 0.860305 0.146252
H8    H     H_    0.459990 0.253391 0.139695 0.146252
H9    H     H_    0.848121 0.614378 0.116191 0.166507
H10   H     H_    0.151893 0.614373 0.883819 0.166510
H11   H     H_    0.348092 0.114368 0.116173 0.166517
H12   H     H_    0.651897 0.114371 0.883822 0.166512
H13   H     H_    0.868929 0.669940 0.251402 0.157409
H14   H     H_    0.131061 0.669941 0.748593 0.157411
H15   H     H_    0.368947 0.169943 0.251409 0.157414
H16   H     H_    0.631058 0.169942 0.748592 0.157412
H17   H     H_    0.541223 0.857734 0.001218 0.147052
H18   H     H_    0.458777 0.857734 0.998782 0.147052
H19   H     H_    0.041223 0.357734 0.001218 0.147052
H20   H     H_    0.958777 0.357734 0.998782 0.147052
H21   H     H_    0.567434 0.929960 0.748563 0.163262
H22   H     H_    0.432560 0.929963 0.251432 0.163259
H23   H     H_    0.067437 0.429961 0.748566 0.163261
H24   H     H_    0.932560 0.429963 0.251432 0.163260
H25   H     H_    0.631171 0.830065 0.748599 0.162757
H26   H     H_    0.368829 0.830065 0.251401 0.162757
H27   H     H_    0.131170 0.330065 0.748598 0.162757
H28   H     H_    0.868829 0.330065 0.251401 0.162757
H29   H     H_    0.182609 0.748677 0.139032 0.199023
H30   H     H_    0.817391 0.748677 0.860968 0.199023
H31   H     H_    0.682609 0.248677 0.139032 0.199023
H32   H     H_    0.317391 0.248677 0.860968 0.199022
O1    O     O_R   0.679710 0.768740 0.859430 -0.579219
O2    O     O_R   0.320290 0.768740 0.140570 -0.579219
O3    O     O_R   0.179710 0.268740 0.859430 -0.579220
O4    O     O_R   0.820290 0.268740 0.140570 -0.579219
O5    O     O_R   0.082020 0.544510 0.588970 -0.584093
O6    O     O_R   0.917980 0.544510 0.411030 -0.584093
O7    O     O_R   0.582020 0.044510 0.588970 -0.584093
O8    O     O_R   0.417980 0.044510 0.411030 -0.584091
O9    O     O_R   0.506970 0.955460 0.589020 -0.581261
O10   O     O_R   0.493030 0.955460 0.410980 -0.581260
O11   O     O_R   0.006970 0.455460 0.589020 -0.581261
O12   O     O_R   0.993030 0.455460 0.410980 -0.581260
O13   O     O_R   0.582050 0.955480 0.588990 -0.581275
O14   O     O_R   0.417950 0.955480 0.411010 -0.581275
O15   O     O_R   0.082050 0.455480 0.588990 -0.581276
O16   O     O_R   0.917950 0.455480 0.411010 -0.581276
O17   O     O_R   0.731220 0.820270 0.962460 -0.581507
O18   O     O_R   0.268780 0.820270 0.037540 -0.581507
O19   O     O_R   0.231220 0.320270 0.962460 -0.581508
O20   O     O_R   0.768780 0.320270 0.037540 -0.581507
O21   O     O_R   0.659370 0.724200 0.948480 -0.583031
O22   O     O_R   0.340630 0.724200 0.051520 -0.583031
O23   O     O_R   0.159370 0.224200 0.948480 -0.583031
O24   O     O_R   0.840630 0.224200 0.051520 -0.583031
O25   O     O_R   0.710880 0.775730 0.051510 -0.588289
O26   O     O_R   0.289120 0.775730 0.948490 -0.588289
O27   O     O_R   0.210880 0.275730 0.051510 -0.588289
O28   O     O_R   0.789120 0.275730 0.948490 -0.588289
O29   O     O_R   0.768760 0.679710 0.037490 -0.580417
O30   O     O_R   0.231240 0.679710 0.962510 -0.580419
O31   O     O_R   0.268760 0.179710 0.037490 -0.580421
O32   O     O_R   0.731240 0.179710 0.962510 -0.580419
O33   O     O_R   0.820270 0.731240 0.140520 -0.585862
O34   O     O_R   0.179730 0.731240 0.859480 -0.585863
O35   O     O_R   0.320270 0.231240 0.140520 -0.585864
O36   O     O_R   0.679730 0.231240 0.859480 -0.585863
O37   O     O_R   0.789100 0.724240 0.948440 -0.581743
O38   O     O_R   0.210900 0.724240 0.051560 -0.581743
O39   O     O_R   0.289100 0.224240 0.948440 -0.581743
O40   O     O_R   0.710900 0.224240 0.051560 -0.581742
O41   O     O_R   0.840600 0.775770 0.051470 -0.582184
O42   O     O_R   0.159400 0.775770 0.948530 -0.582184
O43   O     O_R   0.340600 0.275770 0.051470 -0.582185
O44   O     O_R   0.659400 0.275770 0.948530 -0.582184
O45   O     O_R   0.006940 0.544490 0.589000 -0.582273
O46   O     O_R   0.993060 0.544490 0.411000 -0.582276
O47   O     O_R   0.506940 0.044490 0.589000 -0.582273
O48   O     O_R   0.493060 0.044490 0.411000 -0.582272
H33   H     H_    0.929820 0.752553 0.780673 0.181665
H34   H     H_    0.070180 0.752552 0.219327 0.181665
H35   H     H_    0.429820 0.252553 0.780673 0.181665
H36   H     H_    0.570180 0.252552 0.219327 0.181665
Cl1   Cl    Cl    0.817605 0.750484 0.738286 -0.617324
Cl2   Cl    Cl    0.182395 0.750483 0.261713 -0.617324
Cl3   Cl    Cl    0.317605 0.250484 0.738286 -0.617324
Cl4   Cl    Cl    0.682395 0.250484 0.261713 -0.617323
H37   H     H_    0.932444 0.569947 0.251303 0.164156
H38   H     H_    0.067567 0.569941 0.748709 0.164151
H39   H     H_    0.432417 0.069933 0.251277 0.164147
H40   H     H_    0.567571 0.069939 0.748711 0.164151
H41   H     H_    0.869167 0.607536 0.304078 0.157033
H42   H     H_    0.130827 0.607540 0.695915 0.157031
H43   H     H_    0.369181 0.107546 0.304097 0.157029
H44   H     H_    0.630826 0.107541 0.695912 0.157031
H45   H     H_    0.391749 0.680940 0.005613 0.147583
H46   H     H_    0.608251 0.680940 0.994387 0.147584
H47   H     H_    0.891749 0.180940 0.005613 0.147584
H48   H     H_    0.108251 0.180940 0.994387 0.147584
H49   H     H_    0.460609 0.641543 0.002378 0.150058
H50   H     H_    0.539391 0.641543 0.997622 0.150058
H51   H     H_    0.960609 0.141543 0.002378 0.150058
H52   H     H_    0.039391 0.141543 0.997622 0.150058
H53   H     H_    0.630978 0.892514 0.696087 0.162737
H54   H     H_    0.369026 0.892511 0.303918 0.162734
H55   H     H_    0.130977 0.392513 0.696086 0.162735
H56   H     H_    0.869026 0.392511 0.303918 0.162734
H57   H     H_    0.651715 0.885529 0.883702 0.161906
H58   H     H_    0.348282 0.885530 0.116297 0.161908
H59   H     H_    0.151718 0.385530 0.883704 0.161907
H60   H     H_    0.848283 0.385530 0.116297 0.161908

loop_
_geom_bond_atom_site_label_1
_geom_bond_atom_site_label_2
_ccdc_geom_bond_type
C73   H41   S    
C55   C56   A    
Cu11  O6    S    
C20   H24   S    
C93   O9    A    
Cu2   O2    S    
C55   C59   A    
C42   H6    S    
C111  H47   S    
C5    C117  A    
Cu9   O8    S    
C69   C77   S    
C18   C26   S    
C104  C108  A    
C57   C66   A    
C72   C76   D    
C17   H21   S    
C65   Cl1   S    
C40   C99   S    
C15   H19   S    
C100  O44   A    
C3    O3    A    
Cu3   O3    S    
C12   H52   S    
C104  H4    S    
C53   C54   A    
Cu10  O10   S    
C85   O5    A    
Cu1   Cu5   S    
C6    C13   A    
C50   C54   A    
C21   C93   S    
Cu4   O40   S    
C37   C41   A    
C88   O8    A    
C64   C68   A    
C70   C78   S    
C68   Cl4   S    
Cu2   O30   S    
C38   C42   A    
C24   C96   S    
C94   O14   A    
C35   C39   A    
C116  C120  A    
Cu2   O22   S    
C48   C107  S    
C76   H44   S    
C107  C111  A    
C97   O41   A    
C15   C16   A    
C72   H40   S    
C46   C105  S    
Cu7   O19   S    
C35   C59   A    
Cu12  O12   S    
Cu1   O29   S    
Cu6   O26   S    
C95   O11   A    
Cu7   O43   S    
C110  H46   S    
C70   H38   S    
C43   C51   A    
Cu4   O4    S    
C52   C56   A    
C109  H45   S    
C79   H11   S    
C20   C24   D    
C60   C67   A    
C23   C95   S    
C80   H12   S    
Cu8   O20   S    
C45   O21   A    
C70   C74   D    
C33   C57   A    
C84   C92   S    
C43   H7    S    
C14   H18   S    
C77   C81   D    
Cu9   O47   S    
C19   C27   S    
C9    C10   A    
C2    O2    A    
C41   H5    S    
C18   H22   S    
C109  C113  A    
Cu4   Cu8   S    
C81   C89   S    
C91   O31   A    
Cu6   O34   S    
Cu5   O33   S    
C44   H8    S    
C86   O6    A    
C13   C14   A    
C11   H51   S    
C22   C94   S    
Cu3   O31   S    
C61   H33   S    
C46   O26   A    
C38   C97   S    
C28   C32   D    
C41   C49   A    
C37   C98   S    
C82   H14   S    
C98   O38   A    
C5    C101  A    
C84   H16   S    
C25   C29   D    
C73   C86   S    
C63   C67   A    
C10   H50   S    
C101  C105  A    
C71   H39   S    
C62   H34   S    
C9    H49   S    
C80   C84   D    
C103  H3    S    
C7    C119  A    
C36   C40   A    
C51   C63   A    
C10   C114  A    
C52   C64   A    
Cu1   O1    S    
Cu4   O24   S    
C62   C66   A    
C112  H48   S    
C34   C38   A    
C29   H25   S    
C20   C28   S    
C34   H30   S    
C27   C31   D    
C1    O17   A    
C33   C37   A    
C71   C79   S    
C108  C112  A    
C48   O28   A    
C99   O43   A    
Cu8   O28   S    
Cu1   O21   S    
C35   H31   S    
Cu2   Cu6   S    
C19   C23   D    
Cu8   O36   S    
Cu11  O45   S    
Cu10  O13   S    
C61   C65   A    
C59   C68   A    
C23   H55   S    
C2    O18   A    
C78   C82   D    
C58   C65   A    
Cu3   Cu7   S    
C90   O30   A    
C1    O1    A    
Cu10  O7    S    
Cu11  O16   S    
C87   O7    A    
C101  H1    S    
Cu4   O32   S    
C1    C29   S    
Cu12  O46   S    
C16   H20   S    
Cu5   O17   S    
C114  C118  A    
C96   O16   A    
C119  C120  A    
C69   C73   D    
C8    C104  A    
C76   C87   S    
C5    C14   A    
C4    C32   S    
C94   O10   A    
C83   H15   S    
C89   O29   A    
C111  C115  A    
C45   O25   A    
C7    C16   A    
C42   C50   A    
C24   H56   S    
C26   C30   D    
C8    C15   A    
C115  C119  A    
Cu5   O25   S    
C19   H23   S    
C50   C62   A    
C113  C117  A    
Cu6   O18   S    
Cu12  O5    S    
C47   O23   A    
Cu11  Cu12  S    
C28   H60   S    
C22   H54   S    
C112  C116  A    
C11   C115  A    
C45   C106  S    
C8    C120  A    
C34   C58   A    
Cu9   Cu10  S    
C106  C110  A    
C95   O15   A    
C91   O35   A    
C30   H26   S    
C110  C114  A    
C93   O13   A    
C96   O12   A    
C99   O39   A    
C21   H53   S    
C18   C22   D    
C87   O47   A    
C64   H36   S    
C86   O46   A    
C97   O37   A    
C92   O32   A    
C78   H10   S    
Cu7   O35   S    
C39   C43   A    
C11   C12   A    
C26   H58   S    
C47   O27   A    
C48   O24   A    
C90   O34   A    
C25   H57   S    
Cu9   O9    S    
C89   O33   A    
Cu9   O14   S    
C81   H13   S    
C82   C90   S    
Cu3   O39   S    
C2    C30   S    
C17   C25   S    
Cu2   O38   S    
C67   Cl3   S    
C32   H28   S    
Cu1   O37   S    
C66   Cl2   S    
C117  C118  A    
C56   C60   A    
C3    C31   S    
C71   C75   D    
C100  O40   A    
C49   C61   A    
C44   C52   A    
C39   C100  S    
C105  C109  A    
Cu6   O42   S    
C49   C53   A    
C83   C91   S    
C7    C103  A    
Cu5   O41   S    
Cu11  O11   S    
C53   C57   A    
C27   H59   S    
C102  C106  A    
C51   C55   A    
C6    C102  A    
C74   C85   S    
Cu3   O23   S    
C77   H9    S    
C9    C113  A    
C4    O20   A    
Cu12  O15   S    
C13   H17   S    
C102  H2    S    
C79   C83   D    
C4    O4    A    
C75   C88   S    
C40   C44   A    
C33   H29   S    
C85   O45   A    
C46   O22   A    
C72   C80   S    
C47   C108  S    
C88   O48   A    
C54   C58   A    
C36   H32   S    
C36   C60   A    
C98   O42   A    
Cu7   O27   S    
C103  C107  A    
Cu8   O44   S    
C69   H37   S    
C63   H35   S    
Cu10  O48   S    
C92   O36   A    
C3    O19   A    
C75   H43   S    
C6    C118  A    
C31   H27   S    
C74   H42   S    
C12   C116  A    
C17   C21   D    
