data_mof_unit_28691.cif
_audit_creation_date              2012-10-26T18:57:59-0400
_audit_creation_method            fapswitch 2.2
_symmetry_space_group_name_H-M    P1
_symmetry_Int_Tables_number       1
_space_group_crystal_system       triclinic
_cell_length_a                    15.115296
_cell_length_b                    13.909031
_cell_length_c                    15.963949
_cell_angle_alpha                 89.883632
_cell_angle_beta                  90.543244
_cell_angle_gamma                 89.936602
_cell_volume                      3356.086694

loop_
_atom_site_label
_atom_site_type_symbol
_atom_type_description
_atom_site_fract_x
_atom_site_fract_y
_atom_site_fract_z
_atom_type_partial_charge
C1    C     C_R   0.330055 0.500023 0.500021 0.537609
C2    C     C_R   0.438567 0.790831 0.453227 0.372093
C3    C     C_R   0.451374 0.209853 0.441144 0.378185
C4    C     C_R   0.561464 0.790232 0.546857 0.384446
C5    C     C_R   0.500473 0.054746 0.499606 -0.048950
C6    C     C_R   0.500523 0.945381 0.499540 -0.050277
C7    C     C_R   0.499252 0.500101 0.341326 0.529739
C8    C     C_R   0.500226 0.499900 0.658710 0.533234
C9    C     C_R   0.503322 0.587272 0.955787 0.218028
C10   C     C_R   0.484541 0.413209 0.044297 0.220357
C11   C     C_R   0.505506 0.587292 0.043799 0.215822
C12   C     C_R   0.670001 0.499940 0.499830 0.540911
C13   C     C_R   0.483850 0.413054 0.956337 0.220806
C14   C     C_R   0.495822 0.499784 0.912591 -0.045925
C15   C     C_R   0.494092 0.500540 0.087532 -0.045844
C16   C     C_1   0.498182 0.499508 0.822876 0.017637
C17   C     C_1   0.494943 0.500682 0.177242 0.011702
C18   C     C_1   0.496890 0.500408 0.252287 -0.022157
C19   C     C_1   0.499451 0.499631 0.747808 -0.016462
C20   C     C_R   0.095285 0.576741 0.462146 0.243511
C21   C     C_R   0.904492 0.421646 0.464873 0.245512
C22   C     C_R   0.904784 0.578719 0.533534 0.243307
C23   C     C_R   0.048771 0.500342 0.499960 0.051202
C24   C     C_R   0.095906 0.423756 0.537990 0.245038
C25   C     C_R   0.187326 0.577364 0.464987 -0.138814
C26   C     C_R   0.812430 0.420932 0.467579 -0.155375
C27   C     C_R   0.812756 0.579061 0.530947 -0.136692
C28   C     C_R   0.187954 0.422878 0.535391 -0.154397
C29   C     C_R   0.233756 0.500075 0.500164 -0.092110
C30   C     C_R   0.766409 0.499908 0.499437 -0.091791
C31   C     C_3   0.603874 0.694873 0.096655 0.005611
C32   C     C_3   0.613393 0.786203 0.148145 -0.377718
C33   C     C_3   0.387036 0.307615 0.897723 0.007786
C34   C     C_R   0.951470 0.500314 0.499242 0.052493
C35   C     C_3   0.379539 0.217983 0.843723 -0.368779
C36   C     C_3   0.429804 0.717305 0.904403 0.006040
C37   C     C_3   0.436249 0.800751 0.843107 -0.383732
C38   C     C_3   0.550490 0.282622 0.103749 0.008044
C39   C     C_3   0.534900 0.196878 0.161042 -0.373459
C40   C     C_3   0.036927 0.635598 0.340631 -0.010937
C41   C     C_3   0.006491 0.727680 0.297695 -0.360912
C42   C     C_3   0.968373 0.357299 0.349324 -0.007452
C43   C     C_3   0.010904 0.266971 0.314328 -0.362743
C44   C     C_3   0.964871 0.643759 0.651643 -0.011508
C45   C     C_R   0.545741 0.107723 0.561618 -0.151025
C46   C     C_3   0.993437 0.738496 0.690714 -0.361557
C47   C     C_3   0.033602 0.366149 0.657027 -0.007725
C48   C     C_3   0.991661 0.278000 0.696638 -0.363296
C49   C     C_3   0.685997 0.235510 0.620960 -0.008342
C50   C     C_3   0.711441 0.199485 0.708037 -0.392309
C51   C     C_3   0.383248 0.758736 0.322309 -0.002233
C52   C     C_3   0.320614 0.693105 0.273980 -0.365431
C53   C     C_3   0.315243 0.235692 0.376301 -0.012511
C54   C     C_3   0.292079 0.202785 0.287890 -0.396699
C55   C     C_3   0.625786 0.764570 0.677521 -0.011614
C56   C     C_R   0.435391 0.892418 0.456180 -0.151620
C57   C     C_3   0.719477 0.791865 0.703752 -0.396009
C58   C     C_R   0.455075 0.108198 0.437702 -0.153239
C59   C     C_R   0.565407 0.891888 0.543123 -0.149940
C60   C     C_R   0.548946 0.209397 0.558567 0.380578
Cu1   Cu    Cu3+1 0.500000 0.596430 0.500000 1.034955
Cu2   Cu    Cu3+1 0.500000 0.403570 0.500000 1.037173
H1    H     H_    0.222291 0.637448 0.437667 0.186585
H2    H     H_    0.639768 0.635979 0.130158 0.112730
H3    H     H_    0.584978 0.775239 0.211327 0.146777
H4    H     H_    0.684466 0.804970 0.155125 0.090972
H5    H     H_    0.578290 0.846541 0.116466 0.155744
H6    H     H_    0.354301 0.368047 0.863414 0.109377
H7    H     H_    0.351640 0.294293 0.957502 0.159849
H8    H     H_    0.410324 0.155753 0.876599 0.156249
H9    H     H_    0.308775 0.201691 0.831015 0.084464
H10   H     H_    0.413605 0.229659 0.783180 0.176887
H11   H     H_    0.408793 0.745971 0.966151 0.168684
H12   H     H_    0.777038 0.359204 0.443102 0.142350
H13   H     H_    0.378281 0.666859 0.880128 0.109707
H14   H     H_    0.452106 0.773248 0.779762 0.147926
H15   H     H_    0.372079 0.839588 0.839864 0.092969
H16   H     H_    0.488720 0.851532 0.863760 0.155931
H17   H     H_    0.598520 0.331500 0.135623 0.112591
H18   H     H_    0.579637 0.256204 0.044267 0.163199
H19   H     H_    0.488047 0.145836 0.130860 0.152288
H20   H     H_    0.598461 0.159238 0.173746 0.087020
H21   H     H_    0.506815 0.221498 0.221398 0.191845
H22   H     H_    0.983843 0.581032 0.332771 0.113490
H23   H     H_    0.777740 0.640602 0.555574 0.186499
H24   H     H_    0.098234 0.610424 0.308994 0.101947
H25   H     H_    0.058440 0.783723 0.303783 0.155132
H26   H     H_    0.993744 0.713795 0.230178 0.079063
H27   H     H_    0.944581 0.754065 0.326772 0.171698
H28   H     H_    0.016714 0.416937 0.342868 0.107921
H29   H     H_    0.907720 0.373615 0.311616 0.110281
H30   H     H_    0.964196 0.205605 0.318542 0.157038
H31   H     H_    0.028398 0.278539 0.247662 0.080341
H32   H     H_    0.072044 0.249552 0.350463 0.163932
H33   H     H_    0.019579 0.591155 0.660547 0.115474
H34   H     H_    0.223529 0.362644 0.562725 0.142818
H35   H     H_    0.904920 0.618116 0.685244 0.101918
H36   H     H_    0.939965 0.792775 0.683261 0.153089
H37   H     H_    0.007495 0.727982 0.758519 0.080583
H38   H     H_    0.054194 0.765289 0.659829 0.173417
H39   H     H_    0.985427 0.426316 0.661478 0.108327
H40   H     H_    0.094859 0.384210 0.693103 0.109539
H41   H     H_    0.038331 0.216337 0.694584 0.155942
H42   H     H_    0.975155 0.293269 0.762930 0.080320
H43   H     H_    0.930036 0.258822 0.662115 0.163849
H44   H     H_    0.725057 0.301387 0.608095 0.162332
H45   H     H_    0.578620 0.071500 0.613042 0.102110
H46   H     H_    0.706258 0.181271 0.573359 0.103693
H47   H     H_    0.673647 0.133523 0.723461 0.141602
H48   H     H_    0.783205 0.182517 0.710427 0.091387
H49   H     H_    0.696983 0.255622 0.755384 0.171782
H50   H     H_    0.451940 0.744135 0.301013 0.149160
H51   H     H_    0.365291 0.834297 0.306775 0.102950
H52   H     H_    0.250984 0.710534 0.289635 0.134253
H53   H     H_    0.330026 0.703158 0.205610 0.119663
H54   H     H_    0.333892 0.616777 0.290288 0.161623
H55   H     H_    0.275199 0.300640 0.390168 0.161954
H56   H     H_    0.380989 0.928639 0.425126 0.103679
H57   H     H_    0.294669 0.179417 0.422081 0.106127
H58   H     H_    0.330746 0.137626 0.271739 0.137577
H59   H     H_    0.220470 0.185608 0.283539 0.093685
H60   H     H_    0.307370 0.260680 0.242238 0.179991
H61   H     H_    0.605567 0.700965 0.714870 0.177825
H62   H     H_    0.580108 0.824285 0.694663 0.096091
H63   H     H_    0.742229 0.854737 0.666836 0.146396
H64   H     H_    0.721041 0.810674 0.771317 0.106186
H65   H     H_    0.765063 0.730532 0.693203 0.152387
H66   H     H_    0.422596 0.072360 0.385994 0.099729
H67   H     H_    0.619692 0.927612 0.574583 0.104933
H68   H     H_    0.635058 0.707297 0.034631 0.163463
N1    N     N_R   0.500000 0.258690 0.500000 -0.205819
N2    N     N_R   0.500000 0.741310 0.500000 -0.203131
O1    O     O_R   0.371460 0.581430 0.500010 -0.455569
O2    O     O_3   0.477296 0.327126 0.913308 -0.541061
O3    O     O_3   0.513287 0.672238 0.911707 -0.555029
O4    O     O_3   0.468938 0.328956 0.087878 -0.546418
O5    O     O_3   0.051578 0.654238 0.426479 -0.504934
O6    O     O_3   0.947718 0.341616 0.434213 -0.510381
O7    O     O_3   0.948209 0.658259 0.565430 -0.506176
O8    O     O_3   0.052804 0.345810 0.572627 -0.510070
O9    O     O_3   0.595041 0.260502 0.619185 -0.518412
O10   O     O_3   0.374711 0.740445 0.408975 -0.533727
O11   O     O_3   0.405845 0.261550 0.380273 -0.525388
O12   O     O_R   0.628540 0.418570 0.499990 -0.498434
O13   O     O_3   0.624609 0.738769 0.591632 -0.534257
O14   O     O_R   0.628540 0.581430 0.499990 -0.457147
O15   O     O_R   0.371460 0.418570 0.500010 -0.497522
O16   O     O_R   0.499980 0.581410 0.380310 -0.496268
O17   O     O_R   0.500020 0.418590 0.619690 -0.448583
O18   O     O_R   0.500020 0.581410 0.619690 -0.494508
O19   O     O_R   0.499980 0.418590 0.380310 -0.449962
O20   O     O_3   0.513201 0.672962 0.087094 -0.556781

loop_
_geom_bond_atom_site_label_1
_geom_bond_atom_site_label_2
_ccdc_geom_bond_type
C41   H27   S    
C46   H37   S    
C45   C60   A    
C58   H66   S    
C51   H50   S    
C47   H39   S    
Cu2   O17   S    
C54   H58   S    
C42   O6    S    
C13   O2    S    
C40   H22   S    
C21   C26   A    
Cu1   O1    S    
C4    N2    A    
C53   C54   S    
C24   O8    S    
C51   H51   S    
C5    C58   A    
C3    N1    A    
C28   C29   A    
Cu1   O16   S    
C10   O4    S    
C31   H68   S    
C10   C15   A    
Cu1   O14   S    
C57   H63   S    
C38   C39   S    
C53   H55   S    
C55   O13   S    
C20   C25   A    
C12   O14   A    
C48   H42   S    
C50   H48   S    
C43   H32   S    
C42   H29   S    
C25   H1    S    
C40   H24   S    
C27   H23   S    
Cu1   N2    S    
C26   H12   S    
C48   H43   S    
C11   C15   A    
C33   O2    S    
C59   H67   S    
C47   C48   S    
C35   H8    S    
C49   O9    S    
C47   O8    S    
C2    N2    A    
C23   C24   A    
C38   O4    S    
Cu1   O18   S    
C33   H7    S    
C23   C34   S    
C54   H60   S    
C35   H9    S    
C47   H40   S    
C13   C14   A    
C27   C30   A    
C21   O6    S    
C1    O1    A    
C6    C59   A    
C60   N1    A    
C44   C46   S    
C49   H46   S    
C52   H54   S    
C25   C29   A    
C22   C34   A    
C55   H61   S    
C8    C19   S    
Cu2   O19   S    
C51   C52   S    
C3    O11   S    
C39   H19   S    
Cu2   O12   S    
C57   H64   S    
C21   C34   A    
C48   H41   S    
C5    C45   A    
C22   O7    S    
C50   H47   S    
C12   O12   A    
C53   O11   S    
C20   O5    S    
C8    O18   A    
C9    C14   A    
Cu2   N1    S    
C36   H13   S    
C60   O9    S    
C44   H35   S    
C31   C32   S    
C20   C23   A    
C7    C18   S    
C40   O5    S    
C1    C29   S    
C17   C18   T    
C9    C11   A    
C32   H5    S    
C7    O19   A    
C9    O3    S    
C40   C41   S    
C37   H14   S    
C35   H10   S    
C26   C30   A    
C44   O7    S    
C22   C27   A    
C55   C57   S    
C2    O10   S    
C14   C16   S    
C1    O15   A    
C42   C43   S    
C36   O3    S    
C32   H4    S    
C7    O16   A    
C52   H53   S    
C15   C17   S    
C41   H26   S    
C46   H38   S    
C55   H62   S    
C36   C37   S    
C12   C30   S    
C56   H56   S    
C31   H2    S    
C54   H59   S    
C24   C28   A    
C39   H20   S    
C6    C56   A    
C10   C13   A    
C57   H65   S    
C43   H31   S    
C53   H57   S    
C49   H44   S    
C52   H52   S    
C37   H16   S    
C43   H30   S    
C28   H34   S    
Cu2   O15   S    
C8    O17   A    
C39   H21   S    
C44   H33   S    
C2    C56   A    
C41   H25   S    
C31   O20   S    
C5    C6    S    
C38   H18   S    
C16   C19   T    
C4    O13   S    
C4    C59   A    
C50   H49   S    
C33   C35   S    
C51   O10   S    
C46   H36   S    
Cu1   Cu2   S    
C36   H11   S    
C3    C58   A    
C11   O20   S    
C37   H15   S    
C49   C50   S    
C38   H17   S    
C42   H28   S    
C45   H45   S    
C33   H6    S    
C32   H3    S    
