data_mof_unit_51201.cif
_audit_creation_date              2012-12-10T17:36:44-0500
_audit_creation_method            fapswitch 2.2
_symmetry_space_group_name_H-M    P1
_symmetry_Int_Tables_number       1
_space_group_crystal_system       triclinic
_cell_length_a                    12.033277
_cell_length_b                    12.880381
_cell_length_c                    15.670802
_cell_angle_alpha                 92.352157
_cell_angle_beta                  86.119879
_cell_angle_gamma                 93.334073
_cell_volume                      2417.51920738

loop_
_atom_site_label
_atom_site_type_symbol
_atom_type_description
_atom_site_fract_x
_atom_site_fract_y
_atom_site_fract_z
_atom_type_partial_charge
C1    C     C_R   0.521236 0.700145 0.495681 0.950917
C2    C     C_R   0.545779 0.025375 0.469734 -0.223585
C3    C     C_R   0.953712 0.413578 0.408954 0.441158
C4    C     C_R   0.045426 0.579732 0.594837 0.423746
C5    C     C_R   0.837549 0.418263 0.422043 -0.217502
C6    C     C_R   0.161560 0.580586 0.579024 -0.222764
C7    C     C_R   0.857432 0.539874 0.538533 0.560532
C8    C     C_R   0.141872 0.453014 0.465709 0.556448
C9    C     C_R   0.975484 0.530527 0.534001 -0.264207
C10   C     C_R   0.024442 0.465987 0.468051 -0.211171
C11   C     C_R   0.500299 0.503213 0.662033 0.915543
C12   C     C_R   0.478311 0.300328 0.502140 0.978488
C13   C     C_R   0.500063 0.498486 0.337853 0.834025
C14   C     C_3   0.498050 0.604278 0.037795 0.426263
C15   C     C_3   0.508436 0.416991 0.961729 0.434456
C16   C     C_3   0.591239 0.570783 0.972445 0.433215
C17   C     C_3   0.415411 0.450254 0.026872 0.432028
C18   C     C_1   0.500918 0.513385 0.750939 -0.156271
C19   C     C_1   0.501206 0.495969 0.248647 -0.205219
C20   C     C_3   0.405655 0.554170 0.982716 -0.508466
C21   C     C_3   0.600755 0.466830 0.016669 -0.520084
C22   C     C_3   0.500662 0.520224 0.917360 -0.039162
C23   C     C_R   0.630205 0.965043 0.429743 0.441195
C24   C     C_3   0.505821 0.500830 0.082127 -0.032620
C25   C     C_1   0.500755 0.520317 0.826372 0.075922
C26   C     C_1   0.503755 0.495853 0.173070 0.071608
C27   C     C_R   0.466256 0.189954 0.506359 -0.361619
C28   C     C_R   0.531606 0.811109 0.486342 -0.371759
C29   C     C_3   0.756064 0.663127 0.997551 0.102788
C30   C     C_3   0.844714 0.740101 0.959773 -0.848706
C31   C     C_3   0.247842 0.361997 0.002635 0.107490
C32   C     C_3   0.166215 0.275992 0.035667 -0.860078
C33   C     C_3   0.478182 0.780900 0.034653 0.106707
C34   C     C_R   0.390887 0.038999 0.579371 0.423497
C35   C     C_3   0.476573 0.881416 0.088997 -0.865644
C36   C     C_3   0.530708 0.240906 0.964202 0.114373
C37   C     C_3   0.527544 0.139820 0.910746 -0.858423
C38   C     C_3   0.562532 0.203571 0.323139 0.097998
C39   C     C_3   0.592011 0.127627 0.248760 -0.282176
C40   C     C_3   0.546312 0.160812 0.166508 -1.039649
C41   C     C_3   0.266193 0.827902 0.488152 0.153826
C42   C     C_3   0.152757 0.858107 0.528269 -0.305922
C43   C     C_3   0.064046 0.846946 0.462900 -1.055017
C44   C     C_3   0.215552 0.196689 0.607871 0.170936
C45   C     C_R   0.622114 0.857185 0.437350 0.253732
C46   C     C_3   0.153583 0.283828 0.655007 -0.796014
C47   C     C_3   0.667690 0.767268 0.313187 0.183930
C48   C     C_3   0.751533 0.695192 0.269340 -0.839378
C49   C     C_3   0.818141 0.011324 0.425893 0.138320
C50   C     C_3   0.865852 0.123346 0.437048 -0.291288
C51   C     C_3   0.975643 0.128134 0.480688 -1.005660
C52   C     C_3   0.387027 0.995996 0.720598 0.151600
C53   C     C_3   0.410972 0.884423 0.740965 -0.297362
C54   C     C_3   0.463216 0.879756 0.826515 -1.044781
C55   C     C_3   0.226628 0.344786 0.358751 0.258702
C56   C     C_R   0.390767 0.145355 0.568242 0.279331
C57   C     C_3   0.203413 0.234340 0.322341 -0.878603
C58   C     C_3   0.821246 0.708407 0.576498 0.154806
C59   C     C_3   0.751190 0.776207 0.638341 -0.785856
C60   C     C_3   0.965326 0.393869 0.261016 0.038526
C61   C     C_3   0.898269 0.307650 0.213655 -0.332083
C62   C     C_3   0.855454 0.346698 0.132016 -0.992607
C63   C     C_3   0.013451 0.568121 0.740593 0.062348
C64   C     C_3   0.902013 0.510494 0.766219 -0.251583
C65   C     C_3   0.908756 0.450684 0.847651 -0.981527
C66   C     C_R   0.445740 0.871325 0.522626 0.411034
C67   C     C_R   0.542169 0.130938 0.455693 0.434344
C68   C     C_R   0.461111 0.978449 0.524663 -0.250428
H1    H     H_    0.678126 0.431009 0.032102 0.171519
H2    H     H_    0.286101 0.334892 0.939482 0.173990
H3    H     H_    0.200630 0.432211 0.994180 0.142421
H4    H     H_    0.127417 0.299866 0.099180 0.262137
H5    H     H_    0.099679 0.260106 0.990344 0.213539
H6    H     H_    0.210621 0.203751 0.042031 0.254112
H7    H     H_    0.396629 0.768948 0.005144 0.149937
H8    H     H_    0.546731 0.789525 0.983732 0.181482
H9    H     H_    0.558589 0.897907 0.116740 0.252494
H10   H     H_    0.459186 0.946875 0.048908 0.212483
H11   H     H_    0.410417 0.874741 0.141762 0.261765
H12   H     H_    0.328419 0.589615 0.966113 0.161702
H13   H     H_    0.465419 0.233489 0.017645 0.185440
H14   H     H_    0.614726 0.252571 0.989830 0.147181
H15   H     H_    0.588941 0.145662 0.854715 0.265291
H16   H     H_    0.548571 0.074790 0.949939 0.207336
H17   H     H_    0.442760 0.123291 0.887938 0.252988
H18   H     H_    0.593793 0.283159 0.305441 0.156629
H19   H     H_    0.469866 0.205333 0.333401 0.087184
H20   H     H_    0.684177 0.124971 0.239084 0.244583
H21   H     H_    0.556479 0.048372 0.263754 0.217904
H22   H     H_    0.453724 0.159310 0.173128 0.278663
H23   H     H_    0.215271 0.624265 0.621897 0.188385
H24   H     H_    0.572333 0.106521 0.113059 0.267443
H25   H     H_    0.579680 0.240642 0.151248 0.267148
H26   H     H_    0.256689 0.748785 0.457658 0.165752
H27   H     H_    0.291576 0.882935 0.436025 0.091030
H28   H     H_    0.126989 0.808052 0.582997 0.245797
H29   H     H_    0.158980 0.940287 0.552508 0.233732
H30   H     H_    0.089765 0.893921 0.406305 0.269365
H31   H     H_    0.984586 0.875345 0.492420 0.263542
H32   H     H_    0.050174 0.764026 0.441921 0.267067
H33   H     H_    0.177444 0.121320 0.630616 0.156428
H34   H     H_    0.782694 0.374549 0.380259 0.182117
H35   H     H_    0.204249 0.200998 0.538189 0.179407
H36   H     H_    0.064692 0.278416 0.639513 0.200533
H37   H     H_    0.157957 0.277846 0.725190 0.236208
H38   H     H_    0.191728 0.360498 0.635671 0.277748
H39   H     H_    0.663828 0.836410 0.273264 0.150434
H40   H     H_    0.584432 0.724467 0.317148 0.127604
H41   H     H_    0.761428 0.628024 0.309872 0.266239
H42   H     H_    0.721922 0.665501 0.206895 0.205590
H43   H     H_    0.833770 0.737950 0.258406 0.239557
H44   H     H_    0.879445 0.965583 0.386318 0.170100
H45   H     H_    0.797871 0.593454 0.016257 0.145365
H46   H     H_    0.807186 0.976210 0.490234 0.107179
H47   H     H_    0.880010 0.158554 0.373378 0.245160
H48   H     H_    0.805089 0.169641 0.476712 0.251150
H49   H     H_    0.963470 0.093931 0.544815 0.257371
H50   H     H_    0.006464 0.210562 0.488829 0.310412
H51   H     H_    0.039362 0.085316 0.441145 0.269547
H52   H     H_    0.334097 0.029383 0.774515 0.157360
H53   H     H_    0.466863 0.045079 0.716707 0.119899
H54   H     H_    0.331985 0.835051 0.742701 0.243714
H55   H     H_    0.469661 0.852059 0.690474 0.224949
H56   H     H_    0.715024 0.701193 0.055409 0.167049
H57   H     H_    0.544211 0.925807 0.825264 0.280717
H58   H     H_    0.478470 0.797590 0.838576 0.274250
H59   H     H_    0.406379 0.910284 0.879254 0.265711
H60   H     H_    0.317750 0.350484 0.360003 0.157930
H61   H     H_    0.200148 0.403462 0.315144 0.135864
H62   H     H_    0.113168 0.212267 0.323103 0.304006
H63   H     H_    0.239388 0.227990 0.255275 0.218190
H64   H     H_    0.242996 0.177840 0.360840 0.220807
H65   H     H_    0.797907 0.718351 0.510265 0.188037
H66   H     H_    0.909301 0.737466 0.579319 0.170554
H67   H     H_    0.805500 0.811412 0.941923 0.257559
H68   H     H_    0.780926 0.773678 0.703764 0.263540
H69   H     H_    0.758458 0.857941 0.617816 0.184167
H70   H     H_    0.662182 0.748026 0.640166 0.247741
H71   H     H_    0.042446 0.414475 0.220869 0.161244
H72   H     H_    0.917694 0.466021 0.267957 0.127919
H73   H     H_    0.951796 0.241290 0.197204 0.221843
H74   H     H_    0.825838 0.278940 0.255472 0.221424
H75   H     H_    0.799647 0.411448 0.147916 0.261576
H76   H     H_    0.807406 0.282510 0.099120 0.267195
H77   H     H_    0.926198 0.374419 0.087974 0.269437
H78   H     H_    0.906844 0.761802 0.007597 0.205870
H79   H     H_    0.037012 0.622011 0.794374 0.151889
H80   H     H_    0.080503 0.511477 0.731264 0.119621
H81   H     H_    0.836003 0.567406 0.777019 0.273463
H82   H     H_    0.878477 0.454785 0.713585 0.224686
H83   H     H_    0.971115 0.390360 0.837210 0.256549
H84   H     H_    0.826032 0.411923 0.865435 0.288208
H85   H     H_    0.932753 0.504487 0.901341 0.260475
H86   H     H_    0.888107 0.704759 0.901894 0.260417
N1    N     N_R   0.207800 0.519340 0.515560 -0.171522
N2    N     N_R   0.792200 0.480660 0.484440 -0.160338
O1    O     O_R   0.421700 0.658830 0.504150 -0.600896
O2    O     O_3   0.328689 0.384092 0.062803 -0.619593
O3    O     O_3   0.495583 0.698206 0.087300 -0.620729
O4    O     O_3   0.510263 0.323113 0.912139 -0.604368
O5    O     O_3   0.617217 0.178164 0.396092 -0.603955
O6    O     O_3   0.343636 0.826197 0.552707 -0.592828
O7    O     O_3   0.329313 0.207988 0.625448 -0.584601
O8    O     O_3   0.702233 0.797448 0.395340 -0.617383
O9    O     O_3   0.719291 0.010651 0.381515 -0.616428
O10   O     O_3   0.325747 0.995248 0.646384 -0.627782
O11   O     O_3   0.178224 0.354150 0.443313 -0.616640
O12   O     O_R   0.578300 0.341170 0.495850 -0.596140
O13   O     O_3   0.805460 0.603549 0.600332 -0.571244
O14   O     O_3   0.997362 0.356627 0.339269 -0.647208
O15   O     O_3   0.001836 0.629064 0.668759 -0.633278
O16   O     O_R   0.609310 0.646410 0.494170 -0.578405
O17   O     O_R   0.390690 0.353590 0.505830 -0.578721
O18   O     O_R   0.406210 0.506220 0.628210 -0.622781
O19   O     O_R   0.593790 0.493780 0.371790 -0.627926
O20   O     O_R   0.593830 0.493800 0.618230 -0.569968
O21   O     O_R   0.406170 0.506200 0.381770 -0.654164
O22   O     O_3   0.678713 0.635506 0.935766 -0.611005
Zn1   Zn    Zn3+2 0.374730 0.508290 0.506660 0.950908
Zn2   Zn    Zn3+2 0.625270 0.491710 0.493340 0.982324

loop_
_geom_bond_atom_site_label_1
_geom_bond_atom_site_label_2
_ccdc_geom_bond_type
C48   H42   S    
C29   H56   S    
C11   C18   S    
C34   C56   A    
C16   C21   S    
C23   C45   A    
C4    O15   S    
C47   H40   S    
C41   C42   S    
C57   H64   S    
C66   C68   A    
C43   H30   S    
C55   O11   S    
C40   H25   S    
C51   H50   S    
C32   H4    S    
C53   C54   S    
C58   H66   S    
C54   H58   S    
C56   O7    S    
C11   O20   A    
C38   H18   S    
C42   H28   S    
C37   H17   S    
C36   C37   S    
C45   O8    S    
C43   H31   S    
C2    C68   A    
C53   H54   S    
C32   H6    S    
C38   C39   S    
C33   C35   S    
C59   H69   S    
C6    H23   S    
C46   H37   S    
C59   H68   S    
C17   C20   S    
C66   O6    S    
C15   C17   S    
C50   H47   S    
O1    Zn1   S    
C14   C24   S    
C19   C26   T    
C8    N1    A    
C65   H85   S    
C52   O10   S    
C23   O9    S    
C33   H7    S    
C38   O5    S    
C7    N2    A    
C47   C48   S    
C44   C46   S    
O21   Zn1   S    
C22   C25   S    
C1    C28   S    
C51   H51   S    
C37   H16   S    
C44   O7    S    
C9    C10   A    
C62   H75   S    
C6    N1    A    
O16   Zn2   S    
C31   H3    S    
C48   H41   S    
C41   O6    S    
C18   C25   T    
C39   H20   S    
C63   H79   S    
C44   H35   S    
N1    Zn1   S    
C30   H78   S    
C15   C22   S    
C58   H65   S    
C54   H57   S    
C28   C45   A    
C17   C24   S    
C13   C19   S    
C12   C27   S    
C14   C20   S    
C57   H62   S    
C58   O13   S    
C43   H32   S    
C4    C6    A    
C2    C67   A    
C53   H55   S    
C42   H29   S    
C36   H14   S    
C39   C40   S    
C20   H12   S    
C27   C56   A    
C59   H70   S    
C55   H61   S    
C58   C59   S    
O12   Zn2   S    
C14   O3    S    
C46   H36   S    
C62   H77   S    
C64   H82   S    
C60   C61   S    
C65   H83   S    
C28   C66   A    
C49   O9    S    
C29   C30   S    
C8    O11   S    
C52   H53   S    
C67   O5    S    
C33   H8    S    
C63   O15   S    
C41   H26   S    
C15   C21   S    
C36   H13   S    
C50   C51   S    
C1    O1    A    
C40   H24   S    
C17   O2    S    
C60   H72   S    
C49   H44   S    
C47   O8    S    
C52   H52   S    
C61   H73   S    
C16   O22   S    
C20   C22   S    
C49   C50   S    
C30   H86   S    
C47   H39   S    
C29   O22   S    
C7    O13   S    
C14   C16   S    
C42   C43   S    
C34   C68   A    
C63   H80   S    
C32   H5    S    
C52   C53   S    
C13   O19   A    
C29   H45   S    
C5    H34   S    
C11   O18   A    
C16   C22   S    
C35   H10   S    
C57   H63   S    
C31   C32   S    
C24   C26   S    
C3    C5    A    
C12   O12   A    
C44   H33   S    
C3    O14   S    
O19   Zn2   S    
C5    N2    A    
C54   H59   S    
C64   H81   S    
C1    O16   A    
C38   H19   S    
C60   O14   S    
C64   C65   S    
C31   H2    S    
C65   H84   S    
C55   C57   S    
C15   O4    S    
C3    C10   A    
N2    Zn2   S    
C41   H27   S    
C13   O21   A    
C46   H38   S    
C35   H11   S    
C51   H49   S    
C35   H9    S    
C49   H46   S    
C50   H48   S    
C61   C62   S    
C31   O2    S    
C27   C67   A    
C36   O4    S    
C60   H71   S    
C63   C64   S    
C7    C9    A    
C61   H74   S    
O20   Zn2   S    
C48   H43   S    
C55   H60   S    
C8    C10   A    
C30   H67   S    
C21   C24   S    
C21   H1    S    
C2    C23   A    
O17   Zn1   S    
C37   H15   S    
C40   H22   S    
C4    C9    A    
C34   O10   S    
O18   Zn1   S    
C39   H21   S    
C33   O3    S    
C62   H76   S    
C12   O17   A    
