data_mof_unit_37461.cif
_audit_creation_date              2012-12-10T17:54:29-0500
_audit_creation_method            fapswitch 2.2
_symmetry_space_group_name_H-M    P1
_symmetry_Int_Tables_number       1
_space_group_crystal_system       triclinic
_cell_length_a                    27.732047
_cell_length_b                    10.695666
_cell_length_c                    9.868737
_cell_angle_alpha                 89.472567
_cell_angle_beta                  89.886112
_cell_angle_gamma                 91.808525
_cell_volume                      2925.60317835

loop_
_atom_site_label
_atom_site_type_symbol
_atom_type_description
_atom_site_fract_x
_atom_site_fract_y
_atom_site_fract_z
_atom_type_partial_charge
C1    C     C_R   0.502674 0.259562 0.501639 0.866471
C2    C     C_R   0.972271 0.381034 0.504899 0.075979
C3    C     C_R   0.976465 0.611980 0.496483 0.043345
C4    C     C_R   0.406036 0.498984 0.500137 0.844676
C5    C     C_R   0.949145 0.497543 0.500061 0.070835
C6    C     C_R   0.943403 0.269710 0.498827 -0.218118
C7    C     C_R   0.893490 0.272880 0.495583 -0.139791
C8    C     C_R   0.870470 0.386909 0.497274 -0.022690
C9    C     C_R   0.898103 0.499643 0.498820 -0.055774
C10   C     C_R   0.874575 0.614470 0.499251 -0.020180
C11   C     C_R   0.824132 0.614300 0.498667 0.504269
C12   C     C_R   0.277865 0.498178 0.378355 -0.100003
C13   C     C_R   0.820128 0.391103 0.496503 0.505839
C14   C     C_R   0.722024 0.488552 0.620438 -0.101810
C15   C     C_R   0.671931 0.487619 0.621230 -0.215607
C16   C     C_R   0.493976 0.738368 0.500147 0.884514
C17   C     C_R   0.672077 0.520498 0.377110 -0.204720
C18   C     C_R   0.722186 0.521827 0.376809 -0.113029
C19   C     C_R   0.747029 0.505380 0.498313 0.328900
C20   C     C_R   0.023236 0.379479 0.514734 -0.018619
C21   C     C_R   0.050619 0.493257 0.503044 0.069643
C22   C     C_R   0.027439 0.609377 0.489650 0.063093
C23   C     C_R   0.252912 0.488985 0.501336 0.321266
C24   C     C_R   0.047796 0.267593 0.537385 -0.322391
C25   C     C_R   0.106020 0.715862 0.465523 -0.151340
C26   C     C_R   0.951676 0.725533 0.500816 -0.220486
C27   C     C_R   0.901698 0.726476 0.501719 -0.136279
C28   C     C_R   0.593957 0.500907 0.499848 0.886789
C29   C     C_R   0.056184 0.719235 0.467968 -0.221301
C30   C     C_R   0.511705 0.107922 0.760341 -0.156547
C31   C     C_R   0.497643 0.045770 0.879596 -0.149066
C32   C     C_R   0.471845 0.932597 0.872941 -0.174836
C33   C     C_R   0.464514 0.875911 0.747854 -0.142632
C34   C     C_R   0.101708 0.491037 0.503714 -0.113108
C35   C     C_R   0.482488 0.933519 0.627222 0.106088
C36   C     C_R   0.499407 0.057770 0.631610 0.094930
C37   C     C_R   0.502918 0.125097 0.506567 -0.116348
C38   C     C_R   0.498115 0.063377 0.382711 -0.216645
C39   C     C_R   0.490888 0.936439 0.380767 -0.225218
C40   C     C_R   0.176234 0.378978 0.520660 0.524566
C41   C     C_R   0.485876 0.870393 0.502460 -0.134128
C42   C     C_R   0.435805 0.337815 0.142181 -0.144121
C43   C     C_R   0.404270 0.257883 0.072551 -0.203732
C44   C     C_R   0.404255 0.258136 0.932355 -0.183317
C45   C     C_R   0.125466 0.377122 0.522684 -0.142156
C46   C     C_R   0.435830 0.338184 0.861150 -0.138693
C47   C     C_R   0.468114 0.420884 0.928465 0.136922
C48   C     C_R   0.468115 0.420829 0.073212 0.066381
C49   C     C_R   0.531156 0.575602 0.071716 0.511417
C50   C     C_R   0.531151 0.574002 0.926851 -0.261484
C51   C     C_R   0.179389 0.600021 0.484434 0.500834
C52   C     C_R   0.277869 0.482195 0.623861 -0.112843
C53   C     C_R   0.327977 0.485581 0.623684 -0.222566
C54   C     C_R   0.327972 0.501164 0.377725 -0.220613
C55   C     C_3   0.569593 0.768805 0.099965 0.069417
C56   C     C_R   0.097932 0.265793 0.544233 0.511569
C57   C     C_3   0.598455 0.844185 0.203650 -0.768272
C58   C     C_3   0.118840 0.122462 0.703183 0.112445
C59   C     C_3   0.144082 0.999872 0.726013 -0.732111
C60   C     C_R   0.129122 0.603146 0.484775 0.006556
C61   C     C_R   0.353358 0.495531 0.500532 -0.034032
C62   C     C_R   0.646628 0.502961 0.499386 -0.051445
H1    H     H_    0.346729 0.508421 0.281460 0.165201
H2    H     H_    0.533362 0.192748 0.771784 0.171086
H3    H     H_    0.505985 0.086718 0.977059 0.141771
H4    H     H_    0.258348 0.503423 0.283640 0.135567
H5    H     H_    0.458909 0.886709 0.964856 0.130551
H6    H     H_    0.444425 0.787553 0.746351 0.161393
H7    H     H_    0.490669 0.889829 0.283873 0.169368
H8    H     H_    0.433978 0.330758 0.249600 0.207384
H9    H     H_    0.379908 0.194844 0.127897 0.159301
H10   H     H_    0.379973 0.195104 0.878255 0.160641
H11   H     H_    0.434359 0.330946 0.753839 0.206992
H12   H     H_    0.258360 0.475265 0.718940 0.131982
H13   H     H_    0.557064 0.630368 0.869395 0.161563
H14   H     H_    0.653101 0.473983 0.716742 0.163775
H15   H     H_    0.741487 0.475765 0.714321 0.136009
H16   H     H_    0.872985 0.185057 0.491638 0.193210
H17   H     H_    0.958169 0.177998 0.493232 0.141752
H18   H     H_    0.029183 0.178907 0.553916 0.153146
H19   H     H_    0.346735 0.480454 0.719644 0.163754
H20   H     H_    0.533396 0.810045 0.089618 0.123931
H21   H     H_    0.589296 0.777031 0.002023 0.143381
H22   H     H_    0.635902 0.810554 0.208869 0.254162
H23   H     H_    0.126428 0.802595 0.448020 0.201856
H24   H     H_    0.599608 0.944675 0.174087 0.205488
H25   H     H_    0.581651 0.833740 0.305420 0.264146
H26   H     H_    0.081142 0.110611 0.741456 0.118029
H27   H     H_    0.138203 0.196555 0.762594 0.148471
H28   H     H_    0.181806 0.008049 0.688153 0.284312
H29   H     H_    0.144570 0.976772 0.835921 0.196821
H30   H     H_    0.124618 0.923195 0.671718 0.243518
H31   H     H_    0.969802 0.815840 0.506909 0.138819
H32   H     H_    0.653362 0.533312 0.282004 0.191895
H33   H     H_    0.884393 0.815846 0.504681 0.188443
H34   H     H_    0.741766 0.534804 0.282416 0.138187
H35   H     H_    0.041326 0.809480 0.448694 0.148546
H36   H     H_    0.500594 0.112680 0.286380 0.171298
N1    N     N_R   0.201593 0.489217 0.502007 -0.363314
N2    N     N_R   0.798286 0.503639 0.497502 -0.359418
N3    N     N_R   0.499540 0.498800 0.142780 -0.155216
N4    N     N_R   0.499520 0.498720 0.857170 -0.139632
O1    O     O_R   0.500000 0.316780 0.614690 -0.651452
O2    O     O_R   0.571250 0.499990 0.614680 -0.623711
O3    O     O_R   0.571240 0.499970 0.385350 -0.564907
O4    O     O_2   0.200357 0.272187 0.536038 -0.508118
O5    O     O_3   0.565905 0.642871 0.144088 -0.585040
O6    O     O_3   0.119606 0.152239 0.563441 -0.563894
O7    O     O_2   0.793105 0.283900 0.494736 -0.549141
O8    O     O_2   0.206067 0.706835 0.467270 -0.556127
O9    O     O_2   0.800991 0.723455 0.499704 -0.550727
O10   O     O_R   0.500000 0.316750 0.385360 -0.641597
O11   O     O_R   0.428760 0.500030 0.614650 -0.647078
O12   O     O_R   0.428750 0.500010 0.385320 -0.645713
O13   O     O_R   0.500000 0.683250 0.614640 -0.623178
O14   O     O_R   0.500000 0.683220 0.385310 -0.590199
Zn1   Zn    Zn3+2 0.500000 0.500020 0.653130 0.926007
Zn2   Zn    Zn3+2 0.500000 0.499980 0.346870 0.976010

loop_
_geom_bond_atom_site_label_1
_geom_bond_atom_site_label_2
_ccdc_geom_bond_type
C10   C27   A    
C23   N1    S    
C8    C13   A    
C22   C29   A    
C30   H2    S    
C18   H34   S    
C27   H33   S    
C35   C36   A    
C38   H36   S    
C40   N1    A    
C23   C52   A    
C7    C8    A    
C49   O5    S    
C2    C6    A    
C12   C23   A    
C26   C27   A    
N3    Zn2   S    
C4    O12   A    
C36   C37   A    
C52   H12   S    
C1    O10   A    
C49   N3    A    
C30   C31   A    
C31   C32   A    
C54   H1    S    
C42   H8    S    
C57   H24   S    
C25   C29   A    
C53   H19   S    
C18   C19   A    
C14   H15   S    
C56   O6    S    
C13   O7    S    
C53   C61   A    
C24   H18   S    
C20   C24   A    
C45   C56   A    
C8    C9    A    
O13   Zn1   S    
C25   C60   A    
C9    C10   A    
C1    O1    A    
C1    C37   S    
C26   H31   S    
C15   H14   S    
C47   N4    A    
C21   C22   A    
C34   C60   A    
O1    Zn1   S    
C16   O14   A    
C44   C46   A    
C51   N1    A    
C40   C45   A    
C2    C20   A    
C4    O11   A    
C39   C41   A    
C59   H29   S    
C21   C34   A    
C58   C59   S    
C12   H4    S    
C4    C61   S    
C57   H25   S    
C55   O5    S    
C11   N2    A    
C59   H28   S    
C43   C44   A    
C5    C9    A    
C37   C38   A    
C17   C62   A    
C28   O2    A    
C47   C48   A    
C28   O3    A    
C25   H23   S    
C17   C18   A    
C39   H7    S    
C57   H22   S    
C34   C45   A    
C42   C48   A    
C55   H20   S    
O12   Zn2   S    
N4    Zn1   S    
C7    H16   S    
O11   Zn1   S    
C50   N4    A    
C51   O8    S    
C32   H5    S    
O3    Zn2   S    
C2    C5    A    
C42   C43   A    
C55   H21   S    
C16   O13   A    
C52   C53   A    
C40   O4    S    
O2    Zn1   S    
C31   H3    S    
C46   C47   A    
C43   H9    S    
C14   C19   A    
C3    C26   A    
C3    C5    A    
C58   H26   S    
C19   N2    S    
C6    C7    A    
C51   C60   A    
C54   C61   A    
C29   H35   S    
C24   C56   A    
C30   C36   A    
C32   C33   A    
C13   N2    A    
C55   C57   S    
C50   H13   S    
O10   Zn2   S    
C6    H17   S    
C38   C39   A    
C48   N3    A    
C33   C35   A    
C15   C62   A    
O14   Zn2   S    
C44   H10   S    
C58   O6    S    
C59   H30   S    
C35   C41   A    
C58   H27   S    
C10   C11   A    
C20   C21   A    
C49   C50   A    
C11   O9    S    
C14   C15   A    
C3    C22   A    
C17   H32   S    
C16   C41   S    
C46   H11   S    
C12   C54   A    
C33   H6    S    
C28   C62   S    
