data_mof_unit_38246.cif
_audit_creation_date              2012-12-10T17:53:22-0500
_audit_creation_method            fapswitch 2.2
_symmetry_space_group_name_H-M    P1
_symmetry_Int_Tables_number       1
_space_group_crystal_system       triclinic
_cell_length_a                    23.379246
_cell_length_b                    10.707909
_cell_length_c                    9.943096
_cell_angle_alpha                 89.229565
_cell_angle_beta                  89.001729
_cell_angle_gamma                 93.644066
_cell_volume                      2483.50886085

loop_
_atom_site_label
_atom_site_type_symbol
_atom_type_description
_atom_site_fract_x
_atom_site_fract_y
_atom_site_fract_z
_atom_type_partial_charge
C1    C     C_R   0.503999 0.260534 0.501317 0.890573
C2    C     C_R   0.122768 0.551297 0.390992 0.509681
C3    C     C_R   0.240763 0.601075 0.509153 -0.086933
C4    C     C_R   0.389775 0.499119 0.501242 0.877488
C5    C     C_R   0.300189 0.603562 0.511202 -0.273159
C6    C     C_R   0.327881 0.491788 0.504151 -0.038139
C7    C     C_R   0.296050 0.375494 0.497938 0.123716
C8    C     C_R   0.236618 0.375206 0.488539 -0.123714
C9    C     C_R   0.208835 0.486965 0.495761 0.268667
C10   C     C_R   0.768481 0.494674 0.588335 -0.138636
C11   C     C_R   0.709679 0.507251 0.605880 0.133519
C12   C     C_R   0.965194 0.283878 0.628526 0.157190
C13   C     C_R   0.673305 0.486563 0.493775 -0.076544
C14   C     C_R   0.697206 0.449683 0.370520 -0.252042
C15   C     C_R   0.755429 0.435673 0.356340 -0.105815
C16   C     C_R   0.494267 0.738483 0.500387 0.866402
C17   C     C_R   0.791137 0.458850 0.464823 0.292725
C18   C     C_R   0.523319 0.110744 0.753516 -0.227227
C19   C     C_R   0.509768 0.047376 0.874540 0.649053
C20   C     C_R   0.478110 0.933119 0.873449 -0.269528
C21   C     C_R   0.465581 0.876498 0.751106 -0.254892
C22   C     C_R   0.485051 0.934059 0.627844 0.098398
C23   C     C_R   0.024509 0.301795 0.640268 -0.198995
C24   C     C_R   0.505549 0.059272 0.629033 0.038213
C25   C     C_R   0.506909 0.126817 0.505158 -0.109521
C26   C     C_R   0.501046 0.064602 0.382844 -0.209925
C27   C     C_R   0.493248 0.937008 0.381963 -0.214737
C28   C     C_R   0.610856 0.498572 0.499042 0.857511
C29   C     C_R   0.486995 0.870763 0.503504 -0.109809
C30   C     C_R   0.429927 0.322391 0.149132 -0.176087
C31   C     C_R   0.400071 0.223602 0.086045 0.125267
C32   C     C_R   0.399261 0.222647 0.947335 -0.246236
C33   C     C_R   0.428100 0.317439 0.871824 0.612896
C34   C     C_R   0.056486 0.390294 0.561059 -0.028374
C35   C     C_R   0.465009 0.411113 0.931798 0.026819
C36   C     C_R   0.465199 0.412268 0.076185 0.065076
C37   C     C_R   0.534520 0.583311 0.066746 0.197422
C38   C     C_R   0.532798 0.584248 0.924063 -0.119944
C39   C     C_R   0.882522 0.526670 0.365755 0.507777
C40   C     C_R   0.876280 0.361251 0.529840 0.495368
C41   C     C_R   0.936472 0.362826 0.538245 -0.036358
C42   C     C_R   0.969426 0.450426 0.454280 -0.093627
C43   C     C_R   0.942477 0.524872 0.358588 -0.047203
C44   C     C_3   0.936085 0.179963 0.715749 -0.341705
C45   C     C_R   0.029506 0.462616 0.464731 -0.063738
C46   C     C_3   0.913334 0.230426 0.847968 -0.787698
C47   C     C_3   0.688588 0.538169 0.745630 -0.413444
C48   C     C_3   0.668188 0.418721 0.823178 -0.757588
C49   C     C_3   0.575099 0.680237 0.130216 -0.389375
C50   C     C_3   0.637541 0.668386 0.086949 -0.883432
C51   C     C_3   0.369045 0.118578 0.165823 -0.392837
C52   C     C_3   0.304177 0.119716 0.150248 -0.865721
C53   C     C_3   0.062648 0.756343 0.244484 -0.358827
C54   C     C_3   0.081902 0.840067 0.361165 -0.817468
C55   C     C_3   0.953565 0.637432 0.127509 -0.358777
C56   C     C_R   0.062526 0.550576 0.383247 -0.050665
C57   C     C_3   0.930083 0.523190 0.050169 -0.827737
C58   C     C_3   0.323289 0.250991 0.502909 -0.419482
C59   C     C_3   0.305514 0.177202 0.631149 -0.746116
C60   C     C_R   0.034484 0.630643 0.294055 0.128961
C61   C     C_R   0.976277 0.601013 0.265215 0.135668
C62   C     C_R   0.115624 0.407120 0.576109 0.508406
F1    F     F_    0.525692 0.099026 0.993034 -0.702463
F2    F     F_    0.415449 0.314494 0.742001 -0.661611
H1    H     H_    0.670700 0.429051 0.284479 0.178361
H2    H     H_    0.374603 0.148964 0.896442 0.168195
H3    H     H_    0.558699 0.653444 0.865834 0.158364
H4    H     H_    0.219527 0.687797 0.516142 0.146450
H5    H     H_    0.324680 0.692601 0.518022 0.138530
H6    H     H_    0.211558 0.287433 0.477203 0.151740
H7    H     H_    0.797182 0.511080 0.671640 0.135003
H8    H     H_    0.949804 0.264155 0.910711 0.235971
H9    H     H_    0.885462 0.308936 0.830552 0.282454
H10   H     H_    0.888255 0.154460 0.904078 0.246398
H11   H     H_    0.902442 0.125175 0.660746 0.248104
H12   H     H_    0.772877 0.406591 0.260963 0.146327
H13   H     H_    0.967128 0.109186 0.741522 0.171728
H14   H     H_    0.637086 0.359933 0.764634 0.265072
H15   H     H_    0.705372 0.362853 0.845906 0.252564
H16   H     H_    0.647133 0.442786 0.919196 0.242670
H17   H     H_    0.723725 0.586010 0.803335 0.195910
H18   H     H_    0.654888 0.606281 0.741915 0.214882
H19   H     H_    0.650521 0.572529 0.108630 0.262921
H20   H     H_    0.644204 0.690611 0.978376 0.250872
H21   H     H_    0.665611 0.735411 0.144161 0.268612
H22   H     H_    0.562173 0.775254 0.102748 0.199311
H23   H     H_    0.502902 0.114150 0.286971 0.220904
H24   H     H_    0.574218 0.672526 0.239594 0.277719
H25   H     H_    0.289109 0.212539 0.177621 0.264897
H26   H     H_    0.292018 0.098996 0.045042 0.264512
H27   H     H_    0.282471 0.047028 0.217387 0.252917
H28   H     H_    0.383746 0.027665 0.130602 0.219605
H29   H     H_    0.379651 0.125065 0.273979 0.194973
H30   H     H_    0.044971 0.854080 0.429964 0.246482
H31   H     H_    0.116410 0.799848 0.419527 0.269939
H32   H     H_    0.098559 0.932877 0.320984 0.243870
H33   H     H_    0.098530 0.743364 0.172797 0.253817
H34   H     H_    0.548951 0.197981 0.759127 0.171002
H35   H     H_    0.032048 0.812003 0.189181 0.180023
H36   H     H_    0.963393 0.454112 0.041934 0.249830
H37   H     H_    0.891252 0.477548 0.099770 0.273052
H38   H     H_    0.918449 0.552419 0.947112 0.243469
H39   H     H_    0.921216 0.708297 0.136349 0.250825
H40   H     H_    0.988351 0.680160 0.061340 0.182641
H41   H     H_    0.311102 0.237035 0.720828 0.291918
H42   H     H_    0.259855 0.142170 0.626852 0.241066
H43   H     H_    0.332216 0.095585 0.641786 0.240047
H44   H     H_    0.308934 0.195130 0.415651 0.200910
H45   H     H_    0.464739 0.886527 0.967165 0.154940
H46   H     H_    0.370757 0.262051 0.497032 0.226399
H47   H     H_    0.440382 0.788202 0.754244 0.189179
H48   H     H_    0.492995 0.890425 0.285855 0.178089
H49   H     H_    0.046016 0.244735 0.712067 0.187994
H50   H     H_    0.424173 0.326424 0.255057 0.208609
N1    N     N_R   0.851413 0.446553 0.450523 -0.346632
N2    N     N_R   0.147644 0.483595 0.489027 -0.347341
N3    N     N_R   0.499460 0.498800 0.142780 -0.124163
N4    N     N_R   0.499440 0.498720 0.857170 -0.122497
O1    O     O_R   0.500000 0.316780 0.614690 -0.556898
O2    O     O_R   0.583850 0.500050 0.614640 -0.619088
O3    O     O_R   0.583840 0.500030 0.385310 -0.624721
O4    O     O_2   0.855326 0.612766 0.295285 -0.576972
O5    O     O_2   0.842008 0.278607 0.602040 -0.576333
O6    O     O_2   0.141199 0.346787 0.676550 -0.573364
O7    O     O_2   0.156492 0.613640 0.297827 -0.573251
O8    O     O_R   0.500000 0.316750 0.385360 -0.646781
O9    O     O_R   0.416160 0.499970 0.614690 -0.534015
O10   O     O_R   0.416150 0.499950 0.385360 -0.647425
O11   O     O_R   0.500000 0.683250 0.614640 -0.629897
O12   O     O_R   0.500000 0.683220 0.385310 -0.648143
Zn1   Zn    Zn3+2 0.500000 0.500020 0.653130 0.981988
Zn2   Zn    Zn3+2 0.500000 0.499980 0.346870 0.934798

loop_
_geom_bond_atom_site_label_1
_geom_bond_atom_site_label_2
_ccdc_geom_bond_type
C22   C29   A    
C27   C29   A    
O2    Zn1   S    
C41   C42   A    
C52   H26   S    
C35   C36   A    
C62   O6    S    
C50   H20   S    
C7    C8    A    
C53   C54   S    
C53   H35   S    
C57   H38   S    
C12   C23   A    
C17   N1    S    
C26   C27   A    
C59   H41   S    
C39   O4    S    
C18   C24   A    
C48   H15   S    
C44   H13   S    
C3    H4    S    
C30   C31   A    
C40   N1    A    
C10   C17   A    
C55   H39   S    
C34   C62   A    
C18   C19   A    
C1    O1    A    
C47   H18   S    
C48   H14   S    
N3    Zn2   S    
C5    H5    S    
N4    Zn1   S    
C50   H21   S    
C2    N2    A    
C16   O11   A    
C19   C20   A    
C45   C56   A    
C19   F1    S    
C26   H23   S    
O1    Zn1   S    
C13   C28   S    
C16   O12   A    
C7    C58   S    
C54   H32   S    
C25   C26   A    
C10   H7    S    
C15   H12   S    
C21   C22   A    
C1    C25   S    
C49   H24   S    
C52   H25   S    
O10   Zn2   S    
C21   H47   S    
C53   C60   S    
C44   C46   S    
C50   H19   S    
C59   H42   S    
C4    O10   A    
C51   C52   S    
C1    O8    A    
C4    C6    S    
C28   O2    A    
C28   O3    A    
C8    C9    A    
C39   C43   A    
C53   H33   S    
C16   C29   S    
C57   H36   S    
C55   H40   S    
C59   H43   S    
C56   C60   A    
C60   C61   A    
C42   C45   A    
C44   H11   S    
O12   Zn2   S    
C62   N2    A    
C37   C38   A    
C3    C9    A    
C51   H28   S    
C23   H49   S    
C37   C49   S    
C47   C48   S    
O8    Zn2   S    
C23   C34   A    
C34   C45   A    
C24   C25   A    
C36   N3    A    
C54   H31   S    
C51   H29   S    
C40   C41   A    
C27   H48   S    
C39   N1    A    
C55   C57   S    
C22   C24   A    
C42   C43   A    
C35   N4    A    
O3    Zn2   S    
C38   H3    S    
C46   H10   S    
C43   C61   A    
C12   C41   A    
C32   H2    S    
C30   H50   S    
C15   C17   A    
C40   O5    S    
C4    O9    A    
C58   H46   S    
C9    N2    S    
C46   H8    S    
C49   H22   S    
C31   C32   A    
C31   C51   S    
C3    C5    A    
C6    C7    A    
C57   H37   S    
C8    H6    S    
C11   C47   S    
C30   C36   A    
C32   C33   A    
C48   H16   S    
C58   C59   S    
C12   C44   S    
C2    C56   A    
C11   C13   A    
C5    C6    A    
C33   F2    S    
C55   C61   S    
C33   C35   A    
C14   H1    S    
C58   H44   S    
C47   H17   S    
O9    Zn1   S    
C54   H30   S    
C10   C11   A    
C20   H45   S    
C38   N4    A    
C2    O7    S    
C37   N3    A    
C20   C21   A    
C49   C50   S    
C14   C15   A    
C52   H27   S    
C18   H34   S    
C13   C14   A    
C46   H9    S    
O11   Zn1   S    
