data_mof_unit_53895.cif
_audit_creation_date              2012-10-26T19:41:56-0400
_audit_creation_method            fapswitch 2.2
_symmetry_space_group_name_H-M    P1
_symmetry_Int_Tables_number       1
_space_group_crystal_system       triclinic
_cell_length_a                    10.626834
_cell_length_b                    10.839481
_cell_length_c                    9.666617
_cell_angle_alpha                 88.432315
_cell_angle_beta                  89.111441
_cell_angle_gamma                 94.200379
_cell_volume                      1109.91370974

loop_
_atom_site_label
_atom_site_type_symbol
_atom_type_description
_atom_site_fract_x
_atom_site_fract_y
_atom_site_fract_z
_atom_type_partial_charge
C1    C     C_R   0.507804 0.262539 0.502819 0.582085
C2    C     C_R   0.489444 0.054531 0.633845 -0.047376
C3    C     C_R   0.514494 0.127026 0.509980 -0.008698
C4    C     C_R   0.259703 0.498246 0.500948 0.600373
C5    C     C_R   0.522964 0.067559 0.384443 -0.027448
C6    C     C_R   0.500785 0.940691 0.377767 0.443717
C7    C     C_R   0.469193 0.869442 0.497780 0.055361
C8    C     C_R   0.644075 0.703883 0.122516 0.269284
C9    C     C_R   0.682315 0.806312 0.034176 0.334316
C10   C     C_R   0.689712 0.790758 0.894336 0.349833
C11   C     C_R   0.648874 0.679364 0.841379 -0.088691
C12   C     C_3   0.962053 0.498187 0.367025 -0.162982
C13   C     C_R   0.573693 0.589788 0.919491 -0.000732
C14   C     C_R   0.572773 0.594772 0.068813 0.085343
C15   C     C_R   0.428271 0.415709 0.077592 0.098478
C16   C     C_R   0.486869 0.736029 0.498870 0.614677
C17   C     C_R   0.427064 0.416601 0.930331 0.568964
C18   C     C_R   0.740017 0.498165 0.499278 0.627123
C19   C     C_3   0.037880 0.497063 0.633572 -0.086872
C20   C     C_3   0.949463 0.396877 0.567173 0.374290
C21   C     C_3   0.876659 0.497371 0.497517 -0.027732
C22   C     C_3   0.964424 0.597492 0.561470 0.376585
C23   C     C_3   0.035563 0.397591 0.438603 0.397850
C24   C     C_3   0.051206 0.600147 0.431977 -0.120105
C25   C     C_3   0.122925 0.498020 0.502702 -0.070769
C26   C     C_R   0.505432 0.099922 0.768763 0.451957
C27   C     C_R   0.443905 0.037391 0.881383 0.311589
C28   C     C_R   0.371770 0.927069 0.862863 0.421776
C29   C     C_R   0.370795 0.872485 0.733900 0.219742
C30   C     C_R   0.443094 0.929878 0.621949 -0.136080
Cl1   Cl    Cl    0.255423 0.750552 0.709558 -0.451620
Cl2   Cl    Cl    0.735500 0.716635 0.271848 -0.454119
Cl3   Cl    Cl    0.746503 0.950247 0.094912 -0.253317
Cl4   Cl    Cl    0.448186 0.103248 0.043869 -0.403241
Cu1   Cu    Cu3+1 0.499990 0.499990 0.640660 1.179038
Cu2   Cu    Cu3+1 0.500010 0.500010 0.359340 1.116238
F1    F     F_    0.894459 0.291774 0.634408 -0.493183
F2    F     F_    0.302840 0.872612 0.970387 -0.496773
F3    F     F_    0.505003 0.888592 0.252466 -0.552019
F4    F     F_    0.745201 0.881252 0.809041 -0.500591
F5    F     F_    0.349596 0.332109 0.866334 -0.571598
F6    F     F_    0.924495 0.701259 0.624156 -0.509794
F7    F     F_    0.075275 0.293389 0.376623 -0.523622
F8    F     F_    0.591085 0.195276 0.794802 -0.505519
H1    H     H_    0.368525 0.346858 0.135444 0.190100
H2    H     H_    0.675104 0.670543 0.736311 0.242635
H3    H     H_    0.070004 0.496921 0.742313 0.213657
H4    H     H_    0.095525 0.684619 0.378297 0.216177
H5    H     H_    0.929436 0.497401 0.258474 0.203867
H6    H     H_    0.547878 0.120293 0.290656 0.224516
N1    N     N_R   0.501210 0.501210 0.147910 -0.278103
N2    N     N_R   0.501250 0.501290 0.852040 -0.217209
O1    O     O_R   0.499990 0.319640 0.618810 -0.395246
O2    O     O_R   0.500000 0.319660 0.381240 -0.526219
O3    O     O_R   0.316850 0.499960 0.618770 -0.442823
O4    O     O_R   0.316860 0.499980 0.381190 -0.495746
O5    O     O_R   0.500000 0.680340 0.618760 -0.538176
O6    O     O_R   0.500010 0.680360 0.381190 -0.417629
O7    O     O_R   0.683140 0.500020 0.618810 -0.494317
O8    O     O_R   0.683150 0.500040 0.381230 -0.471221

loop_
_geom_bond_atom_site_label_1
_geom_bond_atom_site_label_2
_ccdc_geom_bond_type
C1    C3    S    
C1    O2    A    
C24   C25   S    
C6    C7    A    
Cu2   O4    S    
C15   N1    A    
Cu1   O1    S    
C13   N2    A    
C9    C10   A    
C12   C24   S    
C14   N1    A    
C20   C23   S    
C28   F2    S    
Cu1   O5    S    
C3    C5    A    
C12   H5    S    
C16   O6    A    
C26   F8    S    
C2    C26   A    
C7    C30   A    
C22   F6    S    
C21   C22   S    
C4    O4    A    
C9    Cl3   S    
C20   F1    S    
C11   C13   A    
C12   C23   S    
C26   C27   A    
C29   C30   A    
Cu2   N1    S    
C29   Cl1   S    
C17   N2    A    
C10   F4    S    
C7    C16   S    
C2    C3    A    
Cu2   O6    S    
C16   O5    A    
C23   C25   S    
C27   Cl4   S    
C5    C6    A    
C19   C25   S    
C22   C24   S    
C5    H6    S    
C17   F5    S    
Cu2   O2    S    
C10   C11   A    
C15   H1    S    
Cu1   O3    S    
C18   C21   S    
C4    C25   S    
C18   O7    A    
Cu1   N2    S    
C19   C22   S    
C2    C30   A    
C20   C21   S    
Cu1   O7    S    
C19   H3    S    
C18   O8    A    
C4    O3    A    
C15   C17   A    
C8    Cl2   S    
C1    O1    A    
C6    F3    S    
C28   C29   A    
C11   H2    S    
C8    C14   A    
Cu2   O8    S    
C13   C14   A    
C23   F7    S    
C12   C21   S    
C19   C20   S    
C8    C9    A    
C27   C28   A    
Cu1   Cu2   S    
C24   H4    S    
