data_mof_unit_55795.cif
_audit_creation_date              2012-12-10T17:55:06-0500
_audit_creation_method            fapswitch 2.2
_symmetry_space_group_name_H-M    P1
_symmetry_Int_Tables_number       1
_space_group_crystal_system       triclinic
_cell_length_a                    8.719695
_cell_length_b                    10.868818
_cell_length_c                    9.52726
_cell_angle_alpha                 90.129916
_cell_angle_beta                  97.919738
_cell_angle_gamma                 90.461962
_cell_volume                      894.278578169

loop_
_atom_site_label
_atom_site_type_symbol
_atom_type_description
_atom_site_fract_x
_atom_site_fract_y
_atom_site_fract_z
_atom_type_partial_charge
C1    C     C_R   0.488753 0.262158 0.498222 0.893200
C2    C     C_R   0.501437 0.737817 0.500054 0.878077
C3    C     C_R   0.203766 0.500257 0.463738 0.845818
C4    C     C_R   0.796251 0.500479 0.536274 0.886437
C5    C     C_2   0.037914 0.500806 0.443776 -0.348878
C6    C     C_2   0.962148 0.501117 0.556280 -0.363741
C7    C     C_R   0.507678 0.062805 0.373962 0.396547
C8    C     C_R   0.417701 0.932932 0.601330 0.399333
C9    C     C_R   0.539358 0.938349 0.385162 0.152824
C10   C     C_R   0.422264 0.061282 0.606830 0.178111
C11   C     C_R   0.489937 0.871301 0.497313 -0.353066
C12   C     C_R   0.472291 0.127731 0.493892 -0.350778
C13   C     C_R   0.378409 0.451061 0.058833 -0.029100
C14   C     C_R   0.620389 0.550985 0.940980 0.016496
C15   C     C_R   0.378734 0.450584 0.910321 0.015838
C16   C     C_R   0.620594 0.550554 0.089624 0.038217
Cu1   Cu    Cu3+1 0.500000 0.500020 0.640660 0.981230
Cu2   Cu    Cu3+1 0.500000 0.499980 0.359340 0.977811
H1    H     H_    0.977941 0.500562 0.335872 0.171556
H2    H     H_    0.022126 0.501674 0.664190 0.163957
H3    H     H_    0.280705 0.411749 0.101933 0.109472
H4    H     H_    0.716672 0.592498 0.897648 0.122416
H5    H     H_    0.281425 0.410564 0.842553 0.148136
H6    H     H_    0.717310 0.591418 0.157428 0.142928
N1    N     N_R   0.500040 0.500030 0.852080 -0.162574
N2    N     N_R   0.499960 0.499970 0.147920 -0.159588
O1    O     O_R   0.499990 0.319660 0.618740 -0.530883
O2    O     O_R   0.500010 0.680340 0.381260 -0.546954
O3    O     O_R   0.499990 0.319630 0.381170 -0.560125
O4    O     O_R   0.500010 0.680370 0.618830 -0.554786
O5    O     O_R   0.274840 0.500010 0.591370 -0.596119
O6    O     O_R   0.725160 0.499990 0.408630 -0.579541
O7    O     O_R   0.274830 0.499980 0.353800 -0.606296
O8    O     O_R   0.725170 0.500020 0.646200 -0.601973
O9    O     O_3   0.510354 0.118334 0.243551 -0.534732
C17   C     C_3   0.355677 0.135552 0.177248 0.128574
H7    H     H_    0.360541 0.197297 0.085596 0.191057
H8    H     H_    0.283476 0.182892 0.248450 0.109422
C18   C     C_3   0.276240 0.014834 0.120689 -0.348849
H9    H     H_    0.341147 0.973937 0.039783 0.293334
H10   H     H_    0.273801 0.947581 0.207799 0.211123
C19   C     C_3   0.108933 0.037190 0.055464 -0.854980
H11   H     H_    0.041580 0.074550 0.136569 0.266206
H12   H     H_    0.054581 0.948914 0.015293 0.266421
H13   H     H_    0.104265 0.103216 0.966299 0.275023
O10   O     O_3   0.351605 0.869398 0.704479 -0.549723
C20   C     C_3   0.207860 0.815952 0.645456 0.114693
H14   H     H_    0.188270 0.733751 0.710020 0.174998
H15   H     H_    0.206025 0.782578 0.534496 0.098305
C21   C     C_3   0.074292 0.905516 0.651735 -0.366169
H16   H     H_    0.079108 0.941969 0.761081 0.257451
H17   H     H_    0.085520 0.983787 0.578910 0.232600
C22   C     C_3   0.917699 0.842528 0.609009 -0.867557
H18   H     H_    0.910018 0.804571 0.499903 0.274450
H19   H     H_    0.823880 0.910508 0.612054 0.270493
H20   H     H_    0.900813 0.766775 0.683602 0.245065
Br1   Br    Br    0.649093 0.868148 0.241381 -0.503666
Br2   Br    Br    0.344322 0.139162 0.764341 -0.557538

loop_
_geom_bond_atom_site_label_1
_geom_bond_atom_site_label_2
_ccdc_geom_bond_type
C21   H17   S    
C13   N2    A    
C5    H1    S    
C14   C16   A    
C20   H15   S    
C6    H2    S    
O9    C17   S    
Cu2   N2    S    
C13   C15   A    
C2    O4    A    
Cu1   N1    S    
C14   H4    S    
C15   H5    S    
C21   H16   S    
C13   H3    S    
C18   H10   S    
Cu2   O3    S    
C22   H18   S    
C3    O5    A    
Cu1   O4    S    
C9    C11   A    
C4    O6    A    
C1    C12   S    
C19   H12   S    
C8    C11   A    
C2    C11   S    
C10   C12   A    
C1    O3    A    
C17   H7    S    
C10   Br2   S    
Cu1   Cu2   S    
C20   C21   S    
C9    Br1   S    
C22   H19   S    
C14   N1    A    
C16   N2    A    
C5    C6    D    
Cu1   O5    S    
Cu2   O7    S    
C4    O8    A    
C7    C12   A    
C15   N1    A    
C21   C22   S    
Cu2   O6    S    
Cu1   O8    S    
C3    O7    A    
C17   H8    S    
Cu1   O1    S    
C7    C9    A    
Cu2   O2    S    
C16   H6    S    
C4    C6    S    
C19   H11   S    
C22   H20   S    
C18   H9    S    
C1    O1    A    
C18   C19   S    
C2    O2    A    
C8    O10   S    
O10   C20   S    
C7    O9    S    
C17   C18   S    
C8    C10   A    
C20   H14   S    
C3    C5    S    
C19   H13   S    
