data_mof_unit_17301.cif
_audit_creation_date              2012-12-11T14:50:53-0500
_audit_creation_method            fapswitch 2.2
_symmetry_space_group_name_H-M    P1
_symmetry_Int_Tables_number       1
_space_group_crystal_system       triclinic
_cell_length_a                    10.837583
_cell_length_b                    10.941079
_cell_length_c                    18.821218
_cell_angle_alpha                 90.442583
_cell_angle_beta                  90.025021
_cell_angle_gamma                 60.255897
_cell_volume                      1937.620719

loop_
_atom_site_label
_atom_site_type_symbol
_atom_type_description
_atom_site_fract_x
_atom_site_fract_y
_atom_site_fract_z
_atom_type_partial_charge
C1    C     C_R   0.235187 0.646613 0.609162 0.536354
C2    C     C_R   0.592894 0.110743 0.778979 -0.110694
C3    C     C_R   0.588386 0.114715 0.706012 -0.001032
C4    C     C_R   0.649675 0.616055 0.603940 0.543455
C5    C     C_R   0.678222 0.152315 0.669775 -0.013487
C6    C     C_R   0.208380 0.546599 0.722195 -0.143410
C7    C     C_R   0.193520 0.557374 0.795806 -0.150375
C8    C     C_R   0.157516 0.685158 0.829829 0.017976
C9    C     C_R   0.134160 0.802102 0.789438 -0.137083
C10   C     C_R   0.144601 0.792660 0.716489 -0.146288
C11   C     C_R   0.185580 0.664188 0.682314 0.010379
C12   C     C_3   0.733019 0.513147 0.799210 -0.246327
C13   C     C_R   0.736783 0.524098 0.271462 -0.128499
C14   C     C_R   0.736993 0.535155 0.198629 -0.124172
C15   C     C_R   0.648370 0.664355 0.165854 0.031331
C16   C     C_R   0.631410 0.222831 0.601205 0.524100
C17   C     C_R   0.544208 0.776032 0.206347 -0.138155
C18   C     C_R   0.541836 0.764160 0.280207 -0.132636
C19   C     C_R   0.643126 0.639803 0.313371 0.033102
C20   C     C_R   0.567697 0.109602 0.297337 -0.129594
C21   C     C_R   0.580564 0.076543 0.225872 -0.137734
C22   C     C_R   0.689494 0.076059 0.186470 0.036574
C23   C     C_3   0.693367 0.667181 0.815438 0.050322
C24   C     C_R   0.789301 0.103832 0.219914 -0.132599
C25   C     C_R   0.775065 0.139597 0.291155 -0.146123
C26   C     C_R   0.660550 0.148509 0.329334 0.034812
C27   C     C_R   0.113629 0.799331 0.301297 -0.131913
C28   C     C_R   0.218081 0.650266 0.402680 0.548132
C29   C     C_R   0.108059 0.804448 0.229032 -0.127801
C30   C     C_R   0.119827 0.690075 0.189195 0.036870
C31   C     C_R   0.137387 0.569395 0.223321 -0.133428
C32   C     C_R   0.153969 0.560121 0.296592 -0.128811
C33   C     C_R   0.148505 0.673546 0.335002 0.031371
C34   C     C_3   0.664055 0.638342 0.680148 0.040620
C35   C     C_R   0.705015 0.094188 0.893548 0.551492
C36   C     C_R   0.718736 0.684575 0.890435 0.539300
C37   C     C_R   0.113403 0.709583 0.903999 0.545951
C38   C     C_R   0.701752 0.042759 0.111211 0.567460
C39   C     C_R   0.692892 0.688597 0.096437 0.539251
C40   C     C_R   0.638070 0.617355 0.389520 0.552558
C41   C     C_R   0.087230 0.713070 0.114568 0.545775
C42   C     C_R   0.619761 0.224107 0.396369 0.546914
C43   C     C_3   0.536361 0.764777 0.793821 -0.236310
C44   C     C_3   0.518086 0.742961 0.714534 -0.225343
C45   C     C_3   0.768975 0.693161 0.690788 -0.247532
C46   C     C_3   0.790117 0.705543 0.770616 -0.214046
C47   C     C_2   0.485857 0.082740 0.669473 0.211783
C48   C     C_3   0.720761 0.495213 0.719163 -0.222465
C49   C     C_R   0.788702 0.157468 0.706974 -0.162485
C50   C     C_R   0.798831 0.142260 0.780829 -0.161583
C51   C     C_R   0.696729 0.124686 0.817517 -0.004969
Cr1   Cr    Cr6+3 0.392930 0.397900 0.502230 1.022815
Cr2   Cr    Cr6+3 0.398240 0.708600 0.501260 1.014875
Cr3   Cr    Cr6+3 0.708800 0.393470 0.496460 1.011278
Cr4   Cr    Cr6+3 0.937620 0.938540 0.007640 1.010235
Cr5   Cr    Cr6+3 0.625150 0.937450 0.994520 1.009001
Cr6   Cr    Cr6+3 0.937990 0.625080 0.001190 1.012870
H1    H     H_    0.504684 0.876943 0.803263 0.158221
H2    H     H_    0.102738 0.903373 0.813827 0.142990
H3    H     H_    0.464801 0.741389 0.826254 0.121791
H4    H     H_    0.126914 0.884785 0.687150 0.144396
H5    H     H_    0.810653 0.423738 0.294730 0.129725
H6    H     H_    0.815122 0.444827 0.168601 0.133249
H7    H     H_    0.469747 0.873731 0.181320 0.114827
H8    H     H_    0.462911 0.852086 0.311213 0.120212
H9    H     H_    0.478612 0.114702 0.326048 0.128051
H10   H     H_    0.502157 0.057239 0.200888 0.117779
H11   H     H_    0.874771 0.104481 0.190572 0.126668
H12   H     H_    0.827589 0.417027 0.698309 0.143576
H13   H     H_    0.847957 0.168776 0.314903 0.115375
H14   H     H_    0.105724 0.889390 0.329874 0.129230
H15   H     H_    0.444163 0.700494 0.709067 0.143229
H16   H     H_    0.093076 0.900143 0.204767 0.129282
H17   H     H_    0.141734 0.482232 0.193527 0.127789
H18   H     H_    0.179857 0.462016 0.322265 0.131813
H19   H     H_    0.468743 0.845287 0.686878 0.175021
H20   H     H_    0.766757 0.814420 0.783288 0.127137
H21   H     H_    0.727439 0.797577 0.665283 0.104957
H22   H     H_    0.843711 0.438381 0.816083 0.143115
H23   H     H_    0.903592 0.633726 0.783906 0.145803
H24   H     H_    0.661061 0.485883 0.828727 0.120729
H25   H     H_    0.647811 0.452531 0.709825 0.134307
H26   H     H_    0.509306 0.036504 0.616524 0.120559
H27   H     H_    0.873161 0.620116 0.665473 0.134285
H28   H     H_    0.861743 0.181581 0.679599 0.133265
H29   H     H_    0.882963 0.147893 0.809045 0.122542
H30   H     H_    0.516909 0.089512 0.805393 0.176292
H31   H     H_    0.242285 0.445493 0.696946 0.172296
H32   H     H_    0.208416 0.467069 0.825899 0.140376
O1    O     O_R   0.507430 0.255570 0.581420 -0.519347
O2    O     O_R   0.837200 0.593290 0.915250 -0.523687
O3    O     O_R   0.065330 0.635370 0.931590 -0.500846
O4    O     O_R   0.280190 0.527390 0.578910 -0.501932
O5    O     O_R   0.068300 0.828790 0.091860 -0.538414
O6    O     O_R   0.798730 0.057480 0.079370 -0.508746
O7    O     O_R   0.584680 0.080480 0.076790 -0.513165
O8    O     O_R   0.626790 0.809640 0.067050 -0.521199
O9    O     O_R   0.816010 0.596460 0.076500 -0.522208
O10   O     O_R   0.045680 0.638310 0.081070 -0.501610
O11   O     O_3   0.833590 0.833690 0.001120 -0.268677
O12   O     O_R   0.524460 0.695920 0.424060 -0.501794
O13   O     O_R   0.260310 0.739740 0.584580 -0.526820
O14   O     O_R   0.532250 0.695150 0.573830 -0.509640
O15   O     O_R   0.744930 0.503430 0.576380 -0.522793
O16   O     O_R   0.699250 0.276390 0.571950 -0.509184
O17   O     O_R   0.499020 0.256400 0.419850 -0.529048
O18   O     O_R   0.272400 0.528160 0.429140 -0.504986
O19   O     O_R   0.251910 0.740570 0.423020 -0.525349
O20   O     O_2   0.373635 0.109489 0.697735 -0.556458
O21   O     O_R   0.736530 0.504260 0.414810 -0.525663
O22   O     O_R   0.691460 0.277160 0.422180 -0.509942
O23   O     O_3   0.499990 0.499990 0.499980 -0.247001
O24   O     O_R   0.089490 0.825610 0.930610 -0.525115
O25   O     O_R   0.818370 0.054540 0.929880 -0.496230
O26   O     O_R   0.605870 0.077310 0.915530 -0.528192
O27   O     O_R   0.646440 0.806700 0.917570 -0.512900

loop_
_geom_bond_atom_site_label_1
_geom_bond_atom_site_label_2
_ccdc_geom_bond_type
C12   H22   S    
C16   O1    A    
Cr6   O3    S    
C27   C29   A    
Cr1   O1    S    
C1    C11   S    
C48   H12   S    
C12   C48   S    
C32   H18   S    
C23   C43   S    
C7    C8    A    
C45   C46   S    
C27   C33   A    
C18   H8    S    
C12   C23   S    
C20   H9    S    
Cr2   O14   S    
C17   H7    S    
C30   C31   A    
C39   O8    A    
C29   H16   S    
Cr1   O23   S    
C28   O18   A    
C7    H32   S    
C4    O14   A    
C6    H31   S    
Cr3   O21   S    
C35   O25   A    
Cr5   O7    S    
C18   C19   A    
C44   H19   S    
C5    C16   S    
C43   H1    S    
C40   O12   A    
C13   H5    S    
C31   C32   A    
Cr1   O18   S    
Cr2   O12   S    
C8    C9    A    
C38   O6    A    
Cr3   O22   S    
C41   O10   A    
C30   C41   S    
C35   O26   A    
C45   H21   S    
C47   H26   S    
C9    C10   A    
Cr3   O16   S    
Cr1   O17   S    
C23   C46   S    
C13   C14   A    
C21   H10   S    
C5    C49   A    
Cr5   O8    S    
Cr4   O5    S    
C50   C51   A    
C4    C34   S    
C13   C19   A    
C49   H28   S    
C2    H30   S    
C34   C44   S    
C24   C25   A    
Cr4   O6    S    
C2    C51   A    
C6    C11   A    
C50   H29   S    
C39   O9    A    
C40   O21   A    
Cr4   O24   S    
C25   C26   A    
C47   O20   D    
Cr6   O11   S    
C9    H2    S    
Cr4   O11   S    
C42   O22   A    
C29   C30   A    
C41   O5    A    
Cr2   O13   S    
C17   C18   A    
Cr5   O27   S    
Cr3   O23   S    
Cr1   O4    S    
C34   C45   S    
C42   O17   A    
C15   C39   S    
C43   H3    S    
C16   O16   A    
Cr2   O23   S    
C28   C33   S    
C23   C36   S    
C10   C11   A    
C43   C44   S    
C35   C51   S    
C22   C24   A    
C10   H4    S    
C34   C48   S    
C8    C37   S    
Cr5   O11   S    
C36   O27   A    
C27   H14   S    
C26   C42   S    
Cr3   O15   S    
C15   C17   A    
Cr6   O2    S    
C37   O3    A    
C3    C5    A    
C36   O2    A    
C46   H20   S    
C6    C7    A    
Cr4   O25   S    
C32   C33   A    
C2    C3    A    
C46   H23   S    
Cr2   O19   S    
C20   C26   A    
C28   O19   A    
Cr6   O9    S    
C4    O15   A    
C3    C47   S    
Cr5   O26   S    
C48   H25   S    
C12   H24   S    
C44   H15   S    
C14   H6    S    
C31   H17   S    
C19   C40   S    
C24   H11   S    
C45   H27   S    
C37   O24   A    
C20   C21   A    
C1    O4    A    
C49   C50   A    
C38   O7    A    
C14   C15   A    
C25   H13   S    
C21   C22   A    
C1    O13   A    
C22   C38   S    
Cr6   O10   S    
