data_mof_unit_20291.cif
_audit_creation_date              2012-12-11T17:34:26-0500
_audit_creation_method            fapswitch 2.2
_symmetry_space_group_name_H-M    P1
_symmetry_Int_Tables_number       1
_space_group_crystal_system       triclinic
_cell_length_a                    24.037294
_cell_length_b                    7.216904
_cell_length_c                    20.414844
_cell_angle_alpha                 89.234852
_cell_angle_beta                  105.416084
_cell_angle_gamma                 89.580143
_cell_volume                      3413.52117871

loop_
_atom_site_label
_atom_site_type_symbol
_atom_type_description
_atom_site_fract_x
_atom_site_fract_y
_atom_site_fract_z
_atom_type_partial_charge
O1    O     O_R   0.449110 0.494310 0.552140 -0.525034
O2    O     O_R   0.550890 0.994310 0.447860 -0.523254
O3    O     O_R   0.440010 0.824420 0.415850 -0.533321
O4    O     O_R   0.559990 0.324420 0.584150 -0.533057
C1    C     C_R   0.425106 0.658015 0.390375 0.688049
C2    C     C_R   0.575551 0.153950 0.608737 0.706279
O5    O     O_R   0.442260 0.824040 0.549660 -0.540879
O6    O     O_R   0.557740 0.324040 0.450340 -0.542989
O7    O     O_R   0.553160 0.993960 0.582620 -0.529562
O8    O     O_R   0.446840 0.493960 0.417380 -0.529455
C3    C     C_R   0.426955 0.654196 0.565785 0.691907
C4    C     C_R   0.572189 0.154469 0.433135 0.693990
O9    O     O_3   0.536380 0.660670 0.510660 -0.374191
O10   O     O_3   0.463620 0.160670 0.489340 -0.373806
V1    V     V_3+5 0.493250 0.935680 0.498020 1.412228
V2    V     V_3+5 0.506750 0.435680 0.501980 1.412297
C5    C     C_R   0.829230 0.920515 0.179369 -0.137293
C6    C     C_R   0.167701 0.428781 0.816355 -0.136132
H1    H     H_    0.813037 0.796327 0.197980 0.105620
H2    H     H_    0.182561 0.306124 0.795729 0.105580
C7    C     C_R   0.866068 0.903923 0.136491 -0.170434
C8    C     C_R   0.131758 0.408908 0.860253 -0.170048
H3    H     H_    0.877694 0.766782 0.123352 0.121349
H4    H     H_    0.119354 0.271048 0.872026 0.119247
C9    C     C_R   0.887950 0.062876 0.111603 -0.052845
C10   C     C_R   0.111589 0.565808 0.887730 -0.049685
C11   C     C_R   0.871480 0.238314 0.130582 -0.169667
C12   C     C_R   0.128977 0.742424 0.870399 -0.169304
H5    H     H_    0.887108 0.364571 0.112777 0.127994
H6    H     H_    0.114740 0.867258 0.890268 0.126516
C13   C     C_R   0.834805 0.254337 0.173281 -0.143642
C14   C     C_R   0.164734 0.761713 0.826689 -0.143205
H7    H     H_    0.823060 0.390910 0.186968 0.106147
H8    H     H_    0.177177 0.899146 0.814345 0.106019
C15   C     C_R   0.813612 0.095906 0.198170 0.130810
C16   C     C_R   0.184116 0.605466 0.799088 0.130975
C17   C     C_1   0.775330 0.114102 0.242110 -0.064774
C18   C     C_1   0.221653 0.626777 0.754268 -0.063807
C19   C     C_1   0.742562 0.127258 0.277963 -0.045001
C20   C     C_1   0.254097 0.640620 0.717962 -0.045293
C21   C     C_R   0.669429 0.976862 0.323505 -0.168723
C22   C     C_R   0.329516 0.487760 0.677632 -0.160486
H9    H     H_    0.677866 0.853419 0.298086 0.119406
H10   H     H_    0.322674 0.370796 0.708007 0.117951
C23   C     C_R   0.627247 0.977018 0.360301 0.292544
C24   C     C_R   0.370604 0.480254 0.639168 0.293584
C25   C     C_R   0.617448 0.141475 0.394248 -0.109149
C26   C     C_R   0.379960 0.642092 0.602387 -0.123609
C27   C     C_R   0.652182 0.296459 0.391108 -0.232954
C28   C     C_R   0.342870 0.796174 0.600164 -0.232361
H11   H     H_    0.647463 0.421643 0.417784 0.145482
H12   H     H_    0.346493 0.918074 0.570149 0.147315
C29   C     C_R   0.693539 0.293085 0.353761 -0.151859
C30   C     C_R   0.300663 0.796494 0.636440 -0.148012
H13   H     H_    0.718891 0.415448 0.351689 0.119120
H14   H     H_    0.273118 0.917328 0.633824 0.119628
C31   C     C_R   0.701722 0.133742 0.319102 0.081516
C32   C     C_R   0.295064 0.643793 0.676852 0.078841
C33   C     C_R   0.644841 0.135227 0.798791 -0.156683
C34   C     C_R   0.346779 0.790078 0.208152 -0.179002
H15   H     H_    0.729027 0.130360 0.911693 0.123918
H16   H     H_    0.258124 0.839950 0.101536 0.124059
H17   H     H_    0.631419 0.140969 0.845443 0.116149
H18   H     H_    0.355064 0.871508 0.166716 0.123794
C35   C     C_R   0.619886 0.141465 0.675512 -0.072195
C36   C     C_R   0.380935 0.663211 0.323045 -0.081103
C37   C     C_R   0.903564 0.034084 0.765904 -0.285513
C38   C     C_R   0.105862 0.432656 0.227400 -0.236712
C39   C     C_R   0.865760 0.016942 0.701315 0.295121
C40   C     C_R   0.148524 0.363983 0.283647 0.295384
C41   C     C_R   0.805438 0.023652 0.692572 0.254410
C42   C     C_R   0.207094 0.406406 0.290046 0.225667
C43   C     C_R   0.782841 0.072157 0.748290 -0.011398
C44   C     C_R   0.222075 0.539065 0.245126 0.000673
C45   C     C_R   0.822788 0.080094 0.814604 0.016277
C46   C     C_R   0.177713 0.595531 0.185449 0.013718
C47   C     C_R   0.722139 0.104253 0.741857 0.101301
C48   C     C_R   0.279776 0.611074 0.254985 0.096090
C49   C     C_R   0.703507 0.118417 0.802075 0.090850
C50   C     C_R   0.291854 0.717721 0.201602 0.089917
C51   C     C_R   0.743312 0.117143 0.865845 -0.191917
C52   C     C_R   0.248702 0.758189 0.142154 -0.198583
C53   C     C_R   0.801896 0.102981 0.871980 -0.151430
C54   C     C_R   0.192531 0.701262 0.134651 -0.167312
C55   C     C_R   0.679165 0.128581 0.678643 -0.241718
C56   C     C_R   0.325170 0.591232 0.316601 -0.236460
C57   C     C_R   0.603080 0.141832 0.736448 0.152633
C58   C     C_R   0.391022 0.765753 0.267781 0.153337
C59   C     C_R   0.883026 0.059065 0.822865 -0.118840
C60   C     C_R   0.119725 0.538136 0.176232 -0.146486
H19   H     H_    0.690277 0.144185 0.631166 0.156081
H20   H     H_    0.317462 0.534582 0.362379 0.163373
H21   H     H_    0.949645 0.020759 0.772030 0.122888
H22   H     H_    0.061554 0.389667 0.219574 0.134182
H23   H     H_    0.830794 0.106845 0.922656 0.106156
H24   H     H_    0.160694 0.741311 0.088257 0.129167
O11   O     O_R   0.053190 0.709680 0.082610 -0.534490
O12   O     O_R   0.946810 0.209680 0.917390 -0.532080
O13   O     O_R   0.057740 0.380240 0.950340 -0.539040
O14   O     O_R   0.942260 0.880240 0.049660 -0.539392
C61   C     C_R   0.070959 0.549790 0.931846 0.675201
C62   C     C_R   0.929004 0.049180 0.068041 0.671452
O15   O     O_R   0.060000 0.379940 0.084150 -0.532293
O16   O     O_R   0.940000 0.879940 0.915850 -0.531672
O17   O     O_R   0.949110 0.210100 0.052140 -0.538304
O18   O     O_R   0.050890 0.710100 0.947860 -0.540541
C63   C     C_R   0.075084 0.546077 0.109387 0.703439
C64   C     C_R   0.925837 0.049636 0.890358 0.709788
O19   O     O_3   0.963630 0.543720 0.989330 -0.371235
O20   O     O_3   0.036370 0.043720 0.010670 -0.375136
V3    V     V_3+5 0.006750 0.268680 0.001980 1.404255
V4    V     V_3+5 0.993250 0.768680 0.998020 1.401189
N1    N     N_2   0.768785 0.957102 0.630729 -0.540698
H25   H     H_    0.781774 0.986612 0.587564 0.283901
C65   C     C_3   0.751713 0.766069 0.634026 -0.535035
H26   H     H_    0.790021 0.672627 0.642540 0.201995
H27   H     H_    0.720457 0.729558 0.585382 0.189601
H28   H     H_    0.730489 0.745107 0.675678 0.211023
N2    N     N_2   0.250554 0.300461 0.337039 -0.549555
H29   H     H_    0.241485 0.265867 0.382242 0.269202
C66   C     C_3   0.273947 0.147166 0.307362 -0.535344
H30   H     H_    0.239995 0.042994 0.287704 0.193324
H31   H     H_    0.309648 0.079564 0.346570 0.203280
H32   H     H_    0.291510 0.196952 0.265223 0.215845
N3    N     N_2   0.888645 0.979795 0.645269 -0.520101
H33   H     H_    0.925674 0.899012 0.657729 0.258004
C67   C     C_3   0.895143 0.143461 0.606412 -0.573307
H34   H     H_    0.909456 0.102158 0.561226 0.204401
H35   H     H_    0.928003 0.236300 0.637938 0.197376
H36   H     H_    0.853453 0.220035 0.588592 0.199741
N4    N     N_2   0.134264 0.237503 0.331186 -0.524791
H37   H     H_    0.153863 0.108850 0.334610 0.262157
C68   C     C_3   0.076146 0.235423 0.339004 -0.553670
H38   H     H_    0.076015 0.158096 0.386335 0.201988
H39   H     H_    0.046767 0.164407 0.295507 0.190522
H40   H     H_    0.060477 0.378917 0.343122 0.205883
N5    N     N_2   0.596380 0.811275 0.365175 -0.511870
H41   H     H_    0.610004 0.744996 0.411829 0.262454
C69   C     C_3   0.583927 0.686282 0.308216 -0.592221
H42   H     H_    0.551475 0.583725 0.314577 0.209899
H43   H     H_    0.623301 0.609231 0.305775 0.196634
H44   H     H_    0.566469 0.764451 0.259791 0.208898
N6    N     N_2   0.399739 0.309560 0.634132 -0.508601
H45   H     H_    0.389967 0.260158 0.585275 0.268335
C70   C     C_3   0.401228 0.164206 0.684209 -0.588596
H46   H     H_    0.426213 0.044233 0.673685 0.213050
H47   H     H_    0.357273 0.113702 0.680922 0.193562
H48   H     H_    0.421343 0.215090 0.736144 0.213890
C71   C     C_3   0.540717 0.146995 0.735696 -0.789300
H49   H     H_    0.519440 0.270753 0.706469 0.236710
H50   H     H_    0.520716 0.018333 0.711673 0.206749
H51   H     H_    0.534542 0.152900 0.787659 0.201579
C72   C     C_3   0.447277 0.859239 0.270115 -0.773805
H52   H     H_    0.440377 0.011712 0.265520 0.207270
H53   H     H_    0.481023 0.829422 0.317506 0.244185
H54   H     H_    0.463366 0.811826 0.226913 0.197942

loop_
_geom_bond_atom_site_label_1
_geom_bond_atom_site_label_2
_ccdc_geom_bond_type
C11   H5    S    
C43   C45   A    
C29   H13   S    
O1    C3    A    
O2    C4    A    
C22   C32   A    
C2    O7    A    
C70   H46   S    
C34   C58   A    
O8    V2    S    
C25   C27   A    
O18   V4    S    
O5    C3    A    
N5    C69   S    
C28   C30   A    
C44   C46   A    
C14   C16   A    
C8    H4    S    
C15   C17   S    
C60   C63   S    
C71   H50   S    
C10   C61   S    
C36   C58   A    
C69   H44   S    
C48   C50   A    
C9    C62   S    
N6    H45   S    
C19   C31   S    
C37   C59   A    
O12   C64   A    
C41   N1    S    
C62   O17   A    
O15   V3    S    
C22   C24   A    
C23   C25   A    
C39   C41   A    
O20   V3    S    
C66   H32   S    
C70   H47   S    
C2    C35   S    
C65   H27   S    
C68   H40   S    
C28   H12   S    
C13   H7    S    
C72   H53   S    
C44   C48   A    
O3    C1    A    
C48   C56   A    
C26   C28   A    
O17   V3    S    
C39   N3    S    
O6    V2    S    
C68   H39   S    
C21   H9    S    
C46   C54   A    
C3    C26   S    
C22   H10   S    
C4    C25   S    
O14   C62   A    
C51   C53   A    
C35   C57   A    
C24   C26   A    
N2    C66   S    
C55   H19   S    
C30   H14   S    
C20   C32   S    
C11   C13   A    
C12   C14   A    
C42   C44   A    
O19   V4    S    
C33   C49   A    
C49   C51   A    
O11   V4    S    
C29   C31   A    
O5    V1    S    
C27   H11   S    
C40   C42   A    
C5    C7    A    
C37   C39   A    
C14   H8    S    
O4    V2    S    
C67   H35   S    
C38   C60   A    
O6    C4    A    
C65   H28   S    
O13   V3    S    
C23   N5    S    
C47   C49   A    
O1    V2    S    
C53   H23   S    
C72   H54   S    
N3    C67   S    
O2    V1    S    
C66   H30   S    
O4    C2    A    
O13   C61   A    
O14   V4    S    
C52   C54   A    
C7    H3    S    
C8    C10   A    
N3    H33   S    
C13   C15   A    
C71   H51   S    
C67   H34   S    
C54   H24   S    
O16   C64   A    
C70   H48   S    
O3    V1    S    
O16   V4    S    
N1    H25   S    
C30   C32   A    
C61   O18   A    
N6    C70   S    
C7    C9    A    
C34   C50   A    
C43   C47   A    
O12   V3    S    
C6    C8    A    
C10   C12   A    
C1    C36   S    
N4    C68   S    
C36   C56   A    
O15   C63   A    
C69   H42   S    
C35   C55   A    
C24   N6    S    
C9    C11   A    
C38   H22   S    
N5    H41   S    
C33   H17   S    
C34   H18   S    
C58   C72   S    
C12   H6    S    
O7    V1    S    
C67   H36   S    
C21   C31   A    
C1    O8    A    
C17   C19   T    
H15   C51   S    
C71   H49   S    
C18   C20   T    
C69   H43   S    
C45   C53   A    
C65   H26   S    
C68   H38   S    
C27   C29   A    
C59   C64   S    
C16   C18   S    
C40   N4    S    
C5    H1    S    
C50   C52   A    
C6    H2    S    
H16   C52   S    
C33   C57   A    
C66   H31   S    
C42   N2    S    
C45   C59   A    
C47   C55   A    
O11   C63   A    
C38   C40   A    
N2    H29   S    
C57   C71   S    
O9    V2    S    
C41   C43   A    
C37   H21   S    
C21   C23   A    
O10   V1    S    
C56   H20   S    
C5    C15   A    
C72   H52   S    
C6    C16   A    
N4    H37   S    
C46   C60   A    
N1    C65   S    
