data_mof_unit_32474.cif
_audit_creation_date              2012-12-10T20:27:51-0500
_audit_creation_method            fapswitch 2.2
_symmetry_space_group_name_H-M    P1
_symmetry_Int_Tables_number       1
_space_group_crystal_system       triclinic
_cell_length_a                    12.732107
_cell_length_b                    10.752376
_cell_length_c                    9.983991
_cell_angle_alpha                 88.735931
_cell_angle_beta                  97.893668
_cell_angle_gamma                 89.715769
_cell_volume                      1353.4878114

loop_
_atom_site_label
_atom_site_type_symbol
_atom_type_description
_atom_site_fract_x
_atom_site_fract_y
_atom_site_fract_z
_atom_type_partial_charge
C1    C     C_R   0.501201 0.260256 0.501475 0.960528
C2    C     C_R   0.025389 0.467666 0.526075 0.055289
C3    C     C_R   0.978617 0.586126 0.488071 -0.039127
C4    C     C_R   0.868407 0.599468 0.490656 -0.166046
C5    C     C_R   0.864918 0.392555 0.597613 -0.295903
C6    C     C_R   0.969805 0.374161 0.585254 0.681813
C7    C     C_R   0.517698 0.058461 0.624810 -0.017192
C8    C     C_R   0.512462 0.128099 0.504310 -0.132923
C9    C     C_R   0.526031 0.067522 0.384341 -0.231087
C10   C     C_R   0.528941 0.939100 0.382282 0.690846
C11   C     C_R   0.517376 0.870622 0.500506 -0.190655
C12   C     C_R   0.299087 0.507984 0.472500 0.878801
C13   C     C_R   0.522197 0.931862 0.622316 -0.026073
C14   C     C_3   0.464830 0.913140 0.742347 0.386779
C15   C     C_3   0.458554 0.056790 0.746689 -0.393756
C16   C     C_R   0.416133 0.546742 0.054786 0.013614
C17   C     C_R   0.586978 0.459532 0.087449 -0.063603
C18   C     C_R   0.587634 0.462571 0.944091 -0.066024
C19   C     C_R   0.416116 0.545738 0.913425 0.045837
C20   C     C_3   0.303452 0.505328 0.887717 1.007537
C21   C     C_3   0.301385 0.509306 0.040079 0.297718
C22   C     C_R   0.503254 0.739370 0.499313 0.971805
C23   C     C_R   0.701313 0.500659 0.527386 0.910010
C24   C     C_R   0.814153 0.501252 0.545633 -0.140051
C25   C     C_R   0.188072 0.534050 0.455571 -0.068045
C26   C     C_R   0.043949 0.683862 0.447459 -0.089122
C27   C     C_R   0.149235 0.656312 0.428214 -0.050932
C28   C     C_R   0.127730 0.442896 0.505508 -0.111776
H1    H     H_    0.820921 0.317528 0.637595 0.213229
H2    H     H_    0.163420 0.352971 0.534092 0.191311
H3    H     H_    0.528478 0.118177 0.289988 0.246549
N1    N     N_R   0.499290 0.499140 0.142710 -0.148648
N2    N     N_R   0.499290 0.499180 0.857070 -0.143966
O1    O     O_R   0.500010 0.316790 0.614690 -0.598071
O2    O     O_R   0.500000 0.316760 0.385350 -0.596192
O3    O     O_R   0.346360 0.499990 0.595720 -0.554197
O4    O     O_R   0.346350 0.499960 0.366370 -0.598794
O5    O     O_R   0.500000 0.683240 0.614650 -0.600088
O6    O     O_R   0.499990 0.683210 0.385310 -0.538260
O7    O     O_R   0.653650 0.500040 0.633630 -0.598846
O8    O     O_R   0.653640 0.500010 0.404280 -0.626690
Zn1   Zn    Zn3+2 0.500010 0.500020 0.653130 1.089027
Zn2   Zn    Zn3+2 0.499990 0.499980 0.346870 1.073539
C29   C     C_2   0.805624 0.707159 0.424772 0.978143
O9    O     O_2   0.753052 0.770365 0.491355 -0.547074
O10   O     O_R   0.803962 0.735791 0.287216 -0.694352
H4    H     H_    0.848828 0.676511 0.241106 0.358235
C30   C     C_2   0.529542 0.845198 0.860238 0.978457
O11   O     O_2   0.617871 0.803875 0.850473 -0.550864
O12   O     O_R   0.486378 0.827640 0.980234 -0.685526
H5    H     H_    0.534660 0.775628 0.049078 0.391632
C31   C     C_2   0.344498 0.103117 0.719072 1.178408
O13   O     O_2   0.288992 0.098858 0.809813 -0.432614
O14   O     O_R   0.300190 0.141556 0.588849 -0.826917
H6    H     H_    0.220830 0.155117 0.581258 0.378076
C32   C     C_2   0.523029 0.113628 0.869226 0.959237
O15   O     O_2   0.617684 0.089473 0.897017 -0.529443
O16   O     O_R   0.474086 0.190969 0.952768 -0.709706
H7    H     H_    0.523771 0.214983 0.035956 0.364231
C33   C     C_2   0.677936 0.400358 0.173589 0.983604
O17   O     O_2   0.764990 0.449482 0.184596 -0.593759
O18   O     O_R   0.665063 0.287012 0.239862 -0.801528
H8    H     H_    0.732985 0.256028 0.295923 0.351807
C34   C     C_2   0.682853 0.419079 0.890056 0.993970
O19   O     O_2   0.680686 0.322337 0.828126 -0.591672
O20   O     O_R   0.775896 0.488604 0.911339 -0.707004
H9    H     H_    0.836839 0.448211 0.872600 0.366475
F1    F     F_    0.238607 0.593833 0.814476 -0.551747
F2    F     F_    0.292195 0.387800 0.833464 -0.644621
F3    F     F_    0.237597 0.605164 0.073595 -0.523262
C35   C     C_2   0.277192 0.387054 0.106439 0.984152
O21   O     O_2   0.337746 0.298304 0.108812 -0.575485
O22   O     O_R   0.184314 0.376203 0.165784 -0.718350
H10   H     H_    0.176793 0.290962 0.208751 0.354394
C36   C     C_2   0.008575 0.815945 0.438017 0.985494
O23   O     O_2   0.980083 0.865123 0.536446 -0.500348
O24   O     O_R   0.010626 0.884541 0.317795 -0.724379
H11   H     H_    0.985630 0.973594 0.324328 0.376781
F4    F     F_    0.016121 0.263350 0.627547 -0.617533
C37   C     C_2   0.221478 0.756721 0.391962 0.959207
O25   O     O_2   0.274593 0.742012 0.300498 -0.501758
O26   O     O_R   0.228464 0.868102 0.462168 -0.718063
H12   H     H_    0.279696 0.928794 0.427440 0.362650
F5    F     F_    0.536508 0.883650 0.263520 -0.593549
F6    F     F_    0.367484 0.856544 0.707475 -0.593565

loop_
_geom_bond_atom_site_label_1
_geom_bond_atom_site_label_2
_ccdc_geom_bond_type
C16   C21   S    
C1    C8    S    
O22   H10   S    
O3    Zn1   S    
C19   C20   S    
O1    Zn1   S    
C7    C8    A    
O24   H11   S    
C29   O9    D    
C25   C28   A    
C26   C27   A    
C21   C35   S    
N2    Zn1   S    
O5    Zn1   S    
C5    C6    A    
C4    C24   A    
C23   O7    A    
C22   O5    A    
C32   O15   D    
C33   O18   S    
C10   F5    S    
C12   O4    A    
O10   H4    S    
C31   O14   S    
C8    C9    A    
C23   C24   S    
C12   O3    A    
O2    Zn2   S    
C9    C10   A    
C30   O12   S    
O20   H9    S    
C13   C14   S    
O8    Zn2   S    
C2    C6    A    
C29   O10   S    
C1    O1    A    
C26   C36   S    
C5    H1    S    
C37   O26   S    
C27   C37   S    
C19   N2    A    
C35   O22   S    
C14   C30   S    
C7    C15   S    
C4    C29   S    
O12   H5    S    
O16   H7    S    
C33   O17   D    
C34   O20   S    
O4    Zn2   S    
C36   O23   D    
O18   H8    S    
C17   C18   A    
C15   C31   S    
C36   O24   S    
C30   O11   D    
C20   F2    S    
C25   C27   A    
C3    C4    A    
C31   O13   D    
C1    O2    A    
O14   H6    S    
C20   F1    S    
C3    C26   A    
C14   F6    S    
C37   O25   D    
O6    Zn2   S    
C16   N1    A    
C12   C25   S    
C11   C22   S    
C23   O8    A    
C21   F3    S    
C34   O19   D    
C28   H2    S    
C2    C3    A    
C35   O21   D    
C15   C32   S    
C11   C13   A    
C18   C34   S    
C6    F4    S    
C5    C24   A    
C16   C19   A    
C22   O6    A    
O7    Zn1   S    
N1    Zn2   S    
C32   O16   S    
C18   N2    A    
C10   C11   A    
C9    H3    S    
C17   C33   S    
C7    C13   A    
C20   C21   S    
O26   H12   S    
C17   N1    A    
C14   C15   S    
C2    C28   A    
