data_mof_unit_61624.cif
_audit_creation_date              2013-03-05T16:02:57-0500
_audit_creation_method            fapswitch 2.2
_symmetry_space_group_name_H-M    P1
_symmetry_Int_Tables_number       1
_space_group_crystal_system       triclinic
_cell_length_a                    18.358754
_cell_length_b                    18.358617
_cell_length_c                    59.933241
_cell_angle_alpha                 90.000335
_cell_angle_beta                  90.06821
_cell_angle_gamma                 89.998898
_cell_volume                      20199.9651362

loop_
_atom_site_label
_atom_site_type_symbol
_atom_site_description
_atom_site_fract_x
_atom_site_fract_y
_atom_site_fract_z
_atom_type_partial_charge
Zn1   Zn    Zn3+2 0.586770 0.000000 0.731050 1.036534
Zn2   Zn    Zn3+2 0.413230 0.000000 0.268950 1.037667
Zn3   Zn    Zn3+2 0.000000 0.586770 0.731050 1.036620
Zn4   Zn    Zn3+2 0.000000 0.413230 0.268950 1.036055
Zn5   Zn    Zn3+2 0.413230 0.000000 0.731050 1.037057
Zn6   Zn    Zn3+2 0.586770 0.000000 0.268950 1.037819
Zn7   Zn    Zn3+2 0.000000 0.413230 0.731050 1.038364
Zn8   Zn    Zn3+2 0.000000 0.586770 0.268950 1.037699
Zn9   Zn    Zn3+2 0.086770 0.500000 0.231050 1.036568
Zn10  Zn    Zn3+2 0.913230 0.500000 0.768950 1.035900
Zn11  Zn    Zn3+2 0.500000 0.086770 0.231050 1.037646
Zn12  Zn    Zn3+2 0.500000 0.913230 0.768950 1.038373
Zn13  Zn    Zn3+2 0.913230 0.500000 0.231050 1.038272
Zn14  Zn    Zn3+2 0.086770 0.500000 0.768950 1.038112
Zn15  Zn    Zn3+2 0.500000 0.913230 0.231050 1.035753
Zn16  Zn    Zn3+2 0.500000 0.086770 0.768950 1.036822
O1    O     O_3   0.500000 0.000000 0.750000 -0.526245
O2    O     O_3   0.500000 0.000000 0.250000 -0.526514
O3    O     O_3   0.000000 0.500000 0.750000 -0.526443
O4    O     O_3   0.000000 0.500000 0.250000 -0.526172
O5    O     O_R   0.500000 0.060550 0.799700 -0.581719
O6    O     O_R   0.500000 0.939450 0.200300 -0.583385
O7    O     O_R   0.939450 0.500000 0.799700 -0.582684
O8    O     O_R   0.060550 0.500000 0.200300 -0.581992
O9    O     O_R   0.500000 0.939450 0.799700 -0.580601
O10   O     O_R   0.500000 0.060550 0.200300 -0.582034
O11   O     O_R   0.060550 0.500000 0.799700 -0.581735
O12   O     O_R   0.939450 0.500000 0.200300 -0.581252
O13   O     O_R   0.000000 0.560550 0.299700 -0.582927
O14   O     O_R   0.000000 0.439450 0.700300 -0.580007
O15   O     O_R   0.439450 0.000000 0.299700 -0.579570
O16   O     O_R   0.560550 0.000000 0.700300 -0.583613
O17   O     O_R   0.000000 0.439450 0.299700 -0.584086
O18   O     O_R   0.000000 0.560550 0.700300 -0.581208
O19   O     O_R   0.560550 0.000000 0.299700 -0.579898
O20   O     O_R   0.439450 0.000000 0.700300 -0.583831
O21   O     O_R   0.585450 0.853690 0.762850 -0.639483
O22   O     O_R   0.414550 0.146310 0.237150 -0.633105
O23   O     O_R   0.146310 0.585450 0.762850 -0.640551
O24   O     O_R   0.853690 0.414550 0.237150 -0.634334
O25   O     O_R   0.414550 0.146310 0.762850 -0.639675
O26   O     O_R   0.585450 0.853690 0.237150 -0.634312
O27   O     O_R   0.853690 0.414550 0.762850 -0.641040
O28   O     O_R   0.146310 0.585450 0.237150 -0.635785
O29   O     O_R   0.585450 0.146310 0.237150 -0.641513
O30   O     O_R   0.414550 0.853690 0.762850 -0.634588
O31   O     O_R   0.146310 0.414550 0.237150 -0.640058
O32   O     O_R   0.853690 0.585450 0.762850 -0.634863
O33   O     O_R   0.414550 0.853690 0.237150 -0.642038
O34   O     O_R   0.585450 0.146310 0.762850 -0.635920
O35   O     O_R   0.853690 0.585450 0.237150 -0.640012
O36   O     O_R   0.146310 0.414550 0.762850 -0.633905
O37   O     O_R   0.085450 0.353690 0.262850 -0.641614
O38   O     O_R   0.914550 0.646310 0.737150 -0.636053
O39   O     O_R   0.646310 0.085450 0.262850 -0.635328
O40   O     O_R   0.353690 0.914550 0.737150 -0.634115
O41   O     O_R   0.914550 0.646310 0.262850 -0.641375
O42   O     O_R   0.085450 0.353690 0.737150 -0.635104
O43   O     O_R   0.353690 0.914550 0.262850 -0.635006
O44   O     O_R   0.646310 0.085450 0.737150 -0.633751
O45   O     O_R   0.085450 0.646310 0.737150 -0.639497
O46   O     O_R   0.914550 0.353690 0.262850 -0.634643
O47   O     O_R   0.646310 0.914550 0.737150 -0.641764
O48   O     O_R   0.353690 0.085450 0.262850 -0.639325
O49   O     O_R   0.914550 0.353690 0.737150 -0.639029
O50   O     O_R   0.085450 0.646310 0.262850 -0.633092
O51   O     O_R   0.353690 0.085450 0.737150 -0.641615
O52   O     O_R   0.646310 0.914550 0.262850 -0.639072
C1    C     C_R   0.499839 0.999880 0.810497 0.943754
C2    C     C_R   0.499791 0.000117 0.189520 0.948197
C3    C     C_R   0.000157 0.499813 0.810486 0.946584
C4    C     C_R   0.999841 0.499819 0.189508 0.945161
C5    C     C_R   0.000223 0.500118 0.310474 0.949152
C6    C     C_R   0.000116 0.499880 0.689498 0.942801
C7    C     C_R   0.500043 0.999982 0.310500 0.940059
C8    C     C_R   0.499963 0.000010 0.689539 0.950357
C9    C     C_R   0.640296 0.859690 0.750003 0.801991
C10   C     C_R   0.359702 0.140307 0.249996 0.805415
C11   C     C_R   0.140322 0.640306 0.750002 0.803235
C12   C     C_R   0.859679 0.359694 0.249998 0.809457
C13   C     C_R   0.359678 0.140306 0.749998 0.803244
C14   C     C_R   0.640322 0.859695 0.250001 0.806114
C15   C     C_R   0.859703 0.359690 0.749997 0.802503
C16   C     C_R   0.140297 0.640308 0.250003 0.808892
C17   C     C_R   0.640320 0.140308 0.250003 0.804378
C18   C     C_R   0.359680 0.859693 0.749997 0.809164
C19   C     C_R   0.140294 0.359688 0.250002 0.802387
C20   C     C_R   0.859705 0.640311 0.749998 0.807292
C21   C     C_R   0.359706 0.859687 0.249999 0.804157
C22   C     C_R   0.640294 0.140312 0.750002 0.808515
C23   C     C_R   0.859680 0.640307 0.249997 0.802090
C24   C     C_R   0.140320 0.359693 0.750003 0.807896
C25   C     C_R   0.756622 0.189921 0.735808 -0.144795
C26   C     C_R   0.243408 0.810046 0.264207 -0.147366
C27   C     C_R   0.810053 0.756720 0.735818 -0.148488
C28   C     C_R   0.189932 0.243261 0.264174 -0.153710
C29   C     C_R   0.243285 0.810047 0.735790 -0.145381
C30   C     C_R   0.756699 0.189973 0.264218 -0.147994
C31   C     C_R   0.189886 0.243341 0.735800 -0.147160
C32   C     C_R   0.810157 0.756706 0.264180 -0.153146
C33   C     C_R   0.756774 0.810106 0.264183 -0.151634
C34   C     C_R   0.243268 0.189940 0.735797 -0.153301
C35   C     C_R   0.810081 0.243372 0.264215 -0.145560
C36   C     C_R   0.189901 0.756649 0.735794 -0.151429
C37   C     C_R   0.243333 0.189876 0.264171 -0.151773
C38   C     C_R   0.756653 0.810106 0.735822 -0.153532
C39   C     C_R   0.190007 0.756661 0.264210 -0.144483
C40   C     C_R   0.810025 0.243303 0.735806 -0.151415
C41   C     C_R   0.256608 0.689935 0.235803 -0.147404
C42   C     C_R   0.743365 0.310088 0.764186 -0.152799
C43   C     C_R   0.310051 0.256717 0.235816 -0.145336
C44   C     C_R   0.689952 0.743282 0.764184 -0.152068
C45   C     C_R   0.743296 0.310036 0.235786 -0.146141
C46   C     C_R   0.256722 0.689950 0.764208 -0.152283
C47   C     C_R   0.689855 0.743309 0.235813 -0.145977
C48   C     C_R   0.310107 0.256657 0.764203 -0.151677
C49   C     C_R   0.256722 0.310055 0.764207 -0.145761
C50   C     C_R   0.743237 0.689908 0.235810 -0.152660
C51   C     C_R   0.310104 0.743351 0.764205 -0.146282
C52   C     C_R   0.689912 0.256638 0.235789 -0.152679
C53   C     C_R   0.743355 0.689899 0.764182 -0.146419
C54   C     C_R   0.256651 0.310104 0.235820 -0.152373
C55   C     C_R   0.689964 0.256704 0.764189 -0.148074
C56   C     C_R   0.310010 0.743318 0.235801 -0.153689
H1    H     H_    0.762583 0.143737 0.724712 0.189420
H2    H     H_    0.237469 0.856208 0.275312 0.189298
H3    H     H_    0.856208 0.762750 0.724730 0.188241
H4    H     H_    0.143767 0.237222 0.275258 0.184878
H5    H     H_    0.237262 0.856200 0.724681 0.189262
H6    H     H_    0.762710 0.143832 0.275332 0.188972
H7    H     H_    0.143680 0.237361 0.724695 0.189103
H8    H     H_    0.856399 0.762722 0.275269 0.185159
H9    H     H_    0.762840 0.856302 0.275273 0.186996
H10   H     H_    0.237235 0.143777 0.724692 0.185181
H11   H     H_    0.856267 0.237413 0.275329 0.189591
H12   H     H_    0.143700 0.762624 0.724687 0.186451
H13   H     H_    0.237346 0.143667 0.275255 0.186993
H14   H     H_    0.762633 0.856308 0.724734 0.184984
H15   H     H_    0.143893 0.762650 0.275317 0.190394
H16   H     H_    0.856164 0.237288 0.724710 0.186745
H17   H     H_    0.262547 0.643773 0.224698 0.188635
H18   H     H_    0.737401 0.356275 0.775281 0.185567
H19   H     H_    0.356213 0.262752 0.224730 0.189430
H20   H     H_    0.643796 0.737252 0.775272 0.186313
H21   H     H_    0.737286 0.356175 0.224671 0.189435
H22   H     H_    0.262748 0.643795 0.775316 0.186034
H23   H     H_    0.643616 0.737296 0.224722 0.188700
H24   H     H_    0.356315 0.262639 0.775307 0.186305
H25   H     H_    0.262752 0.356216 0.775312 0.189586
H26   H     H_    0.737171 0.643711 0.224720 0.185938
H27   H     H_    0.356303 0.737378 0.775313 0.189494
H28   H     H_    0.643724 0.262600 0.224676 0.185905
H29   H     H_    0.737378 0.643698 0.775270 0.188888
H30   H     H_    0.262639 0.356314 0.224736 0.185978
H31   H     H_    0.643826 0.262717 0.775285 0.188528
H32   H     H_    0.356127 0.737325 0.224695 0.185344
C57   C     C_R   0.803656 0.303646 0.749995 -0.013963
C58   C     C_R   0.196346 0.696350 0.250007 -0.016950
C59   C     C_R   0.696342 0.803644 0.750004 -0.013294
C60   C     C_R   0.303653 0.196348 0.249993 -0.014963
C61   C     C_R   0.196364 0.696344 0.750002 -0.014355
C62   C     C_R   0.803637 0.303658 0.249998 -0.017190
C63   C     C_R   0.303636 0.196343 0.749998 -0.013809
C64   C     C_R   0.696366 0.803661 0.250000 -0.014920
C65   C     C_R   0.803643 0.696349 0.249995 -0.013175
C66   C     C_R   0.196358 0.303654 0.750004 -0.016423
C67   C     C_R   0.696359 0.196348 0.250005 -0.015563
C68   C     C_R   0.303641 0.803655 0.749996 -0.016731
C69   C     C_R   0.196334 0.303636 0.250000 -0.013011
C70   C     C_R   0.803663 0.696358 0.749998 -0.015527
C71   C     C_R   0.303666 0.803635 0.250001 -0.015291
C72   C     C_R   0.696335 0.196360 0.750001 -0.016143
C73   C     C_R   0.495212 0.064807 0.582579 0.722001
C74   C     C_R   0.523526 0.939037 0.417599 0.722194
C75   C     C_R   0.934256 0.495369 0.582406 0.724376
C76   C     C_R   0.065902 0.505017 0.417542 0.722282
C77   C     C_R   0.504573 0.935178 0.582599 0.721204
C78   C     C_R   0.477380 0.060540 0.417559 0.721078
C79   C     C_R   0.063827 0.485949 0.582408 0.721237
C80   C     C_R   0.936429 0.515755 0.417377 0.724122
C81   C     C_R   0.990670 0.564745 0.082498 0.724054
C82   C     C_R   0.008779 0.434609 0.917557 0.721102
C83   C     C_R   0.434177 0.006818 0.082443 0.721113
C84   C     C_R   0.565060 0.993030 0.917559 0.724132
C85   C     C_R   0.989173 0.434841 0.082409 0.721692
C86   C     C_R   0.011605 0.564493 0.917481 0.724759
C87   C     C_R   0.563922 0.013366 0.082579 0.725049
C88   C     C_R   0.435256 0.987753 0.917574 0.721599
O53   O     O_2   0.485468 0.126585 0.594380 -0.451892
O54   O     O_2   0.540742 0.878897 0.405807 -0.452168
O55   O     O_2   0.872301 0.504204 0.594165 -0.454276
O56   O     O_2   0.127810 0.494252 0.405905 -0.453145
O57   O     O_2   0.514215 0.873424 0.594425 -0.454385
O58   O     O_2   0.460198 0.120641 0.405731 -0.454600
O59   O     O_2   0.126593 0.487037 0.594123 -0.453461
O60   O     O_2   0.873912 0.516483 0.405543 -0.455825
O61   O     O_2   0.995738 0.627083 0.094299 -0.455228
O62   O     O_2   0.001814 0.372196 0.905876 -0.454900
O63   O     O_2   0.371984 0.998044 0.094092 -0.454784
O64   O     O_2   0.627245 0.999961 0.905797 -0.455444
O65   O     O_2   0.994065 0.372218 0.094082 -0.452527
O66   O     O_2   0.008649 0.626976 0.905684 -0.453206
O67   O     O_2   0.626456 0.012068 0.094398 -0.453002
O68   O     O_2   0.372543 0.990849 0.905869 -0.452580
N1    N     N_R   0.499851 0.000005 0.593697 -0.306820
N2    N     N_R   0.500434 0.999760 0.406469 -0.307022
N3    N     N_R   0.999282 0.493297 0.593513 -0.306771
N4    N     N_R   0.001052 0.507627 0.406358 -0.306805
N5    N     N_R   0.992622 0.499675 0.093559 -0.306746
N6    N     N_R   0.007496 0.499533 0.906414 -0.306723
N7    N     N_R   0.499100 0.007357 0.093613 -0.306773
N8    N     N_R   0.499986 0.993078 0.906462 -0.306733
C89   C     C_R   0.436844 0.978133 0.629474 0.207453
C90   C     C_R   0.433925 0.993419 0.370677 0.205262
C91   C     C_R   0.011913 0.430974 0.629741 0.204035
C92   C     C_R   0.980178 0.440608 0.371045 0.209957
C93   C     C_R   0.562867 0.021968 0.629507 0.206554
C94   C     C_R   0.566684 0.006054 0.370677 0.205435
C95   C     C_R   0.988082 0.562151 0.628895 0.210401
C96   C     C_R   0.022570 0.567066 0.370077 0.203702
C97   C     C_R   0.931420 0.483367 0.129805 0.203917
C98   C     C_R   0.939596 0.516843 0.871064 0.209889
C99   C     C_R   0.518172 0.939916 0.128945 0.210102
C100  C     C_R   0.485466 0.931285 0.870215 0.203668
C101  C     C_R   0.060968 0.514912 0.128918 0.210702
C102  C     C_R   0.068133 0.481342 0.870161 0.204530
C103  C     C_R   0.479339 0.067497 0.129880 0.204739
C104  C     C_R   0.513334 0.061665 0.871104 0.210557
C105  C     C_R   0.437506 0.978030 0.652902 0.508501
C106  C     C_R   0.434305 0.993843 0.347251 0.511197
C107  C     C_R   0.012631 0.433171 0.653127 0.511568
C108  C     C_R   0.980099 0.439349 0.347570 0.507700
C109  C     C_R   0.562256 0.022083 0.652932 0.508511
C110  C     C_R   0.566100 0.005813 0.347251 0.510780
C111  C     C_R   0.988193 0.563167 0.652370 0.509307
C112  C     C_R   0.022752 0.564526 0.346693 0.509712
C113  C     C_R   0.933818 0.482956 0.153192 0.510778
C114  C     C_R   0.938397 0.516898 0.847589 0.508298
C115  C     C_R   0.518286 0.938738 0.152420 0.508078
C116  C     C_R   0.484959 0.933557 0.846830 0.511045
C117  C     C_R   0.062130 0.515010 0.152392 0.508864
C118  C     C_R   0.065675 0.480964 0.846775 0.510402
C119  C     C_R   0.479096 0.065046 0.153265 0.510216
C120  C     C_R   0.513388 0.062726 0.847628 0.509013
C121  C     C_R   0.499849 0.000039 0.617728 -0.103517
C122  C     C_R   0.500354 0.999706 0.382437 -0.103977
C123  C     C_R   0.999691 0.495635 0.617549 -0.104267
C124  C     C_R   0.001197 0.504947 0.382329 -0.103806
C125  C     C_R   0.995166 0.499351 0.117593 -0.104116
C126  C     C_R   0.004921 0.499302 0.882381 -0.104033
C127  C     C_R   0.498927 0.004765 0.117644 -0.104039
C128  C     C_R   0.499635 0.995508 0.882428 -0.104155
C129  C     C_R   0.500065 0.999958 0.547276 -0.110600
C130  C     C_R   0.500420 0.999853 0.452892 -0.111060
C131  C     C_R   0.998777 0.487723 0.547090 -0.116306
C132  C     C_R   0.001149 0.513546 0.452774 -0.116223
C133  C     C_R   0.986938 0.500013 0.047136 -0.116366
C134  C     C_R   0.013148 0.499635 0.952837 -0.116345
C135  C     C_R   0.499082 0.013213 0.047196 -0.116412
C136  C     C_R   0.500390 0.987349 0.952882 -0.116392
C137  C     C_R   0.499032 0.066799 0.559063 -0.195776
C138  C     C_R   0.527772 0.938840 0.441121 -0.195096
C139  C     C_R   0.932194 0.490010 0.558899 -0.196823
C140  C     C_R   0.067795 0.511088 0.441012 -0.195961
C141  C     C_R   0.500975 0.933140 0.559076 -0.195706
C142  C     C_R   0.473113 0.060831 0.441075 -0.195221
C143  C     C_R   0.064905 0.479700 0.558940 -0.196168
C144  C     C_R   0.935100 0.521620 0.440875 -0.196711
C145  C     C_R   0.985124 0.566561 0.058993 -0.196735
C146  C     C_R   0.014884 0.433011 0.941029 -0.196227
C147  C     C_R   0.432424 0.012943 0.058973 -0.196307
C148  C     C_R   0.566989 0.987493 0.941063 -0.196738
C149  C     C_R   0.982995 0.433471 0.058937 -0.196335
C150  C     C_R   0.017171 0.566101 0.940988 -0.196860
C151  C     C_R   0.565385 0.019149 0.059080 -0.196649
C152  C     C_R   0.434016 0.981503 0.941042 -0.196234
C153  C     C_R   0.501890 0.133047 0.546959 0.183771
C154  C     C_R   0.558304 0.879991 0.453245 0.184802
C155  C     C_R   0.866223 0.484728 0.546818 0.186922
C156  C     C_R   0.133722 0.516639 0.453092 0.189199
C157  C     C_R   0.498250 0.866869 0.546978 0.184232
C158  C     C_R   0.442566 0.119731 0.453149 0.187032
C159  C     C_R   0.129231 0.463884 0.546950 0.186873
C160  C     C_R   0.870704 0.537294 0.452859 0.185866
C161  C     C_R   0.975745 0.632125 0.046959 0.187580
C162  C     C_R   0.024490 0.367512 0.953067 0.187265
C163  C     C_R   0.366688 0.020662 0.046909 0.186854
C164  C     C_R   0.632773 0.979982 0.953128 0.187206
C165  C     C_R   0.971187 0.368344 0.046892 0.185881
C166  C     C_R   0.028667 0.631309 0.953030 0.186374
C167  C     C_R   0.630225 0.032717 0.047080 0.186544
C168  C     C_R   0.369235 0.967778 0.953043 0.186268
C169  C     C_R   0.499899 0.000045 0.664795 -0.400536
C170  C     C_R   0.500149 0.999890 0.335315 -0.404104
C171  C     C_R   0.000412 0.498929 0.664680 -0.402703
C172  C     C_R   0.001150 0.501099 0.335241 -0.400974
C173  C     C_R   0.998795 0.499166 0.164709 -0.401897
C174  C     C_R   0.001202 0.499116 0.835274 -0.401536
C175  C     C_R   0.498945 0.001081 0.164742 -0.401107
C176  C     C_R   0.499303 0.998917 0.835305 -0.402314
C177  C     C_R   0.007437 0.566731 0.988265 -0.058192
C178  C     C_R   0.992580 0.433032 0.011700 -0.058103
C179  C     C_R   0.433202 0.990931 0.988286 -0.057906
C180  C     C_R   0.566362 0.009637 0.011801 -0.057909
C181  C     C_R   0.005259 0.432836 0.988266 -0.058281
C182  C     C_R   0.994844 0.566924 0.011717 -0.058382
C183  C     C_R   0.566967 0.997121 0.988343 -0.058498
C184  C     C_R   0.432595 0.003507 0.011728 -0.058434
C185  C     C_R   0.480385 0.063517 0.488339 -0.055991
C186  C     C_R   0.509038 0.933836 0.511821 -0.056619
C187  C     C_R   0.933698 0.512208 0.488156 -0.058750
C188  C     C_R   0.066123 0.489137 0.511699 -0.058314
C189  C     C_R   0.520281 0.936285 0.488377 -0.055338
C190  C     C_R   0.491449 0.066010 0.511796 -0.056386
C191  C     C_R   0.067196 0.501690 0.488257 -0.057530
C192  C     C_R   0.932628 0.499723 0.511616 -0.057814
C193  C     C_R   0.007927 0.499754 0.976506 -0.043213
C194  C     C_R   0.992144 0.499986 0.023467 -0.043226
C195  C     C_R   0.500162 0.992491 0.976554 -0.043250
C196  C     C_R   0.499385 0.008099 0.023525 -0.043261
C197  C     C_R   0.500367 0.999887 0.476543 -0.048875
C198  C     C_R   0.500186 0.999934 0.523624 -0.049123
C199  C     C_R   0.000619 0.508466 0.476447 -0.043015
C200  C     C_R   0.999223 0.492888 0.523418 -0.043037
C201  C     C_R   0.026233 0.630578 0.976353 0.660466
C202  C     C_R   0.973597 0.369175 0.023573 0.660641
C203  C     C_R   0.369949 0.970136 0.976364 0.660407
C204  C     C_R   0.629596 0.030324 0.023754 0.660307
C205  C     C_R   0.022100 0.368395 0.976385 0.659353
C206  C     C_R   0.978146 0.631338 0.023636 0.659293
C207  C     C_R   0.631866 0.982336 0.976453 0.659530
C208  C     C_R   0.367671 0.018395 0.023590 0.659590
C209  C     C_R   0.446685 0.120731 0.476467 0.661543
C210  C     C_R   0.502582 0.867729 0.523666 0.662493
C211  C     C_R   0.871200 0.534932 0.476185 0.660870
C212  C     C_R   0.128637 0.466269 0.523631 0.660506
C213  C     C_R   0.554064 0.879051 0.476560 0.662327
C214  C     C_R   0.497805 0.132140 0.523640 0.663552
C215  C     C_R   0.132604 0.514429 0.476411 0.660150
C216  C     C_R   0.867249 0.487092 0.523494 0.659686
F1    F     F_    0.623119 0.043157 0.664125 -0.568326
F2    F     F_    0.630162 0.013840 0.336187 -0.565062
F3    F     F_    0.977452 0.627374 0.663144 -0.565648
F4    F     F_    0.043364 0.624780 0.335141 -0.567967
F5    F     F_    0.376671 0.956976 0.664069 -0.568369
F6    F     F_    0.370150 0.985891 0.336185 -0.564639
F7    F     F_    0.024046 0.370237 0.664542 -0.566089
F8    F     F_    0.959936 0.377451 0.336781 -0.567136
F9    F     F_    0.125573 0.529766 0.163173 -0.566351
F10   F     F_    0.127070 0.463717 0.835286 -0.567417
F11   F     F_    0.460232 0.125935 0.164783 -0.567915
F12   F     F_    0.526256 0.126547 0.836859 -0.565921
F13   F     F_    0.871854 0.467699 0.164656 -0.566993
F14   F     F_    0.875458 0.533628 0.836800 -0.566711
F15   F     F_    0.536705 0.876304 0.163209 -0.567158
F16   F     F_    0.471545 0.871085 0.835381 -0.566513
N9    N     N_R   0.627737 0.043789 0.617788 0.273155
O69   O     O_R   0.648265 0.009683 0.599832 -0.323946
O70   O     O_R   0.668628 0.095818 0.625584 -0.213084
N10   N     N_R   0.634782 0.013439 0.382417 0.273709
O71   O     O_R   0.639255 0.053194 0.400341 -0.322470
O72   O     O_R   0.693622 0.983084 0.374675 -0.212966
N11   N     N_R   0.976558 0.628796 0.616708 0.273060
O73   O     O_R   0.011832 0.641591 0.598303 -0.324322
O74   O     O_R   0.932886 0.678587 0.624430 -0.221603
N12   N     N_R   0.043841 0.633111 0.381290 0.272829
O75   O     O_R   0.008458 0.655819 0.398755 -0.317349
O76   O     O_R   0.096535 0.672946 0.373436 -0.212679
N13   N     N_R   0.371948 0.956318 0.617720 0.273253
O77   O     O_R   0.351466 0.990333 0.599728 -0.322309
O78   O     O_R   0.330993 0.904386 0.625515 -0.216044
N14   N     N_R   0.365929 0.985950 0.382417 0.273982
O79   O     O_R   0.361628 0.946110 0.400325 -0.319394
O80   O     O_R   0.307011 0.016324 0.374696 -0.213816
N15   N     N_R   0.023245 0.362672 0.618455 0.273172
O81   O     O_R   0.984597 0.345471 0.601021 -0.317659
O82   O     O_R   0.069876 0.315625 0.626200 -0.215148
N16   N     N_R   0.959120 0.376469 0.383287 0.272544
O83   O     O_R   0.991898 0.359105 0.401799 -0.323764
O84   O     O_R   0.908984 0.333225 0.375516 -0.219219
N17   N     N_R   0.126728 0.530317 0.116712 0.272824
O85   O     O_R   0.141426 0.495850 0.098289 -0.324516
O86   O     O_R   0.173940 0.576821 0.124432 -0.222237
N18   N     N_R   0.135217 0.463783 0.881413 0.273100
O87   O     O_R   0.155928 0.500490 0.898875 -0.317842
O88   O     O_R   0.177860 0.413254 0.873604 -0.215504
N19   N     N_R   0.459975 0.134085 0.118647 0.272982
O89   O     O_R   0.496054 0.155745 0.101191 -0.318182
O90   O     O_R   0.408388 0.175403 0.126473 -0.215935
N20   N     N_R   0.526858 0.127890 0.883311 0.272935
O91   O     O_R   0.491981 0.141687 0.901719 -0.324113
O92   O     O_R   0.572011 0.176365 0.875607 -0.221957
N21   N     N_R   0.863844 0.467887 0.118544 0.273145
O93   O     O_R   0.844271 0.505260 0.101092 -0.318613
O94   O     O_R   0.819681 0.418653 0.126335 -0.212917
N22   N     N_R   0.874366 0.534326 0.883275 0.272871
O95   O     O_R   0.858665 0.500441 0.901721 -0.325713
O96   O     O_R   0.828570 0.582197 0.875537 -0.218633
N23   N     N_R   0.537359 0.875163 0.116718 0.272901
O97   O     O_R   0.503974 0.858631 0.098236 -0.325583
O98   O     O_R   0.586338 0.830585 0.124474 -0.218609
N24   N     N_R   0.471937 0.863348 0.881478 0.273098
O99   O     O_R   0.509929 0.844899 0.898926 -0.318656
O100  O     O_R   0.423915 0.817800 0.873693 -0.212905
N25   N     N_R   0.514084 0.201592 0.557854 0.286836
O101  O     O_R   0.573625 0.211829 0.569237 -0.229993
O102  O     O_R   0.472722 0.257158 0.553238 -0.175241
N26   N     N_R   0.598440 0.823065 0.442383 0.286106
O103  O     O_R   0.656674 0.839034 0.431027 -0.234489
O104  O     O_R   0.584609 0.755210 0.447005 -0.175323
N27   N     N_R   0.798237 0.469966 0.557719 0.287581
O105  O     O_R   0.740684 0.507944 0.552663 -0.180047
O106  O     O_R   0.790837 0.410926 0.569523 -0.230942
N28   N     N_R   0.201655 0.531677 0.442182 0.286089
O107  O     O_R   0.208322 0.589883 0.429957 -0.238501
O108  O     O_R   0.259668 0.494796 0.447492 -0.178677
N29   N     N_R   0.485938 0.798347 0.557865 0.286102
O109  O     O_R   0.426299 0.788152 0.569160 -0.236690
O110  O     O_R   0.527318 0.742758 0.553321 -0.182342
N30   N     N_R   0.402526 0.176654 0.442227 0.284684
O111  O     O_R   0.344269 0.160712 0.430837 -0.241528
O112  O     O_R   0.416474 0.244512 0.446823 -0.184225
N31   N     N_R   0.193858 0.438281 0.557949 0.287046
O113  O     O_R   0.191135 0.379797 0.570193 -0.236401
O114  O     O_R   0.257021 0.465457 0.552706 -0.177959
N32   N     N_R   0.805959 0.562506 0.441854 0.288523
O115  O     O_R   0.743114 0.534095 0.446842 -0.182146
O116  O     O_R   0.808031 0.621852 0.429992 -0.227126
N33   N     N_R   0.956813 0.699022 0.057905 0.287187
O117  O     O_R   0.991152 0.758829 0.052908 -0.182837
O118  O     O_R   0.897465 0.702700 0.069708 -0.237125
N34   N     N_R   0.043841 0.300709 0.942121 0.286247
O119  O     O_R   0.102347 0.297810 0.929911 -0.238137
O120  O     O_R   0.010746 0.240442 0.947380 -0.181485
N35   N     N_R   0.299329 0.037984 0.057835 0.286492
O121  O     O_R   0.294670 0.096356 0.070074 -0.237336
O122  O     O_R   0.240084 0.003118 0.052528 -0.181529
N36   N     N_R   0.700200 0.962946 0.942210 0.287253
O123  O     O_R   0.759070 0.998731 0.947325 -0.182882
O124  O     O_R   0.705502 0.903827 0.930338 -0.236604
N37   N     N_R   0.949595 0.302219 0.057831 0.287581
O125  O     O_R   0.891030 0.301287 0.070044 -0.229291
O126  O     O_R   0.980624 0.240872 0.052560 -0.174778
N38   N     N_R   0.049708 0.697584 0.942093 0.288430
O127  O     O_R   0.017108 0.758408 0.947052 -0.176618
O128  O     O_R   0.109244 0.699448 0.930337 -0.228518
N39   N     N_R   0.695750 0.055915 0.058068 0.288124
O129  O     O_R   0.757701 0.025769 0.053007 -0.175809
O130  O     O_R   0.695500 0.115218 0.069963 -0.229735
N40   N     N_R   0.303788 0.944305 0.942054 0.287400
O131  O     O_R   0.304575 0.885761 0.929810 -0.230403
O132  O     O_R   0.241557 0.973533 0.947307 -0.174758
F17   F     F_    0.052547 0.690132 0.987138 -0.521437
F18   F     F_    0.947091 0.309789 0.012742 -0.521885
F19   F     F_    0.311343 0.941870 0.987143 -0.522574
F20   F     F_    0.688310 0.058486 0.013006 -0.522186
F21   F     F_    0.046597 0.308141 0.987209 -0.522727
F22   F     F_    0.953758 0.691716 0.012856 -0.522146
F23   F     F_    0.692902 0.959719 0.987261 -0.521545
F24   F     F_    0.306738 0.041153 0.012754 -0.522054
F25   F     F_    0.408614 0.173102 0.487447 -0.526070
F26   F     F_    0.490297 0.804189 0.512651 -0.523227
F27   F     F_    0.813396 0.565008 0.486911 -0.519817
F28   F     F_    0.186303 0.436087 0.512860 -0.520549
F29   F     F_    0.592088 0.826721 0.487601 -0.526171
F30   F     F_    0.510221 0.195655 0.512635 -0.523305
F31   F     F_    0.194230 0.535177 0.487259 -0.523796
F32   F     F_    0.805504 0.466540 0.512678 -0.523266

loop_
_geom_bond_atom_site_label_1
_geom_bond_atom_site_label_2
_geom_bond_distance
_ccdc_geom_bond_type
C91   C123  1.411761 A    
N9    O69   1.301184 A    
C116  F16   1.358817 S    
N27   O106  1.301539 A    
C13   C63   1.454953 S    
C75   N3    1.366689 A    
Zn5   O51   1.946873 S    
C141  C157  1.417161 A    
C79   O59   1.348764 S    
C77   O57   1.348622 S    
C110  C170  1.409791 A    
C164  N36   1.435352 S    
N30   O111  1.301483 A    
C156  C215  1.398335 A    
C191  C215  1.415207 A    
N1    C121  1.440238 S    
Zn3   O38   1.946986 S    
Zn5   O20   1.905330 S    
N14   O79   1.301253 A    
C86   O66   1.348548 S    
C160  C211  1.398718 A    
Zn5   O40   1.946912 S    
C80   C144  1.412653 A    
Zn13  O35   1.946873 S    
O34   C22   1.273072 A    
C180  C183  1.424648 A    
Zn14  O36   1.946874 S    
C34   C63   1.401510 A    
Zn3   O3    1.956398 S    
C80   O60   1.348559 S    
C134  C193  1.421909 A    
C81   N5    1.366661 A    
N33   O118  1.301487 A    
C132  C144  1.413790 A    
C94   C110  1.404031 A    
N28   O108  1.301225 A    
C149  C165  1.413256 A    
C11   C61   1.454978 S    
C115  C175  1.407833 A    
C179  C195  1.417185 A    
C154  N26   1.435285 S    
O33   C21   1.273078 A    
C106  F6    1.358874 S    
C111  F3    1.358550 S    
O44   C22   1.272827 A    
N31   O114  1.301225 A    
C184  C196  1.417176 A    
Zn1   O44   1.946418 S    
C93   C109  1.404032 A    
C162  C205  1.398358 A    
C113  F13   1.358867 S    
Zn2   O43   1.946420 S    
C46   C61   1.401514 A    
N20   O92   1.301252 A    
O22   C10   1.273059 A    
Zn3   O18   1.904772 S    
N3    C123  1.441181 S    
C185  C209  1.411109 A    
C43   C60   1.401532 A    
C210  F26   1.359076 S    
C77   C141  1.411744 A    
C42   C55   1.386250 A    
C74   C138  1.411761 A    
C45   C52   1.386206 A    
O40   C18   1.272393 A    
C104  C120  1.407081 A    
C132  C199  1.421883 A    
C49   C66   1.401507 A    
C47   C50   1.386194 A    
C216  F32   1.358623 S    
C117  F9    1.358557 S    
C42   C57   1.401711 A    
C165  C202  1.398396 A    
C9    C59   1.455105 S    
O17   C5    1.287435 A    
N34   O119  1.301505 A    
C87   N7    1.366621 A    
C167  C204  1.398763 A    
Zn7   O3    1.956388 S    
C132  C140  1.413539 A    
N17   O85   1.301169 A    
C85   N5    1.366455 A    
O9    C1    1.284330 A    
N19   O89   1.301146 A    
C95   N11   1.440407 S    
O11   C3    1.284086 A    
C103  C127  1.412124 A    
C129  C137  1.416073 A    
N23   O98   1.301303 A    
C130  C142  1.416059 A    
Zn13  O4    1.955302 S    
Zn14  O3    1.955301 S    
Zn15  O26   1.946286 S    
N22   O96   1.301302 A    
N18   O88   1.301277 A    
C187  C199  1.417291 A    
N15   O81   1.301179 A    
C32   H8    1.083166 S    
C91   N15   1.439968 S    
C33   H9    1.083175 S    
C92   C124  1.414516 A    
C88   C152  1.411391 A    
N21   O93   1.301165 A    
C76   N4    1.366418 A    
C112  C172  1.408396 A    
C8    C169  1.482987 S    
C99   C115  1.407086 A    
N25   O101  1.301483 A    
O38   C20   1.273071 A    
C88   N8    1.366450 A    
C94   N10   1.440231 S    
C14   C64   1.454928 S    
C78   N2    1.366251 A    
C177  C193  1.417285 A    
Zn15  O33   1.947022 S    
Zn16  O34   1.947021 S    
Zn4   O4    1.956399 S    
C105  F5    1.358837 S    
C192  C200  1.417307 A    
C107  F7    1.358849 S    
C74   N2    1.366290 A    
N38   O127  1.301462 A    
C49   H25   1.083180 S    
N16   O83   1.301168 A    
C215  F31   1.358713 S    
N35   O122  1.301184 A    
Zn15  O2    1.956388 S    
C213  F29   1.359079 S    
C25   C72   1.401714 A    
Zn16  O5    1.904777 S    
C155  N27   1.435314 S    
C134  C150  1.413809 A    
O27   C15   1.272848 A    
C81   O61   1.348512 S    
C4    C173  1.486458 S    
C164  C207  1.398741 A    
C89   N13   1.440196 S    
N33   O117  1.301228 A    
Zn6   O19   1.905330 S    
C178  C194  1.417169 A    
Zn8   O13   1.904777 S    
O46   C12   1.272171 A    
C183  C207  1.415295 A    
C7    C170  1.487261 S    
O14   C6    1.284497 A    
C156  N28   1.435662 S    
C102  C118  1.402276 A    
C37   C60   1.401704 A    
C85   O65   1.348731 S    
C38   C59   1.401710 A    
C19   C69   1.455108 S    
C82   N6    1.366431 A    
O43   C21   1.272834 A    
C75   C139  1.412785 A    
N36   O123  1.301129 A    
C76   C140  1.411447 A    
C77   N1    1.366198 A    
C84   O64   1.348498 S    
C1    C176  1.486985 S    
C2    C175  1.485206 S    
C55   C72   1.401532 A    
C43   H19   1.083177 S    
C142  C158  1.417158 A    
C53   C70   1.401706 A    
C133  C145  1.413770 A    
C131  C200  1.421915 A    
C43   C54   1.386244 A    
C201  F17   1.358608 S    
C162  N34   1.435682 S    
N10   O71   1.301247 A    
N29   O110  1.301244 A    
C81   C145  1.412684 A    
C110  F2    1.358876 S    
C26   C39   1.386261 A    
C158  C209  1.399562 A    
C83   C147  1.411425 A    
C155  C216  1.398712 A    
C17   C67   1.454976 S    
C95   C111  1.407067 A    
C18   C68   1.454951 S    
C21   C71   1.455130 S    
Zn12  O30   1.946319 S    
C16   C58   1.455109 S    
C40   C57   1.401541 A    
C205  F21   1.358697 S    
C88   O68   1.348728 S    
O5    C1    1.288143 A    
C32   C65   1.401679 A    
O31   C19   1.272837 A    
C89   C121  1.413222 A    
N4    C124  1.440981 S    
C27   C38   1.386237 A    
C100  C116  1.402197 A    
C12   C62   1.454955 S    
O37   C19   1.273083 A    
N26   O103  1.301485 A    
C166  N38   1.435236 S    
C150  C166  1.413576 A    
C179  C203  1.415203 A    
C98   C126  1.414248 A    
C119  F11   1.358906 S    
O51   C13   1.272400 A    
C28   C69   1.401529 A    
C182  C194  1.417288 A    
C181  C205  1.415183 A    
C97   N21   1.439957 S    
C135  C147  1.413462 A    
C120  C176  1.408616 A    
C101  N17   1.440392 S    
N24   O99   1.301148 A    
Zn4   O17   1.904772 S    
C36   H12   1.083168 S    
O48   C10   1.272847 A    
C23   C65   1.454946 S    
N19   O90   1.301280 A    
O16   C8    1.285090 A    
C165  N37   1.435716 S    
C78   C142  1.411657 A    
C179  C184  1.423913 A    
C29   C68   1.401511 A    
C50   C65   1.401512 A    
Zn1   O1    1.957502 S    
C188  C191  1.423874 A    
O52   C14   1.272403 A    
N30   O112  1.301242 A    
C44   C53   1.386241 A    
C192  C216  1.415365 A    
C130  C197  1.417519 A    
C163  C208  1.398383 A    
C131  C143  1.413488 A    
O45   C11   1.272177 A    
C211  F27   1.358639 S    
C32   C33   1.386188 A    
N14   O80   1.301508 A    
C39   H15   1.083174 S    
C27   C70   1.401530 A    
C178  C202  1.415226 A    
C100  C128  1.411788 A    
C37   H13   1.083165 S    
C136  C152  1.413466 A    
C137  C153  1.417148 A    
C130  C138  1.416096 A    
C119  C175  1.408659 A    
C41   H17   1.083169 S    
C104  C128  1.414021 A    
O42   C24   1.272168 A    
Zn16  O25   1.946287 S    
N6    C126  1.441095 S    
C159  N31   1.435727 S    
N13   O78   1.301308 A    
C87   C151  1.412644 A    
C120  F12   1.358505 S    
C28   C37   1.386235 A    
Zn4   O37   1.946985 S    
N12   O76   1.301301 A    
C48   C63   1.401686 A    
N40   O132  1.301198 A    
Zn6   O39   1.946910 S    
O30   C18   1.272173 A    
Zn11  O2    1.956398 S    
C55   H31   1.083170 S    
C78   O58   1.348681 S    
C136  C195  1.421863 A    
C96   N12   1.440033 S    
C112  F4    1.358975 S    
C53   H29   1.083174 S    
C5    C172  1.484553 S    
C6    C171  1.487542 S    
N2    C122  1.440333 S    
C146  C162  1.413245 A    
C190  C214  1.411099 A    
C25   C40   1.386256 A    
N37   O126  1.301205 A    
Zn5   O1    1.955302 S    
N32   O115  1.301317 A    
Zn3   O45   1.946317 S    
C101  C117  1.407046 A    
C30   C35   1.386209 A    
C87   O67   1.348495 S    
C28   H4    1.083165 S    
C45   H21   1.083178 S    
Zn12  O21   1.946985 S    
C50   H26   1.083172 S    
N12   O75   1.301151 A    
Zn13  O24   1.946912 S    
O35   C23   1.272392 A    
Zn14  O23   1.946910 S    
Zn15  O6    1.904777 S    
Zn16  O1    1.956387 S    
C109  F1    1.358846 S    
O26   C14   1.272164 A    
Zn12  O1    1.956399 S    
C101  C125  1.414123 A    
N11   O73   1.301185 A    
O32   C20   1.272837 A    
Zn13  O12   1.905330 S    
C135  C151  1.413754 A    
C153  N25   1.435154 S    
Zn14  O11   1.905330 S    
N8    C128  1.441139 S    
C168  C203  1.398383 A    
C115  F15   1.358580 S    
N34   O120  1.301200 A    
N9    O70   1.301313 A    
Zn7   O14   1.904777 S    
N18   O87   1.301158 A    
O12   C4    1.284243 A    
C180  C204  1.415331 A    
N10   O72   1.301495 A    
C113  C173  1.409281 A    
C79   N3    1.366463 A    
C20   C70   1.455083 S    
N15   O82   1.301311 A    
C177  C201  1.415365 A    
N39   O129  1.301015 A    
C84   C148  1.412688 A    
O7    C3    1.287749 A    
N22   O95   1.301173 A    
C90   N14   1.440243 S    
C114  F14   1.358592 S    
C189  C197  1.414027 A    
C36   C61   1.401688 A    
C48   H24   1.083166 S    
C117  C173  1.408395 A    
C161  C206  1.398680 A    
C188  C200  1.417244 A    
O21   C9    1.273072 A    
O23   C11   1.272408 A    
O39   C17   1.272402 A    
Zn11  O22   1.946986 S    
C209  F25   1.359080 S    
C26   C71   1.401723 A    
Zn7   O49   1.947022 S    
N36   O124  1.301481 A    
C100  N24   1.439925 S    
Zn9   O4    1.957502 S    
O15   C7    1.286356 A    
C143  C159  1.413264 A    
Zn10  O3    1.957504 S    
C54   C69   1.401715 A    
O25   C13   1.272179 A    
C30   H6    1.083173 S    
C208  F24   1.358677 S    
C183  C195  1.417236 A    
Zn9   O8    1.904221 S    
C118  F10   1.358910 S    
C99   N23   1.440440 S    
C166  C201  1.398637 A    
N26   O104  1.301252 A    
O18   C6    1.288286 A    
C160  N32   1.435349 S    
C212  F28   1.358717 S    
C97   C125  1.411928 A    
Zn9   O31   1.946389 S    
C86   N6    1.366666 A    
Zn10  O32   1.946388 S    
N28   O107  1.301517 A    
O10   C2    1.283886 A    
C95   C123  1.413961 A    
Zn11  O29   1.946317 S    
N16   O84   1.301316 A    
C90   C106  1.404013 A    
C39   C58   1.401540 A    
C99   C127  1.414346 A    
C102  C126  1.412060 A    
C35   C62   1.401685 A    
O41   C23   1.272181 A    
C33   C64   1.401505 A    
O28   C16   1.272839 A    
N11   O74   1.301311 A    
C185  C190  1.420994 A    
C147  C163  1.413236 A    
N20   O91   1.301162 A    
C186  C198  1.414065 A    
C188  C212  1.415205 A    
C47   H23   1.083176 S    
C182  C206  1.415338 A    
C151  C167  1.413615 A    
C96   C124  1.412273 A    
C75   O55   1.348540 S    
C116  C176  1.409506 A    
C56   C71   1.401531 A    
C177  C182  1.424716 A    
C139  C155  1.413649 A    
C109  C169  1.407713 A    
C134  C146  1.413476 A    
C168  N40   1.435716 S    
C29   C36   1.386207 A    
O49   C15   1.273065 A    
C27   H3    1.083172 S    
C31   C34   1.386192 A    
O13   C5    1.283693 A    
C153  C214  1.399568 A    
C22   C72   1.455107 S    
N27   O105  1.301359 A    
N17   O86   1.301282 A    
C73   N1    1.366187 A    
C51   C68   1.401681 A    
N23   O97   1.301167 A    
C52   C67   1.401689 A    
N5    C125  1.441137 S    
C214  F30   1.359082 S    
C186  C189  1.421055 A    
C79   C143  1.411345 A    
Zn8   O50   1.947021 S    
C44   C59   1.401535 A    
Zn2   O2    1.957504 S    
C161  N33   1.435291 S    
C82   O62   1.348745 S    
C133  C194  1.421884 A    
N39   O130  1.301391 A    
N29   O109  1.301480 A    
C135  C196  1.421841 A    
N21   O94   1.301279 A    
C178  C181  1.423881 A    
O19   C7    1.286325 A    
Zn8   O4    1.956387 S    
C144  C160  1.413624 A    
C91   C107  1.402225 A    
C94   C122  1.412536 A    
C145  C161  1.413606 A    
C180  C196  1.417216 A    
C104  N20   1.440372 S    
N25   O102  1.301248 A    
C103  C119  1.402238 A    
Zn8   O41   1.946287 S    
C76   O56   1.348747 S    
C204  F20   1.358614 S    
C83   N7    1.366396 A    
C138  C154  1.417220 A    
C48   C49   1.386195 A    
N38   O128  1.301600 A    
C158  N30   1.435202 S    
C47   C64   1.401678 A    
C42   H18   1.083166 S    
C35   H11   1.083173 S    
C86   C150  1.412715 A    
C108  F8    1.358640 S    
C190  C198  1.414011 A    
O20   C8    1.285242 A    
C191  C199  1.417176 A    
C45   C62   1.401508 A    
C97   C113  1.402264 A    
C157  N29   1.435153 S    
C15   C57   1.455132 S    
O24   C12   1.272400 A    
C103  N19   1.439969 S    
C136  C148  1.413792 A    
C185  C197  1.414059 A    
Zn7   O42   1.946286 S    
C73   C137  1.411715 A    
C30   C67   1.401514 A    
C31   C66   1.401676 A    
Zn6   O52   1.946874 S    
N40   O131  1.301503 A    
C202  F18   1.358701 S    
C187  C192  1.424730 A    
C54   H30   1.083164 S    
C41   C58   1.401709 A    
Zn1   O47   1.946389 S    
C102  N18   1.439979 S    
Zn2   O48   1.946388 S    
C84   N8    1.366648 A    
N24   O100  1.301255 A    
C26   H2    1.083167 S    
O8    C4    1.287953 A    
C51   H27   1.083175 S    
Zn6   O2    1.955301 S    
C52   H28   1.083168 S    
C181  C193  1.417215 A    
C157  C210  1.399610 A    
C154  C213  1.399673 A    
C46   H22   1.083173 S    
C159  C212  1.398329 A    
N31   O113  1.301518 A    
C40   H16   1.083170 S    
C207  F23   1.358620 S    
C206  F22   1.358613 S    
Zn11  O10   1.904772 S    
C129  C141  1.416045 A    
C98   C114  1.407043 A    
Zn1   O16   1.904221 S    
C83   O63   1.348710 S    
C163  N35   1.435639 S    
Zn2   O15   1.904221 S    
O29   C17   1.272179 A    
C34   H10   1.083171 S    
C107  C171  1.409799 A    
C85   C149  1.411419 A    
C108  C172  1.407554 A    
C187  C211  1.415388 A    
C90   C122  1.412569 A    
C93   C121  1.413147 A    
C105  C169  1.407675 A    
C114  C174  1.408129 A    
C89   C105  1.404179 A    
C25   H1    1.083173 S    
C74   O54   1.348662 S    
C56   H32   1.083167 S    
C92   N16   1.440497 S    
N13   O77   1.301189 A    
O47   C9    1.272847 A    
C10   C60   1.455083 S    
C118  C174  1.408974 A    
Zn9   O28   1.946418 S    
C167  N39   1.435350 S    
C82   C146  1.411408 A    
Zn10  O27   1.946420 S    
C96   C112  1.402250 A    
C46   C51   1.386207 A    
C131  C139  1.413845 A    
C184  C208  1.415169 A    
C41   C56   1.386248 A    
C203  F19   1.358676 S    
Zn10  O7    1.904221 S    
C148  C164  1.413644 A    
C98   N22   1.440435 S    
C133  C149  1.413479 A    
C31   H7    1.083175 S    
Zn12  O9    1.904772 S    
Zn4   O46   1.946319 S    
C93   N9    1.440184 S    
C44   H20   1.083166 S    
C3    C174  1.485805 S    
C29   H5    1.083173 S    
C106  C170  1.409745 A    
N37   O125  1.301511 A    
N32   O116  1.301537 A    
C129  C198  1.417551 A    
C73   O53   1.348621 S    
C140  C156  1.413261 A    
O6    C2    1.287602 A    
C189  C213  1.411163 A    
C38   H14   1.083164 S    
C111  C171  1.408921 A    
O36   C24   1.272392 A    
O50   C16   1.273061 A    
N35   O121  1.301491 A    
C152  C168  1.413259 A    
C24   C66   1.454922 S    
C92   C108  1.407110 A    
N7    C127  1.441031 S    
C80   N4    1.366664 A    
C186  C210  1.411101 A    
