data_mof_unit_66142.cif
_audit_creation_date              2012-12-11T15:39:31-0500
_audit_creation_method            fapswitch 2.2
_symmetry_space_group_name_H-M    P1
_symmetry_Int_Tables_number       1
_space_group_crystal_system       triclinic
_cell_length_a                    6.944663
_cell_length_b                    15.115929
_cell_length_c                    16.608926
_cell_angle_alpha                 95.599652
_cell_angle_beta                  90.006538
_cell_angle_gamma                 90.105324
_cell_volume                      1735.1994426

loop_
_atom_site_label
_atom_site_type_symbol
_atom_type_description
_atom_site_fract_x
_atom_site_fract_y
_atom_site_fract_z
_atom_type_partial_charge
O1    O     O_R   0.633330 0.174290 0.828230 -0.539959
O2    O     O_R   0.366670 0.825710 0.171770 -0.539959
O3    O     O_R   0.301450 0.154140 0.662030 -0.529780
O4    O     O_R   0.698550 0.845860 0.337970 -0.529780
O5    O     O_R   0.133140 0.325730 0.671770 -0.537781
O6    O     O_R   0.866860 0.674270 0.328230 -0.537781
C1    C     C_R   0.470748 0.131583 0.633316 0.737813
C2    C     C_R   0.529252 0.868417 0.366684 0.737813
O7    O     O_R   0.303490 0.163670 0.827000 -0.537441
O8    O     O_R   0.696510 0.836330 0.173000 -0.537441
O9    O     O_R   0.135190 0.335320 0.837920 -0.523611
O10   O     O_R   0.864810 0.664680 0.162080 -0.523611
C3    C     C_R   0.472375 0.143329 0.854093 0.726529
C4    C     C_R   0.527625 0.856671 0.145907 0.726529
O11   O     O_R   0.631280 0.164690 0.662080 -0.522255
O12   O     O_R   0.368720 0.835310 0.337920 -0.522255
O13   O     O_3   0.467420 0.306310 0.753380 -0.370494
O14   O     O_3   0.532580 0.693690 0.246620 -0.370493
V1    V     V_3+5 0.191790 0.239560 0.749370 1.566803
V2    V     V_3+5 0.808210 0.760440 0.250630 1.566803
O15   O     O_R   0.805590 0.345870 0.837970 -0.543877
O16   O     O_R   0.194410 0.654130 0.162030 -0.543877
C5    C     C_R   0.974513 0.368382 0.866563 0.844791
C6    C     C_R   0.025487 0.631618 0.133437 0.844791
O17   O     O_R   0.803560 0.336340 0.672990 -0.540329
O18   O     O_R   0.196440 0.663660 0.327010 -0.540329
C7    C     C_R   0.972477 0.356695 0.645909 0.737376
C8    C     C_R   0.027523 0.643305 0.354091 0.737376
V3    V     V_3+5 0.692030 0.260450 0.750630 1.546195
V4    V     V_3+5 0.307970 0.739550 0.249370 1.546195
O19   O     O_3   0.966260 0.193700 0.746610 -0.365736
O20   O     O_3   0.033740 0.806300 0.253390 -0.365736
C9    C     C_1   0.982998 0.418691 0.583498 -0.158042
C10   C     C_1   0.017002 0.581309 0.416502 -0.158042
C11   C     C_1   0.993488 0.469931 0.530993 0.033632
C12   C     C_1   0.006512 0.530069 0.469007 0.033632
C13   C     C_3   0.924967 0.575758 0.980473 0.594256
C14   C     C_3   0.075033 0.424242 0.019526 0.594256
C15   C     C_3   0.095633 0.526782 0.937467 0.590039
C16   C     C_3   0.904367 0.473218 0.062533 0.590039
C17   C     C_3   0.985331 0.438349 0.937000 -0.383030
C18   C     C_3   0.014668 0.561651 0.063000 -0.383030
C19   C     C_3   0.811740 0.487287 0.979884 -0.393466
C20   C     C_3   0.188260 0.512713 0.020116 -0.393466
H1    H     H_    0.657611 0.477368 0.963710 0.204712
H2    H     H_    0.342389 0.522632 0.036290 0.204712
C21   C     C_3   0.673391 0.028989 0.522012 0.772373
C22   C     C_3   0.326609 0.971011 0.477988 0.772373
C23   C     C_3   0.606814 0.931499 0.521359 -0.260099
C24   C     C_3   0.393186 0.068501 0.478640 -0.260099
H3    H     H_    0.697275 0.875891 0.538613 0.170972
H4    H     H_    0.302725 0.124108 0.461387 0.170972
C25   C     C_3   0.515993 0.938516 0.437325 -0.206454
C26   C     C_3   0.484007 0.061484 0.562675 -0.206454
C27   C     C_3   0.585188 0.035682 0.437568 -0.284110
C28   C     C_3   0.414812 0.964318 0.562432 -0.284110
H5    H     H_    0.657861 0.064753 0.386743 0.167388
H6    H     H_    0.342139 0.935247 0.613257 0.167388
C29   C     C_1   0.482660 0.081315 0.916510 -0.141810
C30   C     C_1   0.517340 0.918684 0.083490 -0.141810
C31   C     C_1   0.493317 0.030072 0.969010 0.049838
C32   C     C_1   0.506683 0.969928 0.030990 0.049838
F1    F     F_    0.192627 0.555226 0.872003 -0.627134
F2    F     F_    0.807373 0.444773 0.127997 -0.627134
F3    F     F_    0.849446 0.655036 0.959822 -0.628759
F4    F     F_    0.150554 0.344964 0.040178 -0.628759
F5    F     F_    0.855152 0.059292 0.545001 -0.648548
F6    F     F_    0.144848 0.940707 0.454999 -0.648548

loop_
_geom_bond_atom_site_label_1
_geom_bond_atom_site_label_2
_ccdc_geom_bond_type
V4    O20   S    
O13   V3    S    
C11   C12   S    
O4    C2    A    
V1    O19   S    
C21   C23   S    
C7    C9    S    
O9    V1    S    
C24   C26   S    
O3    C1    A    
O12   V4    S    
C6    C18   S    
C30   C32   T    
C13   C18   S    
O7    C3    A    
C9    C11   T    
O5    C7    A    
O7    V1    S    
C16   C19   S    
O6    C8    A    
C14   F4    S    
O8    V2    S    
C23   H3    S    
C13   F3    S    
C24   H4    S    
O3    V1    S    
O14   V4    S    
C10   C12   T    
C16   C18   S    
C8    C10   S    
C2    O12   A    
C17   C19   S    
C18   C20   S    
C21   F5    S    
C20   H2    S    
O11   V3    S    
C25   C27   S    
O17   V3    S    
C22   C25   S    
C26   C28   S    
C29   C31   T    
C14   C17   S    
C15   C17   S    
O8    C4    A    
C1    O11   A    
O15   V3    S    
C13   C19   S    
C14   C20   S    
O10   V2    S    
O1    V3    S    
C22   F6    S    
C22   C24   S    
C19   H1    S    
C21   C26   S    
C3    C29   S    
O18   V4    S    
C27   H5    S    
O16   C6    A    
O1    C3    A    
C15   F1    S    
C21   C27   S    
V2    O20   S    
C4    C30   S    
C22   C28   S    
O16   V4    S    
C16   F2    S    
C2    C25   S    
C15   C20   S    
O5    V1    S    
O17   C7    A    
C23   C28   S    
O6    V2    S    
O10   C6    A    
O18   C8    A    
C24   C27   S    
C5    C17   S    
O2    V4    S    
O15   C5    A    
V3    O19   S    
C14   C16   S    
C23   C25   S    
O9    C5    A    
O13   V1    S    
C28   H6    S    
O14   V2    S    
C31   C32   S    
O2    C4    A    
O4    V2    S    
C13   C15   S    
C1    C26   S    
