data_mof_unit_17031.cif
_audit_creation_date              2013-03-05T15:51:47-0500
_audit_creation_method            fapswitch 2.2
_symmetry_space_group_name_H-M    P1
_symmetry_Int_Tables_number       1
_space_group_crystal_system       triclinic
_cell_length_a                    7.207632
_cell_length_b                    12.015012
_cell_length_c                    29.069894
_cell_angle_alpha                 89.998703
_cell_angle_beta                  90.000507
_cell_angle_gamma                 90.000906
_cell_volume                      2517.44656849

loop_
_atom_site_label
_atom_site_type_symbol
_atom_site_description
_atom_site_fract_x
_atom_site_fract_y
_atom_site_fract_z
_atom_type_partial_charge
O1    O     O_R   0.647170 0.849180 0.201220 -0.579219
O2    O     O_R   0.352830 0.150820 0.798780 -0.584992
O3    O     O_R   0.352830 0.150820 0.701220 -0.579259
O4    O     O_R   0.647170 0.849180 0.298780 -0.584895
O5    O     O_R   0.147170 0.650820 0.298780 -0.584962
O6    O     O_R   0.852830 0.349180 0.701220 -0.579259
O7    O     O_R   0.852830 0.349180 0.798780 -0.584947
O8    O     O_R   0.147170 0.650820 0.201220 -0.579256
O9    O     O_R   0.317430 0.862210 0.298450 -0.574664
O10   O     O_R   0.682570 0.137790 0.701550 -0.580441
O11   O     O_R   0.682570 0.137790 0.798450 -0.574677
O12   O     O_R   0.317430 0.862210 0.201550 -0.580573
O13   O     O_R   0.817430 0.637790 0.201550 -0.580465
O14   O     O_R   0.182570 0.362210 0.798450 -0.574688
O15   O     O_R   0.182570 0.362210 0.701550 -0.580476
O16   O     O_R   0.817430 0.637790 0.298450 -0.574688
C1    C     C_R   0.485634 0.889982 0.313012 1.010377
C2    C     C_R   0.513688 0.110177 0.686947 1.011198
C3    C     C_R   0.514366 0.110005 0.813009 1.010550
C4    C     C_R   0.486308 0.889813 0.186941 1.011228
C5    C     C_R   0.986308 0.610185 0.186943 1.011336
C6    C     C_R   0.014370 0.389990 0.813010 1.010601
C7    C     C_R   0.013691 0.389817 0.686944 1.011322
C8    C     C_R   0.985632 0.610009 0.313009 1.010600
O17   O     O_3   0.480630 0.680630 0.250000 -0.266726
O18   O     O_3   0.519370 0.319370 0.750000 -0.266724
O19   O     O_3   0.980630 0.819370 0.250000 -0.266723
O20   O     O_3   0.019370 0.180630 0.750000 -0.266709
V1    V     V_3+5 0.205800 0.762860 0.250000 1.276348
V2    V     V_3+5 0.794200 0.237140 0.750000 1.276395
V3    V     V_3+5 0.705800 0.737140 0.250000 1.276394
V4    V     V_3+5 0.294200 0.262860 0.750000 1.276371
C9    C     C_R   0.992134 0.529383 0.351356 -0.252795
C10   C     C_R   0.003683 0.470213 0.648577 -0.253061
C11   C     C_R   0.007868 0.470616 0.851356 -0.252812
C12   C     C_R   0.996315 0.529791 0.148576 -0.253086
C13   C     C_R   0.496314 0.970217 0.148575 -0.253047
C14   C     C_R   0.507850 0.029372 0.851354 -0.252792
C15   C     C_R   0.503682 0.029786 0.648581 -0.253055
C16   C     C_R   0.492168 0.970567 0.351370 -0.252804
C17   C     C_R   0.988545 0.342174 0.382569 -0.290528
C18   C     C_R   0.964768 0.656032 0.617448 -0.290058
C19   C     C_R   0.011452 0.657824 0.882568 -0.290417
C20   C     C_R   0.035253 0.343975 0.117449 -0.289939
C21   C     C_R   0.535311 0.156023 0.117437 -0.289935
C22   C     C_R   0.511391 0.842164 0.882572 -0.290422
C23   C     C_R   0.464735 0.843961 0.617466 -0.289948
C24   C     C_R   0.489031 0.157786 0.382569 -0.290382
C25   C     C_R   0.964697 0.413630 0.344889 0.361728
C26   C     C_R   0.955727 0.583443 0.655155 0.364027
C27   C     C_R   0.035336 0.586367 0.844890 0.362034
C28   C     C_R   0.044310 0.416566 0.155153 0.364316
C29   C     C_R   0.544381 0.083441 0.155147 0.363907
C30   C     C_R   0.535310 0.913616 0.844891 0.361872
C31   C     C_R   0.455724 0.916563 0.655165 0.364179
C32   C     C_R   0.465038 0.086330 0.344899 0.362053
C33   C     C_R   0.024317 0.570913 0.395821 -0.297662
C34   C     C_R   0.041302 0.430971 0.604027 -0.298173
C35   C     C_R   0.975649 0.429086 0.895821 -0.297696
C36   C     C_R   0.958657 0.569030 0.104026 -0.298203
C37   C     C_R   0.458610 0.930980 0.104027 -0.298146
C38   C     C_R   0.475615 0.070903 0.895817 -0.297672
C39   C     C_R   0.541353 0.069013 0.604032 -0.298100
C40   C     C_R   0.524243 0.929015 0.395836 -0.297613
C41   C     C_R   0.027950 0.499881 0.434769 0.126468
C42   C     C_R   0.030483 0.501797 0.565096 0.125930
C43   C     C_R   0.972004 0.500118 0.934767 0.126465
C44   C     C_R   0.969472 0.498203 0.065095 0.125933
C45   C     C_R   0.469432 0.001799 0.065093 0.125923
C46   C     C_R   0.471948 0.999874 0.934766 0.126462
C47   C     C_R   0.530557 0.998173 0.565105 0.125897
C48   C     C_R   0.528062 0.000058 0.434779 0.126444
C49   C     C_R   0.019405 0.383809 0.426881 0.115353
C50   C     C_R   0.001115 0.616627 0.573040 0.113783
C51   C     C_R   0.980553 0.616189 0.926878 0.115284
C52   C     C_R   0.998865 0.383376 0.073041 0.113718
C53   C     C_R   0.498869 0.116622 0.073033 0.113748
C54   C     C_R   0.480478 0.883803 0.926880 0.115286
C55   C     C_R   0.501103 0.883351 0.573055 0.113747
C56   C     C_R   0.519772 0.116138 0.426883 0.115295
C57   C     C_R   0.033274 0.539921 0.481195 0.063972
C58   C     C_R   0.041223 0.462301 0.518649 0.064660
C59   C     C_R   0.966670 0.460079 0.981195 0.063987
C60   C     C_R   0.958712 0.537698 0.018647 0.064668
C61   C     C_R   0.458645 0.962301 0.018647 0.064653
C62   C     C_R   0.466617 0.039917 0.981191 0.063993
C63   C     C_R   0.541392 0.037653 0.518656 0.064671
C64   C     C_R   0.533337 0.960027 0.481207 0.063992
C65   C     C_R   0.047492 0.347466 0.508371 -0.215146
C66   C     C_R   0.018705 0.654478 0.491481 -0.215695
C67   C     C_R   0.952423 0.652531 0.008367 -0.215145
C68   C     C_R   0.981249 0.345522 0.991483 -0.215685
C69   C     C_R   0.481221 0.154473 0.991475 -0.215683
C70   C     C_R   0.452322 0.847468 0.008370 -0.215148
C71   C     C_R   0.518651 0.845477 0.491500 -0.215674
C72   C     C_R   0.547898 0.152480 0.508371 -0.215144
C73   C     C_R   0.034639 0.309393 0.463460 -0.193903
C74   C     C_R   0.000877 0.691535 0.536435 -0.193159
C75   C     C_R   0.965292 0.690604 0.963456 -0.193898
C76   C     C_R   0.999094 0.308467 0.036438 -0.193160
C77   C     C_R   0.499095 0.191529 0.036428 -0.193184
C78   C     C_R   0.465188 0.809392 0.963460 -0.193907
C79   C     C_R   0.500807 0.808434 0.536456 -0.193150
C80   C     C_R   0.535150 0.190551 0.463458 -0.193917
H1    H     H_    0.031705 0.220323 0.457425 0.146234
H2    H     H_    0.981666 0.779865 0.542495 0.146643
H3    H     H_    0.968219 0.779674 0.957419 0.146224
H4    H     H_    0.018319 0.220138 0.042500 0.146640
H5    H     H_    0.518347 0.279857 0.042486 0.146640
H6    H     H_    0.468095 0.720321 0.957426 0.146222
H7    H     H_    0.481529 0.720111 0.542521 0.146644
H8    H     H_    0.532422 0.279622 0.457416 0.146221
N1    N     N_R   0.895285 0.626520 0.698963 0.259975
O21   O     O_R   0.808027 0.563304 0.728124 -0.354237
O22   O     O_R   0.898295 0.733286 0.706538 -0.267276
N2    N     N_R   0.911015 0.366584 0.301225 0.260832
O23   O     O_R   0.812274 0.423572 0.272130 -0.343797
O24   O     O_R   0.932831 0.260565 0.293745 -0.267378
N3    N     N_R   0.104809 0.373494 0.198959 0.259947
O25   O     O_R   0.192083 0.436718 0.228114 -0.354452
O26   O     O_R   0.101847 0.266728 0.206535 -0.267432
N4    N     N_R   0.089090 0.633413 0.801229 0.260796
O27   O     O_R   0.187841 0.576421 0.772141 -0.344010
O28   O     O_R   0.067334 0.739436 0.793749 -0.267616
N5    N     N_R   0.589094 0.866559 0.801234 0.260847
O29   O     O_R   0.687507 0.923638 0.772100 -0.344131
O30   O     O_R   0.567746 0.760481 0.793800 -0.267661
N6    N     N_R   0.604967 0.126526 0.198946 0.260054
O31   O     O_R   0.691511 0.063177 0.228192 -0.354567
O32   O     O_R   0.602871 0.233343 0.206435 -0.267487
N7    N     N_R   0.411505 0.133377 0.301230 0.260510
O33   O     O_R   0.434714 0.239258 0.293634 -0.267260
O34   O     O_R   0.311331 0.076721 0.272313 -0.343507
N8    N     N_R   0.395322 0.873506 0.698977 0.259834
O35   O     O_R   0.398945 0.766767 0.706614 -0.267162
O36   O     O_R   0.307409 0.936632 0.728054 -0.354102
H9    H     H_    0.974254 0.253092 0.377773 0.174900
H10   H     H_    0.934385 0.743627 0.622320 0.175154
H11   H     H_    0.025751 0.746905 0.877771 0.174858
H12   H     H_    0.065659 0.256383 0.122321 0.175125
H13   H     H_    0.565739 0.243615 0.122298 0.175192
H14   H     H_    0.525668 0.753082 0.877781 0.174896
H15   H     H_    0.434302 0.756373 0.622346 0.175096
H16   H     H_    0.474926 0.246875 0.377758 0.174777
H17   H     H_    0.076793 0.344143 0.600952 0.123513
H18   H     H_    0.043990 0.659546 0.398834 0.123493
H19   H     H_    0.923145 0.655854 0.100950 0.123512
H20   H     H_    0.955960 0.340455 0.898835 0.123495
H21   H     H_    0.455931 0.159534 0.898828 0.123490
H22   H     H_    0.423063 0.844160 0.100955 0.123502
H23   H     H_    0.543700 0.840366 0.398850 0.123488
H24   H     H_    0.576846 0.155839 0.600956 0.123502
H25   H     H_    0.052847 0.283907 0.534435 0.137020
H26   H     H_    0.011019 0.717944 0.465413 0.137221
H27   H     H_    0.947047 0.716090 0.034430 0.137018
H28   H     H_    0.988936 0.282056 0.965416 0.137212
H29   H     H_    0.488914 0.217937 0.965406 0.137211
H30   H     H_    0.446924 0.783912 0.034436 0.137021
H31   H     H_    0.510922 0.782003 0.465437 0.137215
H32   H     H_    0.553409 0.216046 0.534429 0.137021

loop_
_geom_bond_atom_site_label_1
_geom_bond_atom_site_label_2
_geom_bond_distance
_ccdc_geom_bond_type
O17   V3    1.759235 S    
C63   C64   1.434719 A    
C43   C59   1.433317 A    
C38   H21   1.077887 S    
O12   V1    2.013917 S    
C46   C54   1.414656 A    
O16   C8    1.326765 A    
C53   C77   1.393671 A    
C23   C55   1.399776 A    
C19   C27   1.402300 A    
N6    O31   1.300449 A    
C47   C55   1.414832 A    
C57   C58   1.434718 A    
C34   H17   1.077854 S    
O15   V4    2.013923 S    
C22   H14   1.084252 S    
C5    C12   1.477242 S    
C61   C62   1.434730 A    
O16   V3    2.013921 S    
C49   C73   1.393622 A    
C59   C68   1.412424 A    
O11   C3    1.326783 A    
C58   C65   1.412441 A    
O12   C4    1.331138 A    
C56   C80   1.393601 A    
C71   H31   1.076465 S    
O8    V1    2.000401 S    
C79   H7    1.084685 S    
C3    C14   1.477599 S    
C76   H4    1.084682 S    
O6    C7    1.324716 A    
C9    C25   1.417282 A    
C42   C50   1.414805 A    
C23   H15   1.084296 S    
O1    V3    2.000366 S    
C41   C49   1.414682 A    
N2    O23   1.300248 A    
C38   C46   1.418058 A    
O3    C2    1.324712 A    
O2    V4    2.000364 S    
C20   C52   1.399785 A    
C23   C31   1.402212 A    
C35   C43   1.418069 A    
C45   C53   1.414772 A    
C34   C42   1.418104 A    
C15   C31   1.416587 A    
O11   V2    2.013916 S    
C16   C32   1.417112 A    
C19   H11   1.084256 S    
C36   H19   1.077857 S    
C66   H26   1.076474 S    
C37   H22   1.077856 S    
C17   H9    1.084260 S    
C12   C28   1.416664 A    
O9    V1    2.013943 S    
C13   C29   1.416738 A    
C35   H20   1.077885 S    
C20   C28   1.402267 A    
O15   C7    1.331136 A    
C64   C71   1.412432 A    
C21   C29   1.402311 A    
C70   H30   1.076444 S    
O7    V2    2.000398 S    
C33   H18   1.077887 S    
C21   H13   1.084278 S    
C55   C79   1.393648 A    
C75   H3    1.084668 S    
C17   C25   1.402293 A    
C48   C64   1.433299 A    
C71   C79   1.386535 A    
O5    V1    2.000361 S    
N3    O26   1.301738 A    
C19   C51   1.399641 A    
C30   N5    1.442437 S    
C10   C26   1.416660 A    
C18   C50   1.399785 A    
C40   H23   1.077880 S    
C44   C60   1.433289 A    
C52   C76   1.393667 A    
C50   C74   1.393665 A    
C69   C77   1.386535 A    
C80   H8    1.084676 S    
O18   V4    1.759234 S    
N8    O36   1.300504 A    
C24   H16   1.084272 S    
C12   C36   1.404670 A    
C14   C38   1.404875 A    
C65   C73   1.386484 A    
C1    C16   1.477538 S    
C2    C15   1.477197 S    
C67   H27   1.076444 S    
C6    C11   1.477591 S    
C29   N6    1.442152 S    
N5    O30   1.301846 A    
C42   C58   1.433277 A    
C61   C70   1.412428 A    
O10   V2    2.013946 S    
C65   H25   1.076444 S    
C59   C60   1.434724 A    
C14   C30   1.417331 A    
C7    C10   1.477222 S    
C63   C72   1.412452 A    
C22   C30   1.402334 A    
C51   C75   1.393623 A    
O8    C5    1.324718 A    
O13   C5    1.331144 A    
C68   H28   1.076474 S    
C69   H29   1.076475 S    
C36   C44   1.418116 A    
C18   C26   1.402264 A    
C47   C63   1.433278 A    
C57   C66   1.412430 A    
O9    C1    1.326774 A    
C72   H32   1.076433 S    
C39   C47   1.418118 A    
C72   C80   1.386470 A    
C11   C27   1.417287 A    
N5    O29   1.300280 A    
C78   H6    1.084670 S    
C43   C51   1.414671 A    
O4    C1    1.329322 A    
N4    O28   1.301764 A    
N7    O33   1.301971 A    
C31   N8    1.441955 S    
C45   C61   1.433288 A    
C68   C76   1.386555 A    
C22   C54   1.399640 A    
N1    O21   1.300401 A    
C37   C45   1.418117 A    
C24   C32   1.402207 A    
O1    C4    1.324735 A    
C9    C33   1.404858 A    
O6    V2    2.000362 S    
O2    C3    1.329337 A    
O13   V3    2.013970 S    
C33   C41   1.418060 A    
N7    O34   1.300523 A    
N6    O32   1.301834 A    
C13   C37   1.404691 A    
N3    O25   1.300400 A    
N8    O35   1.301803 A    
C44   C52   1.414801 A    
O7    C6    1.329346 A    
C15   C39   1.404623 A    
C8    C9    1.477570 S    
C74   H2    1.084682 S    
C26   N1    1.442049 S    
O14   C6    1.326769 A    
C62   C69   1.412416 A    
C73   H1    1.084673 S    
C48   C56   1.414725 A    
C4    C13   1.477264 S    
C24   C56   1.399636 A    
O5    C8    1.329337 A    
O19   V1    1.759254 S    
O10   C2    1.331132 A    
C60   C67   1.412434 A    
C16   C40   1.404823 A    
O20   V2    1.759254 S    
N2    O24   1.301788 A    
C40   C48   1.418088 A    
C18   H10   1.084289 S    
O3    V4    2.000415 S    
C39   H24   1.077842 S    
O4    V3    2.000413 S    
C11   C35   1.404870 A    
C17   C49   1.399640 A    
C28   N3    1.442055 S    
C25   N2    1.442377 S    
O14   V4    2.013969 S    
C70   C78   1.386497 A    
C20   H12   1.084288 S    
C10   C34   1.404652 A    
C27   N4    1.442391 S    
C41   C57   1.433309 A    
C21   C53   1.399755 A    
C54   C78   1.393630 A    
C67   C75   1.386489 A    
N4    O27   1.300223 A    
C77   H5    1.084682 S    
C66   C74   1.386553 A    
C32   N7    1.442174 S    
N1    O22   1.301746 A    
C46   C62   1.433310 A    
