data_mof_unit_48562.cif
_audit_creation_date              2012-12-11T14:07:46-0500
_audit_creation_method            fapswitch 2.2
_symmetry_space_group_name_H-M    P1
_symmetry_Int_Tables_number       1
_space_group_crystal_system       triclinic
_cell_length_a                    19.758394
_cell_length_b                    17.113937
_cell_length_c                    15.392051
_cell_angle_alpha                 90.000602
_cell_angle_beta                  53.496049
_cell_angle_gamma                 89.999844
_cell_volume                      4183.64306302

loop_
_atom_site_label
_atom_site_type_symbol
_atom_type_description
_atom_site_fract_x
_atom_site_fract_y
_atom_site_fract_z
_atom_type_partial_charge
C1    C     C_R   0.374630 0.196783 0.995978 -0.105534
C2    C     C_R   0.706076 0.848707 0.989196 0.130625
C3    C     C_R   0.206073 0.651294 0.989199 0.130636
C4    C     C_R   0.206077 0.348708 0.989193 0.130630
C5    C     C_R   0.607978 0.816631 0.696729 -0.158244
C6    C     C_R   0.607967 0.183373 0.696744 -0.158119
C7    C     C_R   0.107966 0.316625 0.696742 -0.158135
C8    C     C_R   0.107971 0.683370 0.696739 -0.158172
C9    C     C_3   0.195989 0.134150 0.515753 -0.457944
C10   C     C_3   0.195972 0.865826 0.515720 -0.457842
C11   C     C_3   0.695882 0.634166 0.515695 -0.457702
C12   C     C_R   0.374631 0.803218 0.995977 -0.105602
C13   C     C_3   0.696029 0.365832 0.515744 -0.457954
C14   C     C_3   0.140925 0.180370 0.621780 -0.335112
C15   C     C_3   0.140868 0.819613 0.621747 -0.335230
C16   C     C_3   0.640748 0.680388 0.621719 -0.335338
C17   C     C_3   0.640957 0.319621 0.621774 -0.335114
C18   C     C_3   0.308741 0.238468 0.447586 -0.395340
C19   C     C_3   0.308759 0.761554 0.447635 -0.395350
C20   C     C_3   0.808733 0.738363 0.447654 -0.395285
C21   C     C_3   0.808767 0.261500 0.447600 -0.395375
C22   C     C_3   0.701407 0.747533 0.408528 -0.417125
C23   C     C_R   0.874637 0.696784 0.995969 -0.105588
C24   C     C_3   0.701353 0.252549 0.408599 -0.417152
C25   C     C_3   0.201316 0.247430 0.408608 -0.417137
C26   C     C_3   0.201394 0.752501 0.408563 -0.417141
C27   C     C_3   0.256349 0.190917 0.421278 0.408983
C28   C     C_3   0.256376 0.809058 0.421271 0.408981
C29   C     C_3   0.756336 0.690919 0.421259 0.408937
C30   C     C_3   0.756386 0.309056 0.421278 0.409006
C31   C     C_3   0.657693 0.769270 0.598282 0.403039
C32   C     C_3   0.657707 0.230724 0.598298 0.402816
C33   C     C_3   0.157691 0.269265 0.598298 0.402826
C34   C     C_R   0.874628 0.303219 0.995981 -0.105532
C35   C     C_3   0.157705 0.730722 0.598292 0.402923
C36   C     C_3   0.750958 0.786817 0.548999 -0.416166
C37   C     C_3   0.750965 0.212986 0.548875 -0.416148
C38   C     C_3   0.250953 0.286985 0.548864 -0.416159
C39   C     C_3   0.250965 0.713067 0.548939 -0.416143
C40   C     C_R   0.354658 0.823417 0.218662 -0.132989
C41   C     C_R   0.354641 0.176568 0.218667 -0.133002
C42   C     C_R   0.854663 0.323412 0.218669 -0.133008
C43   C     C_R   0.854635 0.676561 0.218652 -0.132956
C44   C     C_3   0.640387 0.791505 0.514962 -0.389908
C45   C     C_R   0.664937 0.911737 0.059037 -0.145572
C46   C     C_3   0.640237 0.208665 0.515085 -0.389813
C47   C     C_3   0.140219 0.291330 0.515090 -0.389810
C48   C     C_3   0.140313 0.708584 0.515027 -0.389862
C49   C     C_2   0.278508 0.690024 0.969664 -0.188224
C50   C     C_2   0.278513 0.309978 0.969655 -0.188221
C51   C     C_2   0.778508 0.190024 0.969663 -0.188222
C52   C     C_2   0.778512 0.809977 0.969658 -0.188222
C53   C     C_2   0.808011 0.255085 0.909986 -0.202736
C54   C     C_2   0.808020 0.744919 0.909975 -0.202741
C55   C     C_2   0.308014 0.755083 0.909983 -0.202752
C56   C     C_R   0.664936 0.088263 0.059037 -0.145582
C57   C     C_2   0.308016 0.244916 0.909980 -0.202731
C58   C     C_R   0.364645 0.889561 0.897694 -0.141763
C59   C     C_R   0.364645 0.110438 0.897693 -0.141760
C60   C     C_R   0.864644 0.389562 0.897695 -0.141762
C61   C     C_R   0.864648 0.610439 0.897690 -0.141754
C62   C     C_R   0.365932 0.088028 0.316476 -0.136592
C63   C     C_R   0.365946 0.911957 0.316478 -0.136612
C64   C     C_R   0.865900 0.588012 0.316474 -0.136589
C65   C     C_R   0.865967 0.411943 0.316479 -0.136628
C66   C     C_R   0.346258 0.186153 0.934592 0.142547
C67   C     C_R   0.164937 0.411738 0.059035 -0.145578
C68   C     C_R   0.346258 0.813847 0.934592 0.142567
C69   C     C_R   0.846264 0.686155 0.934584 0.142559
C70   C     C_R   0.846254 0.313848 0.934596 0.142548
C71   C     C_R   0.316874 0.851858 0.321947 -0.004313
C72   C     C_R   0.316847 0.148116 0.321950 -0.004308
C73   C     C_R   0.816888 0.351850 0.321953 -0.004286
C74   C     C_R   0.816828 0.648109 0.321935 -0.004359
C75   C     C_R   0.658077 0.179882 0.958063 -0.125541
C76   C     C_R   0.658078 0.820117 0.958063 -0.125539
C77   C     C_R   0.158076 0.679883 0.958065 -0.125540
C78   C     C_R   0.164936 0.588264 0.059038 -0.145582
C79   C     C_R   0.158078 0.320118 0.958060 -0.125536
C80   C     C_R   0.599820 0.801820 0.790965 0.667172
C81   C     C_R   0.599807 0.198183 0.790981 0.667072
C82   C     C_R   0.099808 0.301816 0.790978 0.667083
C83   C     C_R   0.099812 0.698181 0.790975 0.667117
C84   C     C_R   0.592645 0.104892 0.696152 -0.255592
C85   C     C_R   0.592637 0.895108 0.696155 -0.255619
C86   C     C_R   0.092640 0.604891 0.696155 -0.255608
C87   C     C_R   0.092644 0.395106 0.696152 -0.255595
C88   C     C_R   0.706074 0.151294 0.989197 0.130637
F1    F     F_    0.592954 0.730749 0.834242 -0.758645
F2    F     F_    0.592877 0.269252 0.834301 -0.758605
F3    F     F_    0.092884 0.230748 0.834294 -0.758609
F4    F     F_    0.092914 0.769251 0.834275 -0.758625
H1    H     H_    0.383905 0.251618 0.022207 0.109082
H2    H     H_    0.157463 0.839562 0.675449 0.220212
H3    H     H_    0.657230 0.660371 0.675510 0.220275
H4    H     H_    0.657650 0.339513 0.675396 0.220149
H5    H     H_    0.346546 0.198695 0.460649 0.155720
H6    H     H_    0.346549 0.801354 0.460692 0.155702
H7    H     H_    0.846522 0.698529 0.460672 0.155678
H8    H     H_    0.846566 0.301270 0.460676 0.155723
H9    H     H_    0.764547 0.773305 0.608036 0.156409
H10   H     H_    0.764648 0.226300 0.607868 0.156225
H11   H     H_    0.264639 0.273659 0.607851 0.156239
H12   H     H_    0.383908 0.748382 0.022202 0.109054
H13   H     H_    0.264601 0.726469 0.607956 0.156306
H14   H     H_    0.741373 0.791400 0.344284 0.150332
H15   H     H_    0.741246 0.208629 0.344400 0.150373
H16   H     H_    0.241208 0.291341 0.344397 0.150366
H17   H     H_    0.241322 0.708601 0.344350 0.150358
H18   H     H_    0.665583 0.714741 0.385564 0.158358
H19   H     H_    0.665596 0.285415 0.385590 0.158335
H20   H     H_    0.165543 0.214567 0.385620 0.158334
H21   H     H_    0.165613 0.785333 0.385563 0.158346
H22   H     H_    0.574162 0.777190 0.548086 0.157023
H23   H     H_    0.883918 0.751622 0.022188 0.109078
H24   H     H_    0.574045 0.223206 0.548278 0.157072
H25   H     H_    0.074020 0.276808 0.548294 0.157065
H26   H     H_    0.074108 0.723031 0.548181 0.157055
H27   H     H_    0.650018 0.854836 0.495792 0.148398
H28   H     H_    0.649625 0.145326 0.495968 0.148331
H29   H     H_    0.149624 0.354667 0.495963 0.148331
H30   H     H_    0.149802 0.645248 0.495891 0.148360
H31   H     H_    0.353655 0.277835 0.378994 0.159382
H32   H     H_    0.353687 0.722172 0.379070 0.159388
H33   H     H_    0.853664 0.777761 0.379116 0.159399
H34   H     H_    0.883902 0.248383 0.022211 0.109077
H35   H     H_    0.853685 0.222132 0.379010 0.159382
H36   H     H_    0.337790 0.772567 0.194197 0.090741
H37   H     H_    0.337766 0.227419 0.194212 0.090741
H38   H     H_    0.837791 0.272560 0.194210 0.090741
H39   H     H_    0.837770 0.727407 0.194179 0.090737
H40   H     H_    0.764789 0.849986 0.528281 0.165176
H41   H     H_    0.764680 0.149821 0.528035 0.165264
H42   H     H_    0.264677 0.350148 0.528028 0.165257
H43   H     H_    0.264732 0.649900 0.528154 0.165222
H44   H     H_    0.296723 0.672246 0.020652 0.125665
H45   H     H_    0.573040 0.667233 0.661952 0.165893
H46   H     H_    0.296730 0.327759 0.020640 0.125665
H47   H     H_    0.796724 0.172245 0.020650 0.125664
H48   H     H_    0.796726 0.827756 0.020648 0.125665
H49   H     H_    0.791591 0.271842 0.856773 0.129308
H50   H     H_    0.791601 0.728162 0.856760 0.129328
H51   H     H_    0.291594 0.771840 0.856769 0.129319
H52   H     H_    0.291594 0.228156 0.856769 0.129309
H53   H     H_    0.359989 0.915529 0.837342 0.098932
H54   H     H_    0.359990 0.084470 0.837340 0.098934
H55   H     H_    0.859988 0.415529 0.837343 0.098936
H56   H     H_    0.573250 0.332912 0.662197 0.166093
H57   H     H_    0.859992 0.584469 0.837338 0.098938
H58   H     H_    0.362631 0.061910 0.382492 0.083324
H59   H     H_    0.362642 0.938075 0.382498 0.083321
H60   H     H_    0.862561 0.561880 0.382511 0.083328
H61   H     H_    0.862689 0.438047 0.382487 0.083319
H62   H     H_    0.668272 0.230751 0.910383 0.160864
H63   H     H_    0.668274 0.769246 0.910385 0.160934
H64   H     H_    0.168271 0.730753 0.910388 0.160901
H65   H     H_    0.168275 0.269249 0.910378 0.160869
H66   H     H_    0.587960 0.073134 0.639365 0.129268
H67   H     H_    0.073216 0.167091 0.662204 0.166080
H68   H     H_    0.587901 0.926856 0.639404 0.129289
H69   H     H_    0.087934 0.573137 0.639382 0.129278
H70   H     H_    0.087956 0.426862 0.639366 0.129269
H71   H     H_    0.681692 0.938247 0.107281 0.090713
H72   H     H_    0.681692 0.061756 0.107282 0.090714
H73   H     H_    0.181694 0.438247 0.107279 0.090713
H74   H     H_    0.181691 0.561756 0.107283 0.090714
H75   H     H_    0.231026 0.088895 0.525983 0.153341
H76   H     H_    0.230983 0.911090 0.525984 0.153351
H77   H     H_    0.730864 0.588890 0.525991 0.153362
H78   H     H_    0.073162 0.832845 0.662079 0.166002
H79   H     H_    0.731067 0.411085 0.525973 0.153336
H80   H     H_    0.155388 0.102943 0.499111 0.167938
H81   H     H_    0.155400 0.897020 0.499020 0.167913
H82   H     H_    0.655331 0.602988 0.498945 0.167869
H83   H     H_    0.655434 0.397041 0.499093 0.167946
H84   H     H_    0.157614 0.160472 0.675405 0.220155
N1    N     N_R   0.408680 0.130160 0.995800 -0.048768
N2    N     N_R   0.403730 0.078230 0.935950 -0.043494
N3    N     N_R   0.903730 0.421770 0.935950 -0.043496
N4    N     N_R   0.903730 0.578230 0.935950 -0.043493
N5    N     N_R   0.426630 0.075970 0.212960 -0.037687
N6    N     N_R   0.426630 0.924030 0.212960 -0.037679
N7    N     N_R   0.926630 0.575970 0.212960 -0.037689
N8    N     N_R   0.926630 0.424030 0.212960 -0.037676
N9    N     N_R   0.591320 0.134600 0.004200 -0.045547
N10   N     N_R   0.591320 0.865400 0.004200 -0.045553
N11   N     N_R   0.091320 0.634600 0.004200 -0.045552
N12   N     N_R   0.408680 0.869840 0.995800 -0.048774
N13   N     N_R   0.091320 0.365400 0.004200 -0.045547
N14   N     N_R   0.578320 0.867660 0.846880 -0.096782
N15   N     N_R   0.578320 0.132340 0.846880 -0.096773
N16   N     N_R   0.078320 0.367660 0.846880 -0.096774
N17   N     N_R   0.078320 0.632340 0.846880 -0.096777
N18   N     N_R   0.573370 0.074390 0.787040 -0.061312
N19   N     N_R   0.573370 0.925610 0.787040 -0.061312
N20   N     N_R   0.073370 0.574390 0.787040 -0.061314
N21   N     N_R   0.073370 0.425610 0.787040 -0.061313
N22   N     N_R   0.596270 0.927870 0.064040 -0.046733
N23   N     N_R   0.908680 0.630160 0.995800 -0.048771
N24   N     N_R   0.596270 0.072130 0.064040 -0.046735
N25   N     N_R   0.096270 0.427870 0.064040 -0.046734
N26   N     N_R   0.096270 0.572130 0.064040 -0.046735
N27   N     N_R   0.908680 0.369840 0.995800 -0.048771
N28   N     N_R   0.421680 0.867580 0.153120 -0.034661
N29   N     N_R   0.421680 0.132420 0.153120 -0.034659
N30   N     N_R   0.921680 0.367580 0.153120 -0.034654
N31   N     N_R   0.921680 0.632420 0.153120 -0.034666
N32   N     N_R   0.403730 0.921770 0.935950 -0.043493
Ni1   Ni    Ni4+2 0.500000 0.131190 0.000000 0.255381
Ni2   Ni    Ni4+2 0.500000 0.868810 0.000000 0.255346
Ni3   Ni    Ni4+2 0.000000 0.631190 0.000000 0.255358
Ni4   Ni    Ni4+2 0.000000 0.368810 0.000000 0.255380
Ni5   Ni    Ni4+2 0.488650 0.000000 0.862740 0.193214
Ni6   Ni    Ni4+2 0.988650 0.500000 0.862740 0.193219
Ni7   Ni    Ni4+2 0.511350 0.000000 0.137260 0.203868
Ni8   Ni    Ni4+2 0.011350 0.500000 0.137260 0.203870

loop_
_geom_bond_atom_site_label_1
_geom_bond_atom_site_label_2
_ccdc_geom_bond_type
C47   H25   S    
C6    C32   S    
N32   Ni5   S    
C40   C71   A    
C8    C83   A    
N7    N31   A    
C23   C69   A    
N5    N29   A    
C16   H45   S    
C57   C66   S    
C8    C86   A    
N18   Ni5   S    
C55   C68   S    
C3    C49   S    
C58   H53   S    
C65   C73   A    
C39   H43   S    
C16   C31   S    
C83   F4    S    
C12   C68   A    
N11   N26   A    
C64   H60   S    
N6    N28   A    
C22   C29   S    
C12   H12   S    
C10   C15   S    
C36   H40   S    
C77   H64   S    
C48   H30   S    
C37   H10   S    
C47   H29   S    
C53   C70   S    
C61   C69   A    
C12   N12   A    
C23   N23   A    
N24   Ni7   S    
N8    N30   A    
N16   N21   A    
N1    Ni1   S    
C80   F1    S    
N21   Ni6   S    
N16   Ni4   S    
C81   N15   A    
C65   H61   S    
C25   H20   S    
C86   N20   A    
C64   N7    A    
C1    N1    A    
C10   H76   S    
C7    C87   A    
C40   N28   A    
C84   N18   A    
C22   H18   S    
C25   H16   S    
C14   H84   S    
C18   H5    S    
C60   C70   A    
C21   H35   S    
C54   C69   S    
C25   C47   S    
N23   Ni3   S    
N2    Ni5   S    
C26   C48   S    
C18   H31   S    
C5    C85   A    
C67   H73   S    
C43   C74   A    
C44   H22   S    
C63   N6    A    
N31   Ni3   S    
C7    C33   S    
C75   N9    A    
C24   H19   S    
N12   Ni2   S    
C15   H2    S    
N22   Ni7   S    
C15   C35   S    
C17   H4    S    
C19   H6    S    
C52   C54   D    
C20   C29   S    
C2    C45   A    
C22   C44   S    
C19   H32   S    
C78   H74   S    
C6    C84   A    
C31   C44   S    
C43   N31   A    
C41   N29   A    
C78   N26   A    
C13   C30   S    
C9    H75   S    
C17   H56   S    
C55   H51   S    
C4    C79   A    
N5    Ni7   S    
C86   H69   S    
C21   H8    S    
C84   H66   S    
C85   N19   A    
C76   N10   A    
C48   H26   S    
C29   C74   S    
N8    Ni8   S    
N13   N25   A    
C45   N22   A    
C22   H14   S    
C82   F3    S    
C15   H78   S    
C4    C50   S    
C36   H9    S    
C60   N3    A    
C8    C35   S    
C20   C36   S    
C83   N17   A    
C35   C39   S    
C9    C14   S    
N25   Ni8   S    
C14   C33   S    
C38   H11   S    
C67   N25   A    
N20   Ni6   S    
C11   C16   S    
C18   C38   S    
N29   Ni1   S    
C34   N27   A    
C34   H34   S    
N17   N20   A    
C87   H70   S    
C1    C66   A    
C46   H28   S    
C42   H38   S    
C24   H15   S    
C32   C37   S    
C5    C80   A    
C19   C28   S    
C26   H17   S    
C63   H59   S    
C35   C48   S    
C63   C71   A    
C19   C39   S    
N14   N19   A    
N15   Ni1   S    
C41   C72   A    
C81   F2    S    
C58   C68   A    
C60   H55   S    
C49   H44   S    
N3    N27   A    
C11   H77   S    
N10   Ni2   S    
N26   Ni8   S    
N6    Ni7   S    
C77   N11   A    
N9    Ni1   S    
N27   Ni4   S    
C28   C71   S    
C87   N21   A    
C30   C73   S    
C2    C76   A    
C9    C27   S    
C80   N14   A    
C10   C28   S    
N7    Ni8   S    
C13   H83   S    
C34   C70   A    
N12   N32   A    
C11   H82   S    
C62   H58   S    
C57   H52   S    
C54   H50   S    
C50   C57   D    
C32   C46   S    
C59   N2    A    
C18   C27   S    
C39   H13   S    
N11   Ni3   S    
N13   Ni4   S    
C51   C88   S    
C79   H65   S    
C4    C67   A    
C50   H46   S    
C85   H68   S    
C13   C17   S    
C25   C27   S    
C21   C30   S    
C56   H72   S    
C76   H63   S    
C26   C28   S    
C33   C38   S    
C44   H27   S    
C2    C52   S    
C46   H24   S    
C14   H67   S    
C62   C72   A    
C24   C46   S    
C43   H39   S    
N14   Ni2   S    
N15   N18   A    
C58   N32   A    
C20   H33   S    
C59   C66   A    
N4    N23   A    
C49   C55   D    
C62   N5    A    
C41   H37   S    
C16   H3    S    
C75   H62   S    
C20   H7    S    
C5    C31   S    
C10   H81   S    
C33   C47   S    
N3    Ni6   S    
N4    Ni6   S    
C42   C73   A    
C42   N30   A    
C53   H49   S    
C38   H42   S    
N9    N24   A    
C45   H71   S    
C37   H41   S    
C24   C30   S    
C26   H21   S    
N17   Ni3   S    
C56   C88   A    
C27   C72   S    
C23   H23   S    
C52   H48   S    
C59   H54   S    
N30   Ni4   S    
C75   C88   A    
C13   H79   S    
C7    C82   A    
C21   C37   S    
C11   C29   S    
C61   N4    A    
C1    H1    S    
N1    N2    A    
C79   N13   A    
N28   Ni2   S    
C6    C81   A    
C17   C32   S    
C64   C74   A    
C31   C36   S    
N10   N22   A    
C9    H80   S    
C51   C53   D    
C3    C77   A    
C3    C78   A    
C61   H57   S    
C82   N16   A    
N19   Ni5   S    
C51   H47   S    
C56   N24   A    
C65   N8    A    
C40   H36   S    
