data_mof_unit_44355.cif
_audit_creation_date              2012-12-10T16:52:39-0500
_audit_creation_method            fapswitch 2.2
_symmetry_space_group_name_H-M    P1
_symmetry_Int_Tables_number       1
_space_group_crystal_system       triclinic
_cell_length_a                    7.839516
_cell_length_b                    8.564522
_cell_length_c                    13.700597
_cell_angle_alpha                 93.478858
_cell_angle_beta                  92.338207
_cell_angle_gamma                 94.368234
_cell_volume                      914.565299949

loop_
_atom_site_label
_atom_site_type_symbol
_atom_type_description
_atom_site_fract_x
_atom_site_fract_y
_atom_site_fract_z
_atom_type_partial_charge
Br1   Br    Br    0.193383 0.257638 0.198518 -0.540327
Br2   Br    Br    0.803308 0.735629 0.803974 -0.540292
C1    C     C_R   0.045304 0.794759 0.497558 0.966031
C2    C     C_R   0.937553 0.484575 0.317545 0.904390
C3    C     C_R   0.092281 0.536001 0.788299 -0.133495
C4    C     C_R   0.907115 0.460756 0.211916 -0.134279
C5    C     C_R   0.058242 0.669678 0.945861 -0.217075
C6    C     C_R   0.938560 0.321195 0.055866 -0.216967
C7    C     C_R   0.000280 0.635228 0.848941 0.268251
C8    C     C_R   0.997483 0.358444 0.152382 0.268102
C9    C     C_R   0.233806 0.468350 0.826448 -0.295494
C10   C     C_R   0.765643 0.527684 0.173198 -0.297798
C11   C     C_R   0.304234 0.514828 0.919749 0.106823
C12   C     C_R   0.954691 0.205239 0.502423 0.966557
C13   C     C_R   0.693317 0.477204 0.080940 0.107723
C14   C     C_R   0.211280 0.613999 0.980737 0.107106
C15   C     C_R   0.785483 0.376395 0.020654 0.107202
C16   C     C_R   0.466324 0.469415 0.952564 0.095911
C17   C     C_R   0.530492 0.520998 0.048425 0.095612
C18   C     C_R   0.427630 0.610725 0.109590 -0.160900
C19   C     C_R   0.568349 0.377683 0.891989 -0.161103
C20   C     C_R   0.272314 0.657786 0.075621 -0.180332
C21   C     C_R   0.723504 0.330471 0.926231 -0.180547
C22   C     C_2   0.068780 0.958564 0.496058 -0.352993
C23   C     C_2   0.931209 0.041432 0.503892 -0.353554
C24   C     C_R   0.062372 0.514982 0.682492 0.903913
H1    H     H_    0.199516 0.729218 0.124113 0.160298
H2    H     H_    0.801762 0.989639 0.511441 0.184403
H3    H     H_    0.487304 0.373811 0.427337 0.210933
H4    H     H_    0.512695 0.626191 0.572661 0.210959
H5    H     H_    0.795515 0.257393 0.878269 0.160988
H6    H     H_    0.710782 0.615153 0.219206 0.163389
H7    H     H_    0.290261 0.383831 0.779134 0.163945
H8    H     H_    0.987560 0.745565 0.992761 0.174427
H9    H     H_    0.008370 0.243485 0.009674 0.174465
H10   H     H_    0.461400 0.646105 0.184992 0.154966
H11   H     H_    0.533774 0.339673 0.817101 0.153295
H12   H     H_    0.198225 0.010357 0.488504 0.184749
N1    N     N_2   0.440860 0.456490 0.474790 -0.165656
N2    N     N_2   0.559140 0.543510 0.525210 -0.165433
O1    O     O_R   0.891570 0.738930 0.506190 -0.601431
O2    O     O_R   0.108430 0.261070 0.493810 -0.600957
O3    O     O_R   0.174650 0.711050 0.490030 -0.627993
O4    O     O_R   0.825350 0.288950 0.509970 -0.628071
O5    O     O_R   0.909850 0.521900 0.644940 -0.572673
O6    O     O_R   0.090150 0.478100 0.355060 -0.573477
O7    O     O_R   0.192930 0.494020 0.628780 -0.624801
O8    O     O_R   0.807070 0.505980 0.371220 -0.624464
Zn1   Zn    Zn3+2 0.810990 0.518620 0.510790 0.978020
Zn2   Zn    Zn3+2 0.189010 0.481380 0.489210 0.977654

loop_
_geom_bond_atom_site_label_1
_geom_bond_atom_site_label_2
_ccdc_geom_bond_type
O4    Zn1   S    
C4    C8    A    
C22   H12   S    
O3    Zn2   S    
C3    C7    A    
C3    C24   S    
C16   C19   A    
O6    Zn2   S    
C17   C18   A    
C10   C13   A    
O5    Zn1   S    
C12   O2    A    
H3    N1    S    
H4    N2    S    
C2    O6    A    
C10   H6    S    
C23   H2    S    
C13   C17   A    
C9    C11   A    
C1    O3    A    
C1    C22   S    
C15   C21   A    
C11   C16   A    
O2    Zn2   S    
C24   O7    A    
O1    Zn1   S    
O8    Zn1   S    
C18   C20   A    
C3    C9    A    
O7    Zn2   S    
C20   H1    S    
C19   C21   A    
C12   C23   S    
C4    C10   A    
C5    H8    S    
C2    C4    S    
N2    Zn1   S    
C18   H10   S    
C9    H7    S    
N1    Zn2   S    
C19   H11   S    
C22   C23   D    
C12   O4    A    
C16   C17   A    
C2    O8    A    
C11   C14   A    
N1    N2    D    
C5    C7    A    
C5    C14   A    
C14   C20   A    
C24   O5    A    
C13   C15   A    
Br2   C7    S    
C6    C8    A    
C1    O1    A    
Br1   C8    S    
C6    C15   A    
C6    H9    S    
C21   H5    S    
