data_mof_unit_23706.cif
_audit_creation_date              2012-12-11T21:05:56-0500
_audit_creation_method            fapswitch 2.2
_symmetry_space_group_name_H-M    P1
_symmetry_Int_Tables_number       1
_space_group_crystal_system       triclinic
_cell_length_a                    36.318295
_cell_length_b                    39.863207
_cell_length_c                    8.59499
_cell_angle_alpha                 89.93573
_cell_angle_beta                  93.108233
_cell_angle_gamma                 89.935216
_cell_volume                      12425.1921714

loop_
_atom_site_label
_atom_site_type_symbol
_atom_type_description
_atom_site_fract_x
_atom_site_fract_y
_atom_site_fract_z
_atom_type_partial_charge
Ba1   Ba    Ba6+2 0.000060 0.523150 0.844950 1.646982
Ba2   Ba    Ba6+2 0.000060 0.476850 0.344950 1.639181
Ba3   Ba    Ba6+2 0.500060 0.023150 0.844950 1.646983
Ba4   Ba    Ba6+2 0.500060 0.976850 0.344950 1.639184
C1    C     C_3   0.001245 0.681530 0.452217 -0.304967
C2    C     C_2   0.902675 0.630373 0.269888 -0.119231
C3    C     C_R   0.632182 0.816821 0.690852 0.612705
C4    C     C_2   0.104041 0.624508 0.423835 -0.110114
C5    C     C_2   0.101920 0.373221 0.923015 -0.139598
C6    C     C_2   0.604041 0.124509 0.423834 -0.110115
C7    C     C_2   0.601920 0.873221 0.923014 -0.139604
C8    C     C_3   0.079153 0.595520 0.461729 -0.046969
C9    C     C_3   0.078971 0.403312 0.963006 -0.039378
C10   C     C_3   0.579153 0.095521 0.461729 -0.046970
C11   C     C_3   0.578971 0.903312 0.963006 -0.039378
C12   C     C_1   0.080764 0.576533 0.197206 0.129068
C13   C     C_2   0.406039 0.867281 0.777237 -0.148752
C14   C     C_1   0.082380 0.423772 0.700728 0.076288
C15   C     C_1   0.580764 0.076534 0.197206 0.129068
C16   C     C_1   0.582380 0.923772 0.700728 0.076290
C17   C     C_2   0.106636 0.598999 0.162837 0.075957
C18   C     C_2   0.109808 0.401913 0.673239 0.087457
C19   C     C_2   0.606635 0.098999 0.162836 0.075958
C20   C     C_2   0.609807 0.901913 0.673237 0.087464
C21   C     C_2   0.118705 0.625292 0.282218 0.209233
C22   C     C_2   0.117912 0.373215 0.784596 0.257314
C23   C     C_2   0.618705 0.125292 0.282217 0.209234
C24   C     C_2   0.402674 0.130372 0.269885 -0.119229
C25   C     C_2   0.617911 0.873215 0.784593 0.257318
C26   C     C_R   0.737769 0.282555 0.036782 0.009534
C27   C     C_R   0.736570 0.715441 0.543162 0.008943
C28   C     C_R   0.237769 0.782554 0.036784 0.009534
C29   C     C_R   0.236571 0.215440 0.543191 0.008943
C30   C     C_R   0.775931 0.274799 0.045439 0.050260
C31   C     C_R   0.774679 0.723247 0.550113 0.048475
C32   C     C_R   0.275932 0.774799 0.045440 0.050260
C33   C     C_R   0.274679 0.223247 0.550116 0.048474
C34   C     C_R   0.788002 0.242294 0.094228 0.033513
C35   C     C_3   0.940160 0.388151 0.763061 -0.041731
C36   C     C_R   0.786692 0.755764 0.597777 0.033479
C37   C     C_R   0.288002 0.742293 0.094229 0.033513
C38   C     C_R   0.286693 0.255766 0.597756 0.033479
C39   C     C_3   0.876895 0.506756 0.212387 0.436474
C40   C     C_3   0.874712 0.496286 0.713944 0.435181
C41   C     C_3   0.376895 0.006756 0.212387 0.436475
C42   C     C_3   0.374712 0.996286 0.713945 0.435179
C43   C     C_R   0.727080 0.314671 0.980323 -0.126170
C44   C     C_R   0.726181 0.682166 0.504633 -0.128787
C45   C     C_R   0.227080 0.814671 0.980325 -0.126170
C46   C     C_3   0.938568 0.611800 0.259299 -0.037486
C47   C     C_R   0.226182 0.182163 0.504685 -0.128786
C48   C     C_R   0.851793 0.260415 0.069702 -0.053821
C49   C     C_R   0.849944 0.739398 0.548934 -0.055091
C50   C     C_R   0.351793 0.760415 0.069703 -0.053822
C51   C     C_R   0.349943 0.239400 0.548889 -0.055091
C52   C     C_R   0.272136 0.683712 0.163631 -0.128244
C53   C     C_R   0.271761 0.310680 0.714849 -0.126762
C54   C     C_R   0.772136 0.183713 0.163631 -0.128244
C55   C     C_R   0.771760 0.810675 0.714895 -0.126762
C56   C     C_R   0.246785 0.659214 0.202748 0.170447
C57   C     C_3   0.440160 0.888151 0.763061 -0.041733
C58   C     C_R   0.246479 0.334977 0.757304 0.170559
C59   C     C_R   0.746785 0.159214 0.202749 0.170447
C60   C     C_R   0.746478 0.834972 0.757350 0.170555
C61   C     C_R   0.826420 0.236200 0.108412 -0.103973
C62   C     C_R   0.824615 0.763316 0.591855 -0.104095
C63   C     C_R   0.326420 0.736199 0.108412 -0.103972
C64   C     C_R   0.324615 0.263319 0.591809 -0.104094
C65   C     C_3   0.845894 0.486137 0.279359 -0.265335
C66   C     C_3   0.845826 0.520767 0.771077 -0.261546
C67   C     C_3   0.345894 0.986137 0.279359 -0.265335
C68   C     C_3   0.438568 0.111800 0.259298 -0.037485
C69   C     C_3   0.345826 0.020768 0.771075 -0.261552
C70   C     C_3   0.116324 0.479661 0.112683 0.331797
C71   C     C_3   0.115318 0.521116 0.612494 0.394562
C72   C     C_3   0.616324 0.979661 0.112683 0.331796
C73   C     C_3   0.615317 0.021116 0.612494 0.394561
C74   C     C_3   0.150996 0.465051 0.205146 0.142565
C75   C     C_3   0.148586 0.535410 0.713898 0.122526
C76   C     C_3   0.650996 0.965051 0.205146 0.142560
C77   C     C_3   0.648586 0.035410 0.713898 0.122526
C78   C     C_3   0.000172 0.647425 0.532876 0.492412
C79   C     C_1   0.917177 0.425659 0.968540 -0.030902
C80   C     C_3   0.999729 0.352589 0.036793 0.498292
C81   C     C_3   0.500172 0.147426 0.532875 0.492413
C82   C     C_3   0.499729 0.852588 0.036792 0.498294
C83   C     C_R   0.818186 0.356015 0.914010 0.650124
C84   C     C_R   0.817110 0.641565 0.426712 0.606500
C85   C     C_R   0.318186 0.856015 0.914011 0.650125
C86   C     C_R   0.317110 0.141564 0.426732 0.606498
C87   C     C_1   0.918607 0.574770 0.471894 0.028809
C88   C     C_1   0.417177 0.925659 0.968540 -0.030903
C89   C     C_3   0.000056 0.318080 0.959927 -0.303231
C90   C     C_1   0.418608 0.074771 0.471895 0.028809
C91   C     C_2   0.889483 0.403874 0.993100 0.041031
C92   C     C_2   0.892336 0.597105 0.505181 0.020713
C93   C     C_2   0.389483 0.903874 0.993100 0.041032
C94   C     C_2   0.392336 0.097105 0.505184 0.020713
C95   C     C_2   0.883231 0.373177 0.892651 0.253598
C96   C     C_2   0.881959 0.625363 0.393469 0.204917
C97   C     C_2   0.383231 0.873177 0.892652 0.253598
C98   C     C_2   0.381959 0.125363 0.393469 0.204912
C99   C     C_R   0.802355 0.299698 0.005051 -0.117650
C100  C     C_3   0.501247 0.181530 0.452215 -0.304974
C101  C     C_R   0.801080 0.698440 0.508808 -0.117561
C102  C     C_R   0.302355 0.799698 0.005052 -0.117650
C103  C     C_R   0.301080 0.198440 0.508809 -0.117561
C104  C     C_R   0.790955 0.331960 0.952597 -0.036560
C105  C     C_R   0.789884 0.665507 0.466705 -0.027268
C106  C     C_R   0.290955 0.831960 0.952598 -0.036560
C107  C     C_R   0.289885 0.165506 0.466729 -0.027268
C108  C     C_R   0.752733 0.338974 0.939458 0.165052
C109  C     C_R   0.751921 0.657615 0.467019 0.165196
C110  C     C_R   0.252733 0.838974 0.939460 0.165052
C111  C     C_3   0.500057 0.818079 0.959929 -0.303233
C112  C     C_R   0.251922 0.157612 0.467068 0.165196
C113  C     C_R   0.840319 0.292142 0.016713 -0.021637
C114  C     C_R   0.838788 0.706780 0.509031 -0.021196
C115  C     C_R   0.340319 0.792142 0.016713 -0.021636
C116  C     C_R   0.338788 0.206781 0.509010 -0.021195
C117  C     C_3   0.002363 0.649236 0.022765 0.347062
C118  C     C_3   0.999421 0.348942 0.522166 0.351343
C119  C     C_3   0.502362 0.149236 0.022763 0.347066
C120  C     C_3   0.499419 0.848940 0.522165 0.351347
C121  C     C_2   0.939428 0.420895 0.850516 -0.082396
C122  C     C_R   0.866399 0.316438 0.976882 0.585754
C123  C     C_2   0.940025 0.579514 0.351095 -0.115075
C124  C     C_2   0.439428 0.920895 0.850517 -0.082394
C125  C     C_2   0.440025 0.079514 0.351095 -0.115075
C126  C     C_2   0.059512 0.582665 0.314004 -0.267166
C127  C     C_2   0.060314 0.417485 0.815272 -0.244752
C128  C     C_2   0.559511 0.082665 0.314004 -0.267166
C129  C     C_2   0.560314 0.917485 0.815272 -0.244755
C130  C     C_R   0.211572 0.758039 0.083247 0.015334
C131  C     C_R   0.210169 0.240918 0.576063 0.015240
C132  C     C_R   0.711571 0.258039 0.083244 0.015335
C133  C     C_R   0.864847 0.682533 0.468432 0.580655
C134  C     C_R   0.710169 0.740920 0.576032 0.015240
C135  C     C_R   0.261596 0.717082 0.128558 0.008811
C136  C     C_R   0.260609 0.279820 0.647567 0.009857
C137  C     C_R   0.761596 0.217082 0.128557 0.008811
C138  C     C_R   0.760608 0.779818 0.647588 0.009857
C139  C     C_R   0.223496 0.725172 0.126255 0.044739
C140  C     C_R   0.222308 0.272788 0.631971 0.046742
C141  C     C_R   0.723496 0.225172 0.126254 0.044739
C142  C     C_R   0.722307 0.772788 0.631966 0.046743
C143  C     C_R   0.173658 0.765431 0.089746 -0.127231
C144  C     C_R   0.366399 0.816438 0.976882 0.585755
C145  C     C_R   0.171840 0.235716 0.552784 -0.127512
C146  C     C_R   0.673657 0.265431 0.089742 -0.127231
C147  C     C_R   0.671839 0.735721 0.552726 -0.127513
C148  C     C_R   0.147844 0.741412 0.130736 0.169064
C149  C     C_R   0.145966 0.260151 0.588880 0.170969
C150  C     C_R   0.647843 0.241412 0.130732 0.169064
C151  C     C_R   0.645966 0.760156 0.588820 0.170965
C152  C     C_R   0.159148 0.708302 0.168903 -0.018289
C153  C     C_R   0.157656 0.291482 0.650996 -0.018388
C154  C     C_R   0.659148 0.208302 0.168900 -0.018290
C155  C     C_R   0.364846 0.182534 0.468412 0.580654
C156  C     C_R   0.657656 0.791485 0.650963 -0.018388
C157  C     C_R   0.197165 0.700198 0.167271 -0.150376
C158  C     C_R   0.196019 0.297821 0.672404 -0.150670
C159  C     C_R   0.697165 0.200198 0.167270 -0.150376
C160  C     C_R   0.696018 0.797821 0.672398 -0.150668
C161  C     C_R   0.208916 0.667162 0.207034 -0.017279
C162  C     C_R   0.208166 0.329162 0.734244 -0.024014
C163  C     C_R   0.708916 0.167162 0.207034 -0.017280
C164  C     C_R   0.708165 0.829159 0.734265 -0.024014
C165  C     C_3   0.011902 0.684962 0.977844 -0.331786
C166  C     C_2   0.906039 0.367281 0.777236 -0.148752
C167  C     C_3   0.006553 0.312882 0.474652 -0.328297
C168  C     C_3   0.511901 0.184962 0.977842 -0.331787
C169  C     C_3   0.506549 0.812880 0.474649 -0.328296
C170  C     C_R   0.182409 0.642964 0.248529 0.596837
C171  C     C_R   0.181636 0.353664 0.772063 0.637314
C172  C     C_R   0.682409 0.142964 0.248530 0.596838
C173  C     C_R   0.681635 0.853662 0.772083 0.637310
C174  C     C_R   0.133607 0.683054 0.208965 0.603051
C175  C     C_R   0.132183 0.316819 0.690885 0.612697
C176  C     C_R   0.633606 0.183054 0.208963 0.603051
H1    H     H_    0.091387 0.470633 0.168493 0.071069
H2    H     H_    0.108433 0.353824 0.008967 0.096410
H3    H     H_    0.348239 0.093548 0.637432 0.188085
H4    H     H_    0.723721 0.381577 0.970085 0.176187
H5    H     H_    0.721781 0.366882 0.785190 0.173537
H6    H     H_    0.725233 0.615290 0.525216 0.172601
H7    H     H_    0.719717 0.626163 0.335016 0.175404
H8    H     H_    0.223721 0.881576 0.970087 0.176188
H9    H     H_    0.221782 0.866882 0.785192 0.173537
H10   H     H_    0.225239 0.115287 0.525304 0.172601
H11   H     H_    0.219716 0.126156 0.335099 0.175405
H12   H     H_    0.107960 0.771139 0.211871 0.171851
H13   H     H_    0.612629 0.142548 0.513100 0.093108
H14   H     H_    0.101310 0.759979 0.022473 0.170940
H15   H     H_    0.101425 0.231222 0.624050 0.170796
H16   H     H_    0.102882 0.247241 0.442028 0.171755
H17   H     H_    0.607959 0.271139 0.211865 0.171851
H18   H     H_    0.601310 0.259979 0.022467 0.170940
H19   H     H_    0.601422 0.731228 0.623944 0.170793
H20   H     H_    0.602886 0.747252 0.441935 0.171758
H21   H     H_    0.698589 0.321871 0.962992 0.064849
H22   H     H_    0.698002 0.673857 0.506273 0.065565
H23   H     H_    0.198589 0.821871 0.962994 0.064849
H24   H     H_    0.608433 0.853823 0.008964 0.096407
H25   H     H_    0.198004 0.173852 0.506345 0.065565
H26   H     H_    0.902575 0.344857 0.706348 0.103885
H27   H     H_    0.896782 0.651409 0.192054 0.103183
H28   H     H_    0.402576 0.844857 0.706348 0.103884
H29   H     H_    0.396781 0.151407 0.192049 0.103189
H30   H     H_    0.880831 0.254089 0.082603 0.121492
H31   H     H_    0.878648 0.746718 0.547182 0.121985
H32   H     H_    0.380831 0.754089 0.082603 0.121492
H33   H     H_    0.378647 0.246722 0.547118 0.121984
H34   H     H_    0.026494 0.683451 0.385340 0.118117
H35   H     H_    0.162770 0.790150 0.066391 0.064854
H36   H     H_    0.025196 0.315349 0.892884 0.107590
H37   H     H_    0.526496 0.183451 0.385340 0.118119
H38   H     H_    0.525197 0.815349 0.892885 0.107577
H39   H     H_    0.273168 0.617055 0.139099 0.173649
H40   H     H_    0.279830 0.627332 0.329575 0.175564
H41   H     H_    0.277355 0.377037 0.745593 0.180225
H42   H     H_    0.276583 0.359788 0.925420 0.174415
H43   H     H_    0.773168 0.117055 0.139102 0.173649
H44   H     H_    0.779830 0.127332 0.329578 0.175564
H45   H     H_    0.777356 0.877031 0.745685 0.180225
H46   H     H_    0.160684 0.212967 0.502013 0.064869
H47   H     H_    0.776578 0.859776 0.925499 0.174415
H48   H     H_    0.130923 0.618802 0.977115 0.186787
H49   H     H_    0.152504 0.584931 0.057663 0.204349
H50   H     H_    0.151219 0.431038 0.598658 0.217288
H51   H     H_    0.124659 0.412773 0.454208 0.214617
H52   H     H_    0.630923 0.118802 0.977114 0.186787
H53   H     H_    0.652504 0.084931 0.057663 0.204349
H54   H     H_    0.651219 0.931038 0.598662 0.217279
H55   H     H_    0.624660 0.912774 0.454208 0.214620
H56   H     H_    0.952368 0.468093 0.770510 0.199318
H57   H     H_    0.662769 0.290150 0.066386 0.064854
H58   H     H_    0.988221 0.447196 0.880517 0.203770
H59   H     H_    0.955771 0.533256 0.271231 0.202164
H60   H     H_    0.989330 0.554219 0.391382 0.206889
H61   H     H_    0.452368 0.968093 0.770510 0.199318
H62   H     H_    0.488221 0.947196 0.880516 0.203770
H63   H     H_    0.455772 0.033256 0.271231 0.202164
H64   H     H_    0.489330 0.054219 0.391382 0.206889
H65   H     H_    0.031443 0.590592 0.286439 0.043035
H66   H     H_    0.032005 0.410628 0.785383 0.040452
H67   H     H_    0.531443 0.090592 0.286438 0.043035
H68   H     H_    0.660684 0.712973 0.501934 0.064869
H69   H     H_    0.532005 0.910629 0.785384 0.040452
H70   H     H_    0.005345 0.647328 0.152011 -0.071687
H71   H     H_    0.001729 0.350030 0.651714 -0.076014
H72   H     H_    0.505344 0.147328 0.152009 -0.071689
H73   H     H_    0.501726 0.850028 0.651714 -0.076018
H74   H     H_    0.008479 0.688271 0.849694 0.155942
H75   H     H_    0.004601 0.310495 0.345932 0.153853
H76   H     H_    0.508478 0.188272 0.849692 0.155942
H77   H     H_    0.504598 0.810494 0.345929 0.153853
H78   H     H_    0.993538 0.702903 0.035063 0.110524
H79   H     H_    0.300179 0.675219 0.158817 0.065053
H80   H     H_    0.985932 0.296026 0.524787 0.107058
H81   H     H_    0.493536 0.202903 0.035061 0.110525
H82   H     H_    0.485926 0.796025 0.524776 0.107055
H83   H     H_    0.884316 0.554408 0.133520 0.180269
H84   H     H_    0.856878 0.552071 0.283574 0.155116
H85   H     H_    0.877351 0.447155 0.647914 0.180679
H86   H     H_    0.850387 0.453907 0.796547 0.161412
H87   H     H_    0.384315 0.054408 0.133521 0.180269
H88   H     H_    0.356878 0.052071 0.283575 0.155115
H89   H     H_    0.377350 0.947155 0.647917 0.180681
H90   H     H_    0.300362 0.316625 0.740616 0.065413
H91   H     H_    0.350386 0.953908 0.796550 0.161412
H92   H     H_    0.800179 0.175219 0.158819 0.065053
H93   H     H_    0.089375 0.530069 0.660770 0.057286
H94   H     H_    0.800360 0.816618 0.740683 0.065412
H95   H     H_    0.838203 0.213055 0.152261 0.067441
H96   H     H_    0.835727 0.787920 0.615778 0.068921
H97   H     H_    0.338203 0.713055 0.152262 0.067440
H98   H     H_    0.335726 0.287924 0.615712 0.068920
H99   H     H_    0.022179 0.631811 0.970706 0.089251
H100  H     H_    0.020844 0.365340 0.474446 0.087465
H101  H     H_    0.522179 0.131812 0.970704 0.089251
H102  H     H_    0.520843 0.865338 0.474449 0.087466
H103  H     H_    0.900614 0.508576 0.297597 0.047588
H104  H     H_    0.591387 0.970634 0.168493 0.071069
H105  H     H_    0.897737 0.493429 0.801785 0.052029
H106  H     H_    0.400614 0.008575 0.297597 0.047588
H107  H     H_    0.397736 0.993429 0.801786 0.052032
H108  H     H_    0.966342 0.621477 0.672616 0.204116
H109  H     H_    0.944441 0.648543 0.552971 0.177646
H110  H     H_    0.966331 0.380024 0.172878 0.200838
H111  H     H_    0.943999 0.352760 0.057145 0.178279
H112  H     H_    0.466341 0.121478 0.672608 0.204112
H113  H     H_    0.444441 0.148545 0.552968 0.177645
H114  H     H_    0.466331 0.880024 0.172875 0.200837
H115  H     H_    0.589375 0.030069 0.660771 0.057288
H116  H     H_    0.443999 0.852760 0.057143 0.178279
H117  H     H_    0.856838 0.462170 0.328171 0.113885
H118  H     H_    0.859197 0.543860 0.817727 0.137249
H119  H     H_    0.356838 0.962170 0.328171 0.113886
H120  H     H_    0.359197 0.043861 0.817723 0.137246
H121  H     H_    0.833127 0.499978 0.374667 0.118085
H122  H     H_    0.830678 0.509361 0.866686 0.105625
H123  H     H_    0.333127 0.999978 0.374668 0.118087
H124  H     H_    0.330677 0.009363 0.866685 0.105625
H125  H     H_    0.823914 0.481084 0.187521 0.099891
H126  H     H_    0.146128 0.467208 0.331215 0.104124
H127  H     H_    0.825654 0.527459 0.674206 0.104020
H128  H     H_    0.323914 0.981084 0.187521 0.099891
H129  H     H_    0.325654 0.027460 0.674204 0.104024
H130  H     H_    0.138310 0.475915 0.898739 0.195389
H131  H     H_    0.092274 0.480304 0.897736 0.160267
H132  H     H_    0.140930 0.524535 0.407049 0.180587
H133  H     H_    0.094975 0.520097 0.392769 0.155443
H134  H     H_    0.638310 0.975915 0.898739 0.195388
H135  H     H_    0.592274 0.980304 0.897736 0.160267
H136  H     H_    0.640930 0.024535 0.407048 0.180587
H137  H     H_    0.141490 0.533532 0.837564 0.125168
H138  H     H_    0.594974 0.020097 0.392769 0.155443
H139  H     H_    0.188526 0.485283 0.057435 0.196111
H140  H     H_    0.183015 0.508012 0.220354 0.194982
H141  H     H_    0.202333 0.523756 0.777258 0.190698
H142  H     H_    0.191781 0.519537 0.585443 0.197589
H143  H     H_    0.688526 0.985283 0.057435 0.196111
H144  H     H_    0.683015 0.008013 0.220355 0.194982
H145  H     H_    0.702333 0.023756 0.777257 0.190699
H146  H     H_    0.691781 0.019537 0.585442 0.197589
H147  H     H_    0.132701 0.416311 0.187360 0.167039
H148  H     H_    0.646128 0.967208 0.331215 0.104125
H149  H     H_    0.163703 0.426474 0.056265 0.230406
H150  H     H_    0.132644 0.584893 0.698217 0.192276
H151  H     H_    0.163216 0.573882 0.566222 0.213483
H152  H     H_    0.632701 0.916311 0.187360 0.167041
H153  H     H_    0.663703 0.926474 0.056265 0.230413
H154  H     H_    0.632644 0.084893 0.698217 0.192276
H155  H     H_    0.663216 0.073883 0.566222 0.213484
H156  H     H_    0.998246 0.628116 0.439558 -0.084522
H157  H     H_    0.998389 0.371452 0.941235 -0.094267
H158  H     H_    0.498246 0.128116 0.439557 -0.084521
H159  H     H_    0.641490 0.033532 0.837563 0.125169
H160  H     H_    0.498390 0.871451 0.941234 -0.094269
H161  H     H_    0.976775 0.684611 0.370095 0.095084
H162  H     H_    0.975474 0.315083 0.878446 0.096526
H163  H     H_    0.476776 0.184612 0.370092 0.095088
H164  H     H_    0.475475 0.815082 0.878448 0.096527
H165  H     H_    0.001483 0.702036 0.539685 0.130770
H166  H     H_    0.999948 0.297986 0.049538 0.128945
H167  H     H_    0.501485 0.202037 0.539682 0.130770
H168  H     H_    0.499949 0.797986 0.049540 0.128943
H169  H     H_    0.040931 0.690507 0.015791 0.135433
H170  H     H_    0.112630 0.642548 0.513100 0.093109
H171  H     H_    0.034529 0.305029 0.518442 0.142245
H172  H     H_    0.540929 0.190508 0.015790 0.135433
H173  H     H_    0.534523 0.805026 0.518446 0.142252
H174  H     H_    0.849819 0.432725 0.080590 0.182163
H175  H     H_    0.876543 0.411164 0.217354 0.215596
H176  H     H_    0.881355 0.620111 0.706372 0.203066
H177  H     H_    0.848236 0.593545 0.637413 0.188080
H178  H     H_    0.349819 0.932724 0.080592 0.182163
H179  H     H_    0.376544 0.911163 0.217355 0.215596
H180  H     H_    0.381360 0.120114 0.706373 0.203062
N1    N     N_R   0.855379 0.348208 0.928496 -0.421129
N2    N     N_3   0.967502 0.355579 0.130107 -0.434866
N3    N     N_3   0.467904 0.145649 0.626581 -0.440736
N4    N     N_3   0.467503 0.855578 0.130105 -0.434867
N5    N     N_3   0.114762 0.468129 0.952791 -0.542178
N6    N     N_3   0.116443 0.532581 0.453018 -0.541311
N7    N     N_3   0.614762 0.968129 0.952791 -0.542179
N8    N     N_3   0.616443 0.032581 0.453018 -0.541310
N9    N     N_3   0.184875 0.483630 0.176919 -0.452647
N10   N     N_3   0.181947 0.515356 0.695902 -0.466363
N11   N     N_3   0.684875 0.983630 0.176919 -0.452647
N12   N     N_R   0.854056 0.650159 0.430183 -0.430436
N13   N     N_3   0.681947 0.015356 0.695901 -0.466365
N14   N     N_3   0.156979 0.429483 0.172184 -0.466078
N15   N     N_3   0.156237 0.570794 0.681766 -0.506724
N16   N     N_3   0.656979 0.929483 0.172184 -0.466074
N17   N     N_3   0.656237 0.070794 0.681765 -0.506723
N18   N     N_3   0.863064 0.410073 0.107439 -0.470968
N19   N     N_3   0.876698 0.596669 0.654628 -0.464087
N20   N     N_3   0.363064 0.910073 0.107440 -0.470968
N21   N     N_3   0.376702 0.096672 0.654636 -0.464079
N22   N     N_3   0.739290 0.370901 0.884022 -0.430578
N23   N     N_R   0.355380 0.848208 0.928496 -0.421129
N24   N     N_3   0.738884 0.624474 0.429985 -0.431978
N25   N     N_3   0.239290 0.870901 0.884024 -0.430579
N26   N     N_3   0.238885 0.124469 0.430058 -0.431980
N27   N     N_3   0.109872 0.751261 0.133416 -0.440053
N28   N     N_3   0.107555 0.252691 0.560435 -0.442632
N29   N     N_3   0.609872 0.251261 0.133411 -0.440052
N30   N     N_3   0.607555 0.752698 0.560347 -0.442634
N31   N     N_3   0.260129 0.625955 0.236459 -0.431482
N32   N     N_3   0.260386 0.365663 0.824748 -0.426371
N33   N     N_3   0.760129 0.125955 0.236462 -0.431483
N34   N     N_R   0.354056 0.150159 0.430183 -0.430434
N35   N     N_3   0.760384 0.865656 0.824822 -0.426370
N36   N     N_3   0.126707 0.595086 0.024899 -0.451062
N37   N     N_3   0.137280 0.409158 0.564177 -0.467942
N38   N     N_3   0.626707 0.095086 0.024899 -0.451062
N39   N     N_3   0.637280 0.909158 0.564178 -0.467948
N40   N     N_3   0.965186 0.445564 0.803073 -0.455844
N41   N     N_3   0.967458 0.555935 0.308356 -0.463479
N42   N     N_3   0.465186 0.945564 0.803072 -0.455843
N43   N     N_3   0.467458 0.055935 0.308356 -0.463479
N44   N     N_3   0.863030 0.540543 0.178915 -0.483063
N45   N     N_R   0.145436 0.650983 0.246202 -0.440558
N46   N     N_3   0.857535 0.463467 0.688956 -0.479840
N47   N     N_3   0.363030 0.040543 0.178917 -0.483065
N48   N     N_3   0.357534 0.963468 0.688958 -0.479839
N49   N     N_R   0.144421 0.347330 0.748772 -0.431525
N50   N     N_R   0.645436 0.150983 0.246201 -0.440557
N51   N     N_R   0.644420 0.847330 0.748768 -0.431525
N52   N     N_3   0.967904 0.645648 0.626585 -0.440730
O1    O     O_2   0.072110 0.546320 0.923350 -0.459425
O2    O     O_3   0.964273 0.358761 0.461718 -0.581163
O3    O     O_3   0.466251 0.141916 0.965567 -0.584405
O4    O     O_3   0.464272 0.858761 0.461714 -0.581163
O5    O     O_3   0.958050 0.483830 0.034350 -0.477690
O6    O     O_3   0.958050 0.516170 0.534350 -0.482678
O7    O     O_3   0.458050 0.983830 0.034350 -0.477690
O8    O     O_3   0.458050 0.016170 0.534350 -0.482678
O9    O     O_2   0.808854 0.383775 0.866223 -0.549185
O10   O     O_2   0.807988 0.613209 0.387386 -0.564128
O11   O     O_2   0.308855 0.883775 0.866224 -0.549185
O12   O     O_2   0.072110 0.453680 0.423350 -0.484288
O13   O     O_2   0.307989 0.113207 0.387420 -0.564132
O14   O     O_2   0.100748 0.689481 0.210474 -0.585309
O15   O     O_2   0.099040 0.311854 0.674144 -0.587511
O16   O     O_2   0.600747 0.189481 0.210470 -0.585309
O17   O     O_2   0.599040 0.811858 0.674086 -0.587511
O18   O     O_2   0.899135 0.309213 0.985664 -0.614306
O19   O     O_2   0.897365 0.690302 0.467551 -0.613026
O20   O     O_2   0.399135 0.809213 0.985664 -0.614307
O21   O     O_2   0.397364 0.190304 0.467515 -0.613028
O22   O     O_2   0.192143 0.614714 0.287786 -0.572187
O23   O     O_2   0.572110 0.046320 0.923350 -0.459425
O24   O     O_2   0.191527 0.380752 0.825809 -0.555280
O25   O     O_2   0.692143 0.114714 0.287787 -0.572188
O26   O     O_2   0.691526 0.880748 0.825851 -0.555283
O27   O     O_3   0.042000 0.516250 0.155330 -0.494444
O28   O     O_3   0.042000 0.483750 0.655330 -0.489983
O29   O     O_3   0.542000 0.016250 0.155330 -0.494444
O30   O     O_3   0.542000 0.983750 0.655330 -0.489983
O31   O     O_3   0.012540 0.574900 0.645500 -0.495074
O32   O     O_3   0.012540 0.425100 0.145500 -0.491256
O33   O     O_3   0.512540 0.074900 0.645500 -0.495072
O34   O     O_2   0.572110 0.953680 0.423350 -0.484288
O35   O     O_3   0.512540 0.925100 0.145500 -0.491256
O36   O     O_2   0.071811 0.601596 0.784107 -0.472304
O37   O     O_2   0.071626 0.398108 0.285709 -0.488176
O38   O     O_2   0.571811 0.101596 0.784107 -0.472304
O39   O     O_2   0.571626 0.898108 0.285709 -0.488169
O40   O     O_3   0.118535 0.514742 0.113115 -0.659093
O41   O     O_3   0.117967 0.486059 0.612724 -0.651199
O42   O     O_3   0.618535 0.014742 0.113115 -0.659092
O43   O     O_3   0.617967 0.986059 0.612724 -0.651199
O44   O     O_3   0.032098 0.644287 0.631706 -0.589224
O45   O     O_3   0.887493 0.507363 0.571444 -0.647490
O46   O     O_3   0.031647 0.355542 0.135465 -0.586696
O47   O     O_3   0.532098 0.144287 0.631707 -0.589223
O48   O     O_3   0.531647 0.855542 0.135466 -0.586694
O49   O     O_2   0.928110 0.546600 0.766510 -0.443708
O50   O     O_2   0.928110 0.453400 0.266510 -0.463849
O51   O     O_2   0.428110 0.046600 0.766510 -0.443707
O52   O     O_2   0.428110 0.953400 0.266510 -0.463848
O53   O     O_3   0.987780 0.574950 0.044470 -0.455527
O54   O     O_3   0.987780 0.425050 0.544470 -0.450526
O55   O     O_3   0.487780 0.074950 0.044470 -0.455527
O56   O     O_3   0.887121 0.492472 0.071747 -0.652352
O57   O     O_3   0.487780 0.925050 0.544470 -0.450525
O58   O     O_2   0.918800 0.592630 0.953071 -0.463856
O59   O     O_2   0.917802 0.409144 0.462925 -0.477726
O60   O     O_2   0.418800 0.092630 0.953072 -0.463856
O61   O     O_2   0.417801 0.909145 0.462929 -0.477725
O62   O     O_3   0.387493 0.007363 0.571444 -0.647490
O63   O     O_3   0.387121 0.992472 0.071747 -0.652352
O64   O     O_3   0.966251 0.641916 0.965569 -0.584405
P1    P     P_3+3 0.075650 0.535480 0.098240 0.985314
P2    P     P_3+3 0.952066 0.395476 0.556594 0.995794
P3    P     P_3+3 0.452388 0.104989 0.054650 0.987885
P4    P     P_3+3 0.452065 0.895476 0.556594 0.995795
P5    P     P_3+3 0.048731 0.396507 0.129518 0.946166
P6    P     P_3+3 0.048954 0.603174 0.627811 0.942351
P7    P     P_3+3 0.548731 0.896507 0.129518 0.946171
P8    P     P_3+3 0.548954 0.103174 0.627811 0.942353
P9    P     P_3+3 0.075650 0.464520 0.598240 0.957891
P10   P     P_3+3 0.575650 0.035480 0.098240 0.985314
P11   P     P_3+3 0.575650 0.964520 0.598240 0.957891
P12   P     P_3+3 0.924520 0.535770 0.591580 0.980536
P13   P     P_3+3 0.924520 0.464230 0.091580 0.947945
P14   P     P_3+3 0.424520 0.035770 0.591580 0.980535
P15   P     P_3+3 0.424520 0.964230 0.091580 0.947945
P16   P     P_3+3 0.952388 0.604989 0.054651 0.987885

loop_
_geom_bond_atom_site_label_1
_geom_bond_atom_site_label_2
_ccdc_geom_bond_type
O1    P1    D    
C10   P8    S    
C35   C121  S    
H141  N10   S    
C138  C142  A    
C8    P6    S    
C83   N1    Am   
H153  N16   S    
O56   P13   S    
Ba4   O7    S    
C37   C63   A    
C70   H1    S    
C10   C128  S    
C120  O4    S    
H150  N15   S    
H47   N35   S    
C87   C123  D    
C167  H80   S    
C150  C154  A    
C91   C95   S    
C64   H98   S    
C54   H92   S    
H62   N42   S    
H174  N18   S    
O34   P11   D    
C75   H137  S    
C33   C38   A    
H154  N17   S    
C5    C9    S    
O47   P8    S    
C5    H2    S    
C92   N19   S    
C13   C57   S    
C130  C139  A    
C152  C174  A    
C148  C152  A    
C55   C138  A    
C14   P9    S    
C40   C66   S    
C171  O24   D    
C147  C151  A    
C113  C122  A    
C88   P15   S    
C137  C141  A    
O36   P6    D    
C174  O14   D    
C72   O42   S    
C48   H30   S    
H88   N47   S    
C99   C113  A    
H178  N20   S    
H179  N20   S    
C86   O13   D    
H132  N6    S    
C72   H104  S    
C5    C22   D    
C15   P10   S    
Ba2   O32   S    
H85   N46   S    
C81   O47   S    
C32   C102  A    
H134  N7    S    
C160  C164  A    
O62   P14   S    
H14   N27   S    
C119  H101  S    
C6    H13   S    
C147  H68   S    
C172  N50   Am   
C24   H29   S    
C94   C98   S    
O8    P14   S    
C41   H106  S    
C53   C136  A    
C118  H100  S    
C15   C19   D    
C169  H77   S    
C42   O62   S    
H4    N22   S    
C29   C131  A    
O27   P1    S    
C69   H124  S    
H151  N15   S    
C128  H67   S    
C109  N24   S    
O23   P10   D    
O52   P15   D    
C8    C126  S    
C39   H103  S    
C84   C105  A    
C111  H164  S    
C26   C132  A    
C27   C44   A    
Ba3   P14   S    
C101  C114  A    
O33   P8    S    
O59   P2    D    
C103  C116  A    
C144  N23   Am   
H83   N44   S    
C98   N34   S    
Ba3   O23   S    
C168  H76   S    
H140  N9    S    
H147  N14   S    
O64   P16   S    
C13   H28   S    
C117  H99   S    
C120  H73   S    
C75   N15   S    
C67   H128  S    
Ba1   O6    S    
C100  H167  S    
C166  H26   S    
C168  H172  S    
C120  H102  S    
C134  C147  A    
Ba1   O49   S    
C108  N22   S    
C47   C112  A    
H176  N19   S    
C31   C36   A    
O53   P16   S    
C74   H126  S    
H86   N46   S    
C1    C78   S    
C54   C137  A    
C23   N50   S    
O3    P3    S    
Ba2   O5    S    
Ba1   O28   S    
C7    H24   S    
H59   N41   S    
C172  O25   D    
C67   H119  S    
C100  H37   S    
Ba2   O54   S    
H144  N11   S    
C176  N50   Am   
Ba4   P11   S    
H63   N43   S    
C46   C123  S    
H48   N36   S    
C133  N12   Am   
C71   C75   S    
C153  C158  A    
C139  C157  A    
C157  C161  A    
C48   C61   A    
Ba4   O29   S    
H18   N29   S    
H42   N32   S    
C12   C17   D    
C41   C67   S    
C76   N11   S    
C145  C149  A    
C40   H105  S    
C73   O43   S    
C56   N31   S    
H177  N19   S    
C65   H121  S    
H136  N8    S    
C28   C32   A    
H49   N36   S    
C143  H35   S    
C153  C175  A    
C40   O45   S    
C41   O63   S    
C110  N25   S    
Ba3   O30   S    
C44   H22   S    
H53   N38   S    
C80   O46   S    
H143  N11   S    
C154  C176  A    
Ba4   O57   S    
C135  C139  A    
O45   P12   S    
H61   N42   S    
H6    N24   S    
C106  C110  A    
C119  C168  S    
C80   C89   S    
C48   C113  A    
O61   P4    D    
C59   C163  A    
C87   C92   D    
O2    P2    S    
H108  N52   S    
C50   C115  A    
C71   H93   S    
C155  N34   Am   
C149  C153  A    
C145  H46   S    
C7    C11   S    
C86   C107  A    
C126  H65   S    
C88   C93   D    
O46   P5    S    
C26   C30   A    
C38   C136  A    
C3    N51   Am   
O32   P5    S    
C6    C10   S    
O31   P6    S    
C49   C114  A    
H17   N29   S    
C141  C159  A    
C17   N36   S    
C161  C170  A    
C81   N3    S    
C142  C160  A    
C85   C106  A    
H3    N21   S    
C82   C111  S    
C60   N35   S    
C2    C96   D    
C42   N48   S    
C76   N16   S    
C31   C101  A    
C127  H66   S    
C34   C61   A    
C4    C8    S    
C146  H57   S    
O55   P3    S    
C70   N5    S    
C175  O15   D    
C150  N29   S    
C2    C46   S    
C79   P13   S    
C169  H82   S    
C154  C159  A    
C50   H32   S    
O4    P4    S    
C152  C157  A    
Ba3   O33   S    
C18   C22   S    
C165  H78   S    
C34   C137  A    
C121  N40   S    
Ba3   Ba4   S    
C129  H69   S    
H39   N31   S    
Ba1   P1    S    
C58   N32   S    
C15   C128  D    
C17   C21   S    
O35   P7    S    
Ba2   P9    S    
C58   C162  A    
C14   C18   D    
C103  C107  A    
C72   C76   S    
C89   H166  S    
C51   H33   S    
O42   P10   S    
C19   N38   S    
H10   N26   S    
C30   C99   A    
C122  O18   D    
O39   P7    D    
H41   N32   S    
C78   N52   S    
O37   P5    D    
C119  H72   S    
H111  N2    S    
C28   C130  A    
C68   P3    S    
C117  H70   S    
C134  C142  A    
C92   C96   S    
Ba3   P10   S    
H145  N13   S    
C95   N1    S    
C70   O40   S    
C66   H127  S    
H139  N9    S    
O5    P13   S    
H60   N41   S    
C118  C167  S    
H11   N26   S    
C77   N17   S    
C90   P14   S    
O49   P12   D    
C36   C62   A    
C42   C69   S    
C40   N46   S    
O51   P14   D    
C41   N47   S    
C6    C23   D    
C73   N8    S    
H58   N40   S    
C45   H23   S    
C78   O44   S    
O54   P2    S    
H50   N37   S    
C102  C115  A    
C61   H95   S    
Ba2   P13   S    
C62   H96   S    
Ba1   P12   S    
C51   C64   A    
C32   C37   A    
H109  N52   S    
C68   C125  S    
C95   C166  D    
H84   N44   S    
C130  C143  A    
C162  C171  A    
Ba3   O8    S    
C123  N41   S    
O50   P13   D    
C42   H107  S    
C156  C160  A    
C91   N18   S    
C67   H123  S    
O28   P9    S    
C33   C103  A    
C84   O10   D    
Ba4   P15   S    
C74   N9    S    
C90   C94   D    
H146  N13   S    
C164  C173  A    
C55   H94   S    
H5    N22   S    
C168  H81   S    
O43   P11   S    
C20   C25   S    
C101  C105  A    
C158  C162  A    
C82   N4    S    
H135  N7    S    
C111  H38   S    
C107  C112  A    
C63   H97   S    
C69   H129  S    
C87   P12   S    
Ba2   O27   S    
Ba3   O51   S    
C45   C110  A    
H7    N24   S    
C65   H117  S    
H131  N5    S    
C4    C21   D    
C66   H122  S    
C14   C127  D    
C24   C68   S    
C79   C121  D    
C3    O17   D    
C18   N37   S    
C51   C116  A    
H40   N31   S    
H110  N2    S    
O63   P15   S    
C75   N10   S    
O30   P11   S    
C122  N1    Am   
C3    C156  A    
C151  N30   S    
C29   C33   A    
C104  C108  A    
C76   H148  S    
H44   N33   S    
C167  H171  S    
C73   H115  S    
H155  N17   S    
C80   N2    S    
C73   C77   S    
Ba2   O6    S    
C47   H25   S    
C9    C127  S    
C27   C134  A    
C148  N27   S    
C144  O20   D    
C81   C100  S    
C74   N14   S    
C93   N20   S    
C9    P5    S    
C27   C31   A    
C52   H79   S    
C20   N39   S    
C173  O26   D    
C77   N13   S    
C170  N45   Am   
C21   N45   S    
C52   C135  A    
C80   H157  S    
C85   O11   D    
H149  N14   S    
C39   O56   S    
H45   N35   S    
C136  C140  A    
Ba2   O50   S    
C29   C47   A    
C25   N51   S    
C176  O16   D    
H19   N30   S    
C78   H156  S    
C115  C144  A    
H54   N39   S    
C60   C164  A    
Ba4   O35   S    
C53   H90   S    
C1    H34   S    
C117  O64   S    
C82   H160  S    
Ba4   O52   S    
C57   C124  S    
C84   N12   Am   
Ba1   O31   S    
Ba3   O55   S    
C165  H169  S    
C37   C135  A    
Ba1   O53   S    
C52   C56   A    
H130  N5    S    
C70   C74   S    
C167  H75   S    
C65   H125  S    
C89   H162  S    
O6    P12   S    
C11   P7    S    
C44   C109  A    
C117  C165  S    
C89   H36   S    
C36   C138  A    
H9    N25   S    
C118  O2    S    
C53   C58   A    
C169  H173  S    
C46   P16   S    
C55   C60   A    
H152  N16   S    
H51   N37   S    
C155  O21   D    
H113  N3    S    
C35   C166  S    
O57   P4    S    
H43   N33   S    
C43   C108  A    
Ba2   O12   S    
C43   H21   S    
Ba1   Ba2   S    
C85   N23   Am   
O38   P8    D    
C13   C97   D    
C56   C161  A    
C171  N49   Am   
C77   H159  S    
O12   P9    D    
C83   C104  A    
C16   C20   D    
C71   N6    S    
C116  C155  A    
C99   C104  A    
C19   C23   S    
C16   C129  D    
C114  C133  A    
H20   N30   S    
O40   P1    S    
H12   N27   S    
C105  C109  A    
H116  N4    S    
C118  H71   S    
C57   P4    S    
C69   H120  S    
C38   C64   A    
C124  N42   S    
C83   O9    D    
C119  O3    S    
C72   N7    S    
C88   C124  D    
H91   N48   S    
C97   N23   S    
C28   C45   A    
H52   N38   S    
C111  H168  S    
C125  N43   S    
C90   C125  D    
H180  N21   S    
H55   N39   S    
C26   C43   A    
H56   N40   S    
C112  N26   S    
C175  N49   Am   
C22   N49   S    
C50   C63   A    
C131  C145  A    
C173  N51   Am   
C1    H165  S    
O48   P7    S    
H8    N25   S    
H64   N43   S    
C159  C163  A    
Ba4   O34   S    
O60   P3    D    
H133  N6    S    
C96   N12   S    
C49   H31   S    
C79   C91   D    
C82   O48   S    
C66   H118  S    
C4    H170  S    
O44   P6    S    
C49   C62   A    
C174  N45   Am   
C7    C25   D    
C2    H27   S    
H175  N18   S    
Ba4   O8    S    
H87   N47   S    
C131  C140  A    
C133  O19   D    
C102  C106  A    
C54   C59   A    
C120  C169  S    
C39   N44   S    
H142  N10   S    
C140  C158  A    
C151  C156  A    
C30   C34   A    
C149  N28   S    
C165  H74   S    
C94   N21   S    
O58   P16   D    
C132  C141  A    
H89   N48   S    
C132  C146  A    
C35   P2    S    
C11   C129  S    
O41   P9    S    
C170  O22   D    
H15   N28   S    
Ba3   O7    S    
C1    H161  S    
C81   H158  S    
C143  C148  A    
Ba1   O5    S    
C16   P11   S    
C59   N33   S    
C12   P1    S    
Ba1   O1    S    
C86   N34   Am   
C71   O41   S    
H114  N4    S    
O29   P10   S    
O7    P15   S    
C24   C98   D    
H138  N8    S    
C100  H163  S    
C39   C65   S    
C146  C150  A    
H16   N28   S    
C12   C126  D    
C93   C97   S    
C163  C172  A    
H112  N3    S    
