data_mof_unit_28885.cif
_audit_creation_date              2013-03-05T15:46:22-0500
_audit_creation_method            fapswitch 2.2
_symmetry_space_group_name_H-M    P1
_symmetry_Int_Tables_number       1
_space_group_crystal_system       triclinic
_cell_length_a                    8.403457
_cell_length_b                    15.266657
_cell_length_c                    19.307884
_cell_angle_alpha                 98.429927
_cell_angle_beta                  95.407565
_cell_angle_gamma                 98.199836
_cell_volume                      2408.4165911

loop_
_atom_site_label
_atom_site_type_symbol
_atom_site_description
_atom_site_fract_x
_atom_site_fract_y
_atom_site_fract_z
_atom_type_partial_charge
P1    P     P_3+3 0.990700 0.707490 0.561920 0.479664
O1    O     O_2   0.165020 0.721890 0.541560 -0.360036
O2    O     O_3   0.893030 0.608480 0.539180 -0.382847
O3    O     O_3   0.389120 0.667500 0.413900 -0.393283
O4    O     O_2   0.315148 0.819666 0.473651 -0.380311
O5    O     O_3   0.999295 0.744407 0.653217 -0.646278
O6    O     O_3   0.364722 0.816079 0.343811 -0.525670
H1    H     H_    0.303011 0.688041 0.287530 0.152715
C1    C     C_3   0.343575 0.787146 0.218860 -0.589725
H2    H     H_    0.223164 0.809088 0.218123 0.269093
P2    P     P_3+3 0.340130 0.430100 0.338870 0.532201
P3    P     P_3+3 0.916035 0.632400 0.288982 0.485955
O7    O     O_2   0.172060 0.457600 0.329040 -0.299442
O8    O     O_3   0.964390 0.622060 0.377370 -0.355842
O9    O     O_2   0.030615 0.577606 0.249037 -0.326395
O10   O     O_3   0.273622 0.314900 0.308452 -0.523868
O11   O     O_3   0.990869 0.741585 0.277843 -0.522858
C2    C     C_3   0.889465 0.801786 0.302889 0.515140
H3    H     H_    0.806578 0.775275 0.339445 0.012210
C3    C     C_3   0.997402 0.886006 0.343357 -0.836965
H4    H     H_    0.068808 0.869226 0.389535 0.271128
H5    H     H_    0.082253 0.915293 0.308979 0.267072
C4    C     C_3   0.730592 0.307522 0.299635 0.325584
H6    H     H_    0.598962 0.290302 0.294880 0.052755
C5    C     C_3   0.777624 0.283049 0.224184 -0.838129
H7    H     H_    0.730491 0.328348 0.189779 0.171165
H8    H     H_    0.911628 0.294088 0.226077 0.246294
Ba1   Ba    Ba6+2 0.161760 0.544680 0.467770 1.572868
C6    C     C_3   0.124308 0.717701 0.693605 0.271109
H9    H     H_    0.239981 0.732243 0.671653 0.108794
C7    C     C_3   0.139836 0.769651 0.769473 -0.589678
H10   H     H_    0.230551 0.744382 0.803993 0.237229
H11   H     H_    0.021928 0.758035 0.791052 0.234429
C8    C     C_3   0.312434 0.261003 0.357943 0.408895
H12   H     H_    0.442045 0.262828 0.364524 0.128070
C9    C     C_3   0.229699 0.161963 0.332736 -0.577234
H13   H     H_    0.277196 0.121131 0.370815 0.163560
P4    P     P_3+3 0.819590 0.292500 0.438020 0.513661
O12   O     O_2   0.645270 0.278050 0.458420 -0.348958
O13   O     O_3   0.917270 0.391510 0.460760 -0.379783
O14   O     O_3   0.421180 0.332490 0.586040 -0.386655
O15   O     O_3   0.808776 0.258512 0.345107 -0.600302
P5    P     P_3+3 0.886000 0.378097 0.713782 0.465494
O16   O     O_3   0.383630 0.545490 0.584580 -0.336035
O17   O     O_3   0.845910 0.377930 0.622570 -0.403680
O18   O     O_2   0.792127 0.449053 0.749322 -0.336675
O19   O     O_3   0.797005 0.277635 0.739327 -0.520992
Ba2   Ba    Ba6+2 0.648420 0.455310 0.532170 1.580007
P6    P     P_3+3 0.430860 0.783344 0.423300 0.447154
C10   C     C_3   0.385481 0.751644 0.287382 0.433804
H14   H     H_    0.512625 0.738884 0.290470 -0.040502
H15   H     H_    0.433478 0.846773 0.215539 0.220389
O20   O     O_3   0.426670 0.454500 0.415370 -0.357348
C11   C     C_3   0.633795 0.729178 0.682895 0.387894
H16   H     H_    0.739443 0.697895 0.699668 0.128411
C12   C     C_3   0.673597 0.828648 0.719503 -0.584217
H17   H     H_    0.798163 0.854472 0.708914 0.134463
P7    P     P_3+3 0.464472 0.568530 0.674430 0.450649
O21   O     O_2   0.638230 0.542350 0.670940 -0.370543
O22   O     O_3   0.491787 0.685043 0.704260 -0.603821
H18   H     H_    0.922661 0.936684 0.362189 0.217200
C13   C     C_3   0.824507 0.200107 0.695171 0.500673
H19   H     H_    0.766095 0.197889 0.640517 0.111566
C14   C     C_3   0.749401 0.115158 0.723081 -0.544521
H20   H     H_    0.808135 0.056513 0.704554 0.146270
H21   H     H_    0.621010 0.095083 0.701384 0.259282
P8    P     P_3+3 0.374197 0.217267 0.586954 0.404856
C15   C     C_3   0.391800 0.246598 0.725663 0.465689
H22   H     H_    0.277321 0.269049 0.710585 -0.011371
O23   O     O_2   0.487295 0.175354 0.537366 -0.406954
O24   O     O_3   0.443360 0.191975 0.669365 -0.530182
H23   H     H_    0.312842 0.235566 0.828267 0.141099
C16   C     C_3   0.371015 0.195245 0.788123 -0.660498
H24   H     H_    0.490972 0.187780 0.813639 0.201099
C17   C     C_R   0.158681 0.170636 0.550672 0.149656
C18   C     C_R   0.094172 0.077985 0.542259 -0.016109
C19   C     C_R   0.959100 0.890811 0.529017 -0.043037
C20   C     C_R   0.113782 0.925215 0.564835 -0.097645
C21   C     C_R   0.180899 0.015771 0.569742 -0.181751
C22   C     C_R   0.894191 0.796079 0.518188 0.283342
H25   H     H_    0.186523 0.882490 0.588916 0.165011
H26   H     H_    0.302698 0.036477 0.595765 0.203617
C23   C     C_R   0.740448 0.769238 0.480336 -0.517519
C24   C     C_R   0.914543 0.203270 0.483652 0.259266
C25   C     C_R   0.850526 0.108117 0.473998 -0.135325
C26   C     C_R   0.936126 0.047240 0.507447 0.039900
C27   C     C_R   0.701110 0.070590 0.434503 -0.085745
C28   C     C_R   0.617852 0.989165 0.446498 -0.033758
C29   C     C_R   0.705207 0.924353 0.470852 -0.039736
C30   C     C_R   0.867422 0.953738 0.501867 -0.014440
C31   C     C_R   0.641942 0.831081 0.461072 0.202050
C32   C     C_R   0.060868 0.231508 0.527776 -0.513595
H27   H     H_    0.691226 0.698545 0.470248 0.163183
H28   H     H_    0.107682 0.302508 0.539149 0.170084
C33   C     C_R   0.588318 0.557582 0.299427 -0.416405
C34   C     C_R   0.448254 0.493860 0.274278 0.212124
C35   C     C_R   0.399180 0.476757 0.200074 -0.253018
C36   C     C_R   0.503025 0.513738 0.153208 -0.054744
C37   C     C_R   0.656086 0.562961 0.181343 -0.268847
C38   C     C_R   0.700443 0.584681 0.253913 0.226933
C39   C     C_R   0.490682 0.575392 0.038550 -0.160971
C40   C     C_R   0.439457 0.567964 0.966578 -0.122978
C41   C     C_R   0.355731 0.486653 0.928142 0.145663
C42   C     C_R   0.329468 0.412127 0.963106 -0.171183
C43   C     C_R   0.381688 0.419486 0.035153 -0.117584
C44   C     C_R   0.457245 0.502292 0.074755 0.164503
C45   C     C_R   0.147620 0.428732 0.822813 -0.217065
C46   C     C_R   0.101497 0.413961 0.749870 0.291383
C47   C     C_R   0.353544 0.502531 0.732996 0.285131
C48   C     C_R   0.398000 0.520082 0.806165 -0.282954
C49   C     C_R   0.300268 0.478232 0.851474 0.016814
C50   C     C_R   0.214132 0.441147 0.705325 -0.453265
H29   H     H_    0.510470 0.563860 0.827061 0.161983
H30   H     H_    0.463251 0.626536 0.941337 0.145487
H31   H     H_    0.555490 0.639223 0.065769 0.125287
H32   H     H_    0.270244 0.347626 0.934437 0.126205
H33   H     H_    0.362962 0.360127 0.059716 0.137153
H34   H     H_    0.062757 0.404523 0.857233 0.146709
H35   H     H_    0.742303 0.584270 0.146461 0.158356
H36   H     H_    0.184853 0.422777 0.648900 0.163317
H37   H     H_    0.616991 0.580696 0.355294 0.154400
C51   C     C_2   0.709470 0.188445 0.189718 1.180630
O25   O     O_2   0.563504 0.164076 0.182084 -0.580277
O26   O     O_R   0.808915 0.128950 0.162733 -0.767884
H38   H     H_    0.926464 0.157181 0.166323 0.323246
C52   C     C_2   0.079259 0.620245 0.692912 0.956161
O27   O     O_2   0.015154 0.591665 0.741047 -0.639228
O28   O     O_R   0.093440 0.563592 0.631560 -0.753692
H39   H     H_    0.005657 0.510192 0.621640 0.356236
N1    N     N_3   0.186291 0.866170 0.772659 -0.174585
H40   H     H_    0.310708 0.880519 0.771032 0.205199
H41   H     H_    0.128321 0.886762 0.728972 0.167297
N2    N     N_3   0.268915 0.295600 0.426007 -0.146913
H42   H     H_    0.146302 0.299981 0.420109 0.132316
H43   H     H_    0.294889 0.250005 0.458153 0.123149
N3    N     N_3   0.342220 0.718992 0.157414 -0.189114
H44   H     H_    0.453061 0.695870 0.161538 0.119418
H45   H     H_    0.251891 0.664857 0.159228 0.199598
N4    N     N_3   0.055532 0.152816 0.334687 -0.205922
H46   H     H_    0.003138 0.174838 0.290575 0.197279
H47   H     H_    0.011790 0.084508 0.330210 0.160397
C53   C     C_2   0.264669 0.123118 0.260033 1.228795
O29   O     O_2   0.239022 0.161818 0.209959 -0.566920
O30   O     O_R   0.317324 0.039833 0.249650 -0.812820
H48   H     H_    0.332054 0.019143 0.198657 0.341523
N5    N     N_3   0.616153 0.725603 0.606518 -0.219141
H49   H     H_    0.634566 0.662622 0.582602 0.153045
H50   H     H_    0.497775 0.732714 0.589009 0.145407
C54   C     C_2   0.672868 0.837845 0.798736 1.165585
O31   O     O_2   0.550748 0.809503 0.823237 -0.595304
O32   O     O_R   0.809129 0.879611 0.845243 -0.766575
H51   H     H_    0.902573 0.904437 0.820753 0.281774
N6    N     N_3   0.564812 0.885115 0.690949 -0.197130
H52   H     H_    0.602597 0.901560 0.643694 0.128235
H53   H     H_    0.447678 0.849498 0.678516 0.145409
N7    N     N_3   0.997163 0.199552 0.694444 -0.212627
H54   H     H_    0.035614 0.243564 0.660944 0.049293
H55   H     H_    0.016038 0.136917 0.669942 0.082907
N8    N     N_3   0.760439 0.129663 0.800028 -0.157506
H56   H     H_    0.724799 0.067831 0.815775 0.162184
H57   H     H_    0.880916 0.151690 0.821123 0.217009
N9    N     N_3   0.513657 0.325494 0.749457 -0.120637
H58   H     H_    0.511059 0.367403 0.711610 0.182832
H59   H     H_    0.486570 0.360396 0.796346 0.081918
C55   C     C_2   0.270693 0.104176 0.768052 1.132750
O33   O     O_2   0.318869 0.045398 0.729394 -0.689475
O34   O     O_R   0.125367 0.086011 0.796460 -0.823456
H60   H     H_    0.063491 0.024221 0.776774 0.295135
N10   N     N_3   0.444792 0.973988 0.431908 -0.150935
H61   H     H_    0.410437 0.980364 0.379705 0.176387
H62   H     H_    0.399226 0.023050 0.464245 0.144091
C56   C     C_2   0.664578 0.086147 0.362200 1.047829
O35   O     O_2   0.566449 0.134042 0.349210 -0.666720
O36   O     O_R   0.722185 0.034174 0.307346 -0.845063
H63   H     H_    0.672583 0.041649 0.259183 0.360684
N11   N     N_3   0.795227 0.825352 0.242844 -0.178786
H64   H     H_    0.710228 0.863361 0.262134 0.128818
H65   H     H_    0.729771 0.766354 0.213084 0.070931
C57   C     C_2   0.235771 0.427551 0.171949 1.080950
O37   O     O_2   0.197356 0.349688 0.179573 -0.596857
O38   O     O_R   0.128282 0.469292 0.133359 -0.786760
H66   H     H_    0.020973 0.428921 0.116209 0.324789
C58   C     C_2   0.776564 0.404621 0.324177 0.943598
O39   O     O_2   0.876492 0.447151 0.296068 -0.575960
O40   O     O_R   0.712594 0.444958 0.382082 -0.772450
H67   H     H_    0.779374 0.503931 0.405483 0.356048

loop_
_geom_bond_atom_site_label_1
_geom_bond_atom_site_label_2
_geom_bond_distance
_ccdc_geom_bond_type
P2    C34   1.909352 S    
C27   C28   1.398319 A    
C52   O27   1.220877 D    
H1    C10   1.110127 S    
P7    C47   1.851401 S    
N4    H47   1.043226 S    
C16   H24   1.107927 S    
C33   C34   1.412343 A    
C18   C21   1.409681 A    
C17   C18   1.420661 A    
C43   H33   1.081800 S    
O28   H39   1.000760 S    
O19   C13   1.414388 S    
C35   C36   1.434285 A    
P8    C17   1.877349 S    
O14   P8    1.750098 S    
C11   O22   1.411792 S    
C19   C20   1.404672 A    
P5    O18   1.547405 D    
C55   O33   1.220840 D    
C4    O15   1.409418 S    
C9    H13   1.112879 S    
P4    O15   1.782883 S    
C7    N1    1.460216 S    
C58   O40   1.387095 S    
P4    O12   1.546532 D    
C35   C57   1.480029 S    
Ba1   O13   2.862159 S    
P7    O22   1.762570 S    
C23   H27   1.081504 S    
O38   H66   1.013922 S    
O2    Ba2   2.862762 S    
C12   H17   1.113202 S    
C41   C49   1.490673 S    
C8    H12   1.080491 S    
N10   H61   1.044338 S    
C3    H18   1.106550 S    
C9    C53   1.513909 S    
O36   H63   1.011513 S    
C13   C14   1.551194 S    
O10   C8    1.394574 S    
C42   H32   1.082689 S    
C7    H10   1.112530 S    
O16   P7    1.767937 S    
C15   H22   1.094638 S    
P3    O11   1.746958 S    
P1    Ba1   3.425769 S    
O32   H51   1.010692 S    
C7    H11   1.111825 S    
O7    Ba1   2.825264 S    
N6    H53   1.042458 S    
C1    H2    1.109810 S    
C45   H34   1.083043 S    
P8    O24   1.757436 S    
P2    O20   1.551860 S    
C11   N5    1.460317 S    
C33   H37   1.077611 S    
N11   H65   1.044676 S    
C55   O34   1.394068 S    
C6    C52   1.479752 S    
N10   H62   1.042698 S    
O4    P6    1.540152 D    
C1    H15   1.110678 S    
C45   C49   1.410637 A    
P6    C31   1.854997 S    
C22   C23   1.398013 A    
C42   C43   1.401907 A    
O3    Ba1   2.858768 S    
C56   O36   1.394799 S    
C10   H14   1.110789 S    
N5    H50   1.045872 S    
C25   C27   1.404467 A    
Ba2   O20   2.784167 S    
N4    H46   1.042979 S    
C11   C12   1.553507 S    
C19   C30   1.440116 A    
N5    H49   1.042780 S    
P1    O5    1.761608 S    
C15   C16   1.541868 S    
C39   C40   1.398686 A    
C24   C25   1.453680 A    
O6    P6    1.748576 S    
N3    H45   1.046426 S    
C26   C30   1.445916 A    
C47   C50   1.399366 A    
O34   H60   1.011143 S    
C50   H36   1.079947 S    
C20   C21   1.402664 A    
C2    H3    1.114970 S    
C8    N2    1.442889 S    
C5    H7    1.113400 S    
C25   C26   1.441338 A    
Ba1   O16   2.784909 S    
C48   C49   1.413395 A    
P1    O2    1.592112 S    
C14   H21   1.102878 S    
N1    H41   1.044804 S    
C58   O39   1.206222 D    
C4    C58   1.472209 S    
C6    H9    1.103406 S    
C40   H30   1.082695 S    
P2    O10   1.762183 S    
N8    H56   1.045886 S    
P3    O9    1.549926 D    
C4    H6    1.091754 S    
C34   C35   1.428005 A    
C13   H19   1.114802 S    
C32   H28   1.081755 S    
O11   C2    1.405509 S    
C3    H4    1.109313 S    
P5    O17   1.761141 S    
C48   H29   1.082415 S    
C17   C32   1.415810 A    
C12   N6    1.466951 S    
C16   C55   1.496669 S    
N11   H64   1.044349 S    
P3    O8    1.751869 S    
N2    H42   1.038696 S    
C39   H31   1.080247 S    
C53   O30   1.398271 S    
C29   C31   1.425574 A    
C45   C46   1.401296 A    
C51   O26   1.398076 S    
C29   C30   1.418098 A    
C18   C26   1.413309 A    
C56   O35   1.210108 D    
Ba2   O21   2.825566 S    
N2    H43   1.030477 S    
N9    H58   1.040156 S    
C5    C51   1.505739 S    
O17   Ba2   2.795387 S    
C39   C44   1.410452 A    
O13   Ba2   2.962279 S    
C11   H16   1.110526 S    
Ba1   Ba2   4.611217 S    
C52   O28   1.386035 S    
C28   N10   1.433725 S    
P4    C24   1.948876 S    
C33   C38   1.408084 A    
P4    Ba2   3.426299 S    
C1    C10   1.531351 S    
O6    C10   1.398466 S    
C3    H5    1.110957 S    
H23   C16   1.111765 S    
O12   Ba2   2.862571 S    
C21   H26   1.078985 S    
Ba1   O20   2.960608 S    
C15   N9    1.451801 S    
C5    H8    1.110919 S    
C23   C31   1.408119 A    
C43   C44   1.407857 A    
C36   C44   1.505458 S    
C37   C38   1.393652 A    
O3    P6    1.732244 S    
O30   H48   1.013614 S    
P8    O23   1.547501 D    
C14   H20   1.112905 S    
C54   O32   1.397890 S    
N8    H57   1.043546 S    
P7    O21   1.572736 D    
C6    C7    1.544546 S    
N9    H59   1.042749 S    
C47   C48   1.402913 A    
P4    O13   1.592142 S    
P2    O7    1.532660 D    
C20   H25   1.079068 S    
O40   H67   1.009191 S    
C19   C22   1.448334 A    
P2    Ba1   3.416919 S    
C15   O24   1.410951 S    
C27   C56   1.461748 S    
P1    O1    1.546215 D    
C14   N8    1.461720 S    
N7    H55   1.043124 S    
O14   Ba2   2.858153 S    
C13   N7    1.453520 S    
N1    H40   1.041625 S    
C2    C3    1.524998 S    
P5    C46   1.852622 S    
C4    C5    1.552136 S    
C40   C41   1.403224 A    
C9    N4    1.454886 S    
P3    C38   1.875948 S    
C37   H35   1.083199 S    
C57   O37   1.220535 D    
C1    N3    1.456841 S    
C46   C50   1.397838 A    
O5    C6    1.392455 S    
N7    H54   1.038824 S    
C28   C29   1.420415 A    
C8    C9    1.557895 S    
O2    Ba1   2.961417 S    
C36   C37   1.409650 A    
C12   C54   1.516306 S    
C41   C42   1.407343 A    
C51   O25   1.218355 D    
P1    C22   1.928339 S    
C53   O29   1.222602 D    
N3    H44   1.042406 S    
O1    Ba1   2.862023 S    
C24   C32   1.402610 A    
O8    Ba1   2.794788 S    
N6    H52   1.046583 S    
C54   O31   1.220248 D    
P5    O19   1.766078 S    
O16   Ba2   2.959816 S    
O26   H38   1.011553 S    
C57   O38   1.397750 S    
C2    N11   1.459847 S    
