data_mof_unit_53024.cif
_audit_creation_date              2012-12-10T20:45:30-0500
_audit_creation_method            fapswitch 2.2
_symmetry_space_group_name_H-M    P1
_symmetry_Int_Tables_number       1
_space_group_crystal_system       triclinic
_cell_length_a                    10.647681
_cell_length_b                    10.678118
_cell_length_c                    9.865704
_cell_angle_alpha                 89.829445
_cell_angle_beta                  90.065396
_cell_angle_gamma                 89.971979
_cell_volume                      1121.69702669

loop_
_atom_site_label
_atom_site_type_symbol
_atom_type_description
_atom_site_fract_x
_atom_site_fract_y
_atom_site_fract_z
_atom_type_partial_charge
C1    C     C_R   0.501975 0.260000 0.500164 0.881316
C2    C     C_R   0.255735 0.912432 0.247573 -0.096537
C3    C     C_R   0.934172 0.601648 0.433346 0.088978
C4    C     C_R   0.872557 0.502634 0.500297 -0.123630
C5    C     C_R   0.938564 0.406903 0.567928 -0.031833
C6    C     C_R   0.067397 0.410292 0.567197 -0.253645
C7    C     C_R   0.128637 0.506493 0.499591 -0.102261
C8    C     C_R   0.064500 0.603388 0.432740 -0.052455
C9    C     C_R   0.843240 0.307603 0.772821 -0.098657
C10   C     C_R   0.793864 0.203097 0.839751 -0.136895
C11   C     C_R   0.781033 0.089520 0.771035 -0.116385
C12   C     C_R   0.260627 0.502888 0.499866 0.886017
C13   C     C_R   0.816028 0.080740 0.634795 -0.124817
C14   C     C_R   0.863307 0.185677 0.566908 -0.173735
C15   C     C_R   0.877105 0.299682 0.635717 0.113975
C16   C     C_R   0.509476 0.062994 0.622530 0.165372
C17   C     C_R   0.517338 0.128382 0.500791 -0.105226
C18   C     C_R   0.547170 0.065158 0.380659 -0.251917
C19   C     C_R   0.547432 0.935792 0.380411 -0.189678
C20   C     C_R   0.518942 0.871383 0.500517 -0.094245
C21   C     C_R   0.510862 0.935573 0.622507 0.115896
C22   C     C_3   0.415556 0.927041 0.733262 -0.484806
C23   C     C_R   0.502473 0.739940 0.499835 0.913514
C24   C     C_3   0.414526 0.069025 0.733588 -0.508548
C25   C     C_R   0.390395 0.486590 0.071152 0.212023
C26   C     C_R   0.606431 0.525391 0.071915 -0.132090
C27   C     C_R   0.606317 0.525765 0.928087 -0.143572
C28   C     C_R   0.390221 0.487373 0.928705 0.218575
C29   C     C_3   0.301327 0.379816 0.922703 -0.514938
C30   C     C_3   0.302815 0.377821 0.076708 -0.509602
C31   C     C_R   0.739841 0.500097 0.500080 0.923509
C32   C     C_R   0.222219 0.917707 0.384448 -0.129445
C33   C     C_R   0.161548 0.816078 0.445450 -0.163861
C34   C     C_R   0.132799 0.709125 0.369123 0.148989
C35   C     C_R   0.166181 0.704485 0.231631 -0.072054
C36   C     C_R   0.228273 0.805671 0.171385 -0.135103
H1    H     H_    0.303258 0.990954 0.200679 0.125528
H2    H     H_    0.743644 0.008392 0.823169 0.135103
H3    H     H_    0.806037 0.992730 0.581709 0.167302
H4    H     H_    0.891055 0.177692 0.461690 0.144864
H5    H     H_    0.562473 0.114571 0.286052 0.173374
H6    H     H_    0.561835 0.887231 0.285449 0.191762
H7    H     H_    0.325393 0.885187 0.699052 0.198149
H8    H     H_    0.455396 0.885831 0.827600 0.206052
H9    H     H_    0.323630 0.110177 0.699998 0.193947
H10   H     H_    0.454859 0.109026 0.827940 0.205156
H11   H     H_    0.692882 0.543998 0.125676 0.178135
H12   H     H_    0.243789 0.000311 0.443398 0.135734
H13   H     H_    0.692359 0.545627 0.874308 0.153439
H14   H     H_    0.208804 0.407415 0.879613 0.205248
H15   H     H_    0.343962 0.295499 0.876363 0.211393
H16   H     H_    0.210778 0.402871 0.122184 0.201529
H17   H     H_    0.347590 0.292484 0.120064 0.210960
H18   H     H_    0.135689 0.821049 0.551432 0.127873
H19   H     H_    0.143663 0.622947 0.171403 0.116138
H20   H     H_    0.254423 0.801621 0.065482 0.121263
H21   H     H_    0.120451 0.336569 0.617376 0.146997
H22   H     H_    0.856811 0.394013 0.827988 0.116000
H23   H     H_    0.767115 0.209722 0.945307 0.130185
N1    N     N_R   0.499160 0.499140 0.142800 -0.106849
N2    N     N_R   0.499160 0.499180 0.857150 -0.106152
O1    O     O_R   0.500020 0.316790 0.614690 -0.609174
O2    O     O_R   0.500000 0.316760 0.385350 -0.629062
O3    O     O_R   0.316770 0.500030 0.614670 -0.623913
O4    O     O_R   0.316750 0.499990 0.385330 -0.620017
O5    O     O_R   0.500000 0.683240 0.614650 -0.621545
O6    O     O_R   0.499980 0.683210 0.385310 -0.603390
O7    O     O_R   0.683250 0.500010 0.614670 -0.626082
O8    O     O_R   0.683230 0.499970 0.385330 -0.609264
Zn1   Zn    Zn3+2 0.500010 0.500020 0.653130 0.946814
Zn2   Zn    Zn3+2 0.499990 0.499980 0.346870 0.954824
I1    I     I_    0.833415 0.752510 0.339033 -0.464552

loop_
_geom_bond_atom_site_label_1
_geom_bond_atom_site_label_2
_ccdc_geom_bond_type
N2    Zn1   S    
C13   C14   A    
C11   H2    S    
C19   H6    S    
C16   C21   A    
C36   H20   S    
C25   N1    A    
O3    Zn1   S    
C11   C13   A    
C12   O4    A    
O5    Zn1   S    
C1    C17   S    
C19   C20   A    
C2    H1    S    
C20   C23   S    
C33   H18   S    
C24   H10   S    
C28   N2    A    
C33   C34   A    
C9    C15   A    
C7    C8    A    
C16   C24   S    
C10   H23   S    
C8    C34   S    
C21   C22   S    
C32   C33   A    
C25   C28   A    
C32   H12   S    
C6    H21   S    
C26   C27   A    
C29   C30   S    
C26   H11   S    
C24   H9    S    
C1    O2    A    
C23   O5    A    
C2    C32   A    
C28   C29   S    
C14   H4    S    
C29   H15   S    
C9    H22   S    
C6    C7    A    
O6    Zn2   S    
C29   H14   S    
C3    C8    A    
C17   C18   A    
C5    C6    A    
C12   O3    A    
C30   H17   S    
C22   C24   S    
C7    C12   S    
C5    C15   S    
C4    C31   S    
C13   H3    S    
C10   C11   A    
C35   H19   S    
C3    C4    A    
C31   O8    A    
C3    I1    S    
C2    C36   A    
C20   C21   A    
O1    Zn1   S    
C1    O1    A    
O7    Zn1   S    
C34   C35   A    
C9    C10   A    
C18   H5    S    
C23   O6    A    
C25   C30   S    
O8    Zn2   S    
C30   H16   S    
C14   C15   A    
C18   C19   A    
C27   N2    A    
N1    Zn2   S    
O4    Zn2   S    
C26   N1    A    
C31   O7    A    
C22   H7    S    
C22   H8    S    
C27   H13   S    
C16   C17   A    
O2    Zn2   S    
C4    C5    A    
C35   C36   A    
