data_mof_unit_22450.cif
_audit_creation_date              2012-12-10T20:44:45-0500
_audit_creation_method            fapswitch 2.2
_symmetry_space_group_name_H-M    P1
_symmetry_Int_Tables_number       1
_space_group_crystal_system       triclinic
_cell_length_a                    9.92034
_cell_length_b                    10.666899
_cell_length_c                    16.861389
_cell_angle_alpha                 89.418038
_cell_angle_beta                  94.753807
_cell_angle_gamma                 89.575857
_cell_volume                      1777.96935792

loop_
_atom_site_label
_atom_site_type_symbol
_atom_type_description
_atom_site_fract_x
_atom_site_fract_y
_atom_site_fract_z
_atom_type_partial_charge
C1    C     C_R   0.500127 0.260546 0.496902 0.891730
C2    C     C_R   0.588990 0.376183 0.772634 -0.188975
C3    C     C_R   0.574892 0.448422 0.140784 -0.206726
C4    C     C_R   0.583441 0.455701 0.222526 -0.238609
C5    C     C_R   0.452387 0.477892 0.095833 0.314109
C6    C     C_R   0.470424 0.492278 0.260978 -0.046838
C7    C     C_R   0.347234 0.519256 0.217119 -0.262792
C8    C     C_R   0.337782 0.512744 0.134139 0.100200
C9    C     C_R   0.613998 0.062421 0.518010 0.061119
C10   C     C_R   0.501809 0.129165 0.485728 -0.112875
C11   C     C_R   0.396372 0.067951 0.440115 0.051250
C12   C     C_R   0.518166 0.497316 0.652530 0.885876
C13   C     C_R   0.395513 0.935598 0.441252 0.046708
C14   C     C_R   0.498623 0.871542 0.488433 -0.080815
C15   C     C_R   0.609773 0.935749 0.521830 -0.003761
C16   C     C_3   0.686743 0.929490 0.602448 -0.169887
C17   C     C_3   0.693337 0.071902 0.597137 -0.527393
C18   C     C_R   0.079746 0.537284 0.565371 0.143627
C19   C     C_R   0.062596 0.471805 0.433050 -0.126067
C20   C     C_R   0.919146 0.472432 0.432947 -0.125661
C21   C     C_R   0.937776 0.533458 0.566065 0.100054
C22   C     C_3   0.946184 0.472968 0.647813 -0.053770
C23   C     C_R   0.499128 0.739551 0.497476 0.953110
C24   C     C_3   0.101062 0.486515 0.649070 0.082423
C25   C     C_R   0.481958 0.500057 0.346941 0.866032
C26   C     C_R   0.531097 0.485196 0.737388 0.001904
C27   C     C_R   0.482683 0.580626 0.783247 -0.251090
C28   C     C_R   0.487143 0.565208 0.864826 -0.163045
C29   C     C_R   0.539665 0.453221 0.900527 0.305329
C30   C     C_R   0.594329 0.360808 0.854577 -0.142728
H1    H     H_    0.679036 0.433046 0.255509 0.159602
H2    H     H_    0.786733 0.882329 0.600518 0.177450
H3    H     H_    0.637117 0.123079 0.641392 0.187440
H4    H     H_    0.797498 0.105935 0.591125 0.206386
H5    H     H_    0.108760 0.447155 0.379391 0.148797
H6    H     H_    0.858557 0.448446 0.379101 0.145524
H7    H     H_    0.665540 0.422869 0.112929 0.161783
H8    H     H_    0.637332 0.275777 0.882107 0.152053
H9    H     H_    0.626727 0.302257 0.736748 0.130796
H10   H     H_    0.259571 0.547201 0.247172 0.155813
H11   H     H_    0.449278 0.640068 0.900019 0.163282
H12   H     H_    0.441196 0.666295 0.756053 0.177679
N1    N     N_2   0.542328 0.433617 0.982971 -0.209673
N2    N     N_2   0.444705 0.484291 0.012110 -0.180938
N3    N     N_R   0.142860 0.499130 0.500540 -0.110180
N4    N     N_R   0.857210 0.499170 0.500530 -0.113368
O1    O     O_R   0.614690 0.316790 0.499990 -0.632723
O2    O     O_R   0.385350 0.316760 0.500000 -0.591263
O3    O     O_R   0.627460 0.498860 0.616130 -0.622945
O4    O     O_R   0.398120 0.498820 0.616130 -0.606438
O5    O     O_R   0.614650 0.683240 0.500000 -0.619756
O6    O     O_R   0.385310 0.683210 0.500010 -0.584956
O7    O     O_R   0.601880 0.501180 0.383870 -0.631177
O8    O     O_R   0.372540 0.501140 0.383870 -0.629253
Zn1   Zn    Zn3+2 0.653130 0.500020 0.499990 0.951983
Zn2   Zn    Zn3+2 0.346870 0.499980 0.500010 0.971619
N5    N     N_3   0.292359 0.865952 0.396601 -0.444053
H13   H     H_    0.198549 0.888226 0.417030 0.198223
H14   H     H_    0.292199 0.890852 0.336468 0.173700
C31   C     C_2   0.609204 0.886056 0.671057 0.983203
O9    O     O_2   0.489095 0.860333 0.661177 -0.674689
O10   O     O_R   0.676479 0.878389 0.747107 -0.763130
H15   H     H_    0.615446 0.849337 0.788880 0.333817
C32   C     C_2   0.882735 0.548556 0.710861 1.004958
O11   O     O_2   0.828562 0.649871 0.694217 -0.620638
O12   O     O_R   0.889075 0.502404 0.788954 -0.795197
H16   H     H_    0.843350 0.560379 0.825957 0.347355
N6    N     N_3   0.901699 0.341587 0.646872 -0.457221
H17   H     H_    0.796705 0.338382 0.646071 0.211887
H18   H     H_    0.926065 0.298124 0.594545 0.174897
N7    N     N_3   0.155173 0.582459 0.704574 -0.436810
H19   H     H_    0.190559 0.539522 0.758408 0.218384
H20   H     H_    0.235975 0.627926 0.681166 0.225977
N8    N     N_3   0.179796 0.368916 0.656733 -0.395822
H21   H     H_    0.154399 0.309612 0.608914 0.199673
H22   H     H_    0.157672 0.322594 0.708985 0.211088
N9    N     N_3   0.213591 0.543956 0.087944 -0.442686
H23   H     H_    0.140075 0.572819 0.125018 0.177477
H24   H     H_    0.177635 0.461905 0.060481 0.193686
N10   N     N_3   0.293059 0.141060 0.395269 -0.432406
H25   H     H_    0.337792 0.183858 0.348057 0.174413
H26   H     H_    0.214330 0.086246 0.370355 0.173937

loop_
_geom_bond_atom_site_label_1
_geom_bond_atom_site_label_2
_ccdc_geom_bond_type
C18   C21   A    
C19   C20   A    
C12   O3    A    
C23   O6    A    
C7    C8    A    
N9    H23   S    
C26   C27   A    
C29   C30   A    
N8    H22   S    
C18   C24   S    
C28   C29   A    
C25   O7    A    
N5    H14   S    
C6    C25   S    
C13   N5    S    
C15   C16   S    
C28   H11   S    
C30   H8    S    
C31   O10   S    
C16   C31   S    
N6    H17   S    
C2    H9    S    
N3    Zn2   S    
C16   C17   S    
N4    Zn1   S    
C7    H10   S    
C9    C10   A    
N9    H24   S    
O12   H16   S    
C21   C22   S    
C29   N1    S    
C17   H3    S    
O7    Zn1   S    
O8    Zn2   S    
N8    H21   S    
C25   O8    A    
C4    C6    A    
C10   C11   A    
N7    H20   S    
C1    O1    A    
O3    Zn1   S    
O4    Zn2   S    
C12   C26   S    
C31   O9    D    
C32   O12   S    
C14   C23   S    
N1    N2    D    
O10   H15   S    
C23   O5    A    
C2    C26   A    
C22   N6    S    
C9    C17   S    
C5    N2    S    
C8    N9    S    
C22   C24   S    
C17   H4    S    
C3    C4    A    
C18   N3    A    
O1    Zn1   S    
C21   N4    A    
O2    Zn2   S    
C1    C10   S    
N10   H25   S    
C3    C5    A    
C5    C8    A    
C12   O4    A    
C19   N3    A    
C1    O2    A    
C6    C7    A    
C16   H2    S    
C2    C30   A    
C32   O11   D    
C9    C15   A    
N7    H19   S    
C19   H5    S    
C11   C13   A    
C27   H12   S    
C24   N8    S    
N5    H13   S    
N10   H26   S    
O5    Zn1   S    
C4    H1    S    
C11   N10   S    
C22   C32   S    
C20   H6    S    
C3    H7    S    
N6    H18   S    
C27   C28   A    
C14   C15   A    
C13   C14   A    
C20   N4    A    
O6    Zn2   S    
C24   N7    S    
