data_mof_unit_50487.cif
_audit_creation_date              2012-12-11T15:09:42-0500
_audit_creation_method            fapswitch 2.2
_symmetry_space_group_name_H-M    P1
_symmetry_Int_Tables_number       1
_space_group_crystal_system       triclinic
_cell_length_a                    20.991135
_cell_length_b                    7.123315
_cell_length_c                    13.932114
_cell_angle_alpha                 89.949106
_cell_angle_beta                  98.339679
_cell_angle_gamma                 89.998289
_cell_volume                      2061.19010294

loop_
_atom_site_label
_atom_site_type_symbol
_atom_type_description
_atom_site_fract_x
_atom_site_fract_y
_atom_site_fract_z
_atom_type_partial_charge
O1    O     O_R   0.447130 0.507140 0.597350 -0.554058
O2    O     O_R   0.552870 0.007140 0.402650 -0.542828
O3    O     O_R   0.578910 0.181280 0.586990 -0.545351
O4    O     O_R   0.421090 0.681280 0.413010 -0.550124
C1    C     C_R   0.604557 0.344544 0.607213 0.756789
C2    C     C_R   0.395488 0.844470 0.392672 0.755887
O5    O     O_R   0.449230 0.177860 0.608640 -0.529452
O6    O     O_R   0.550770 0.677860 0.391360 -0.538705
O7    O     O_R   0.422260 0.000770 0.424450 -0.533944
O8    O     O_R   0.577740 0.500770 0.575550 -0.539471
C3    C     C_R   0.431617 0.345616 0.633120 0.762433
C4    C     C_R   0.568392 0.846264 0.366879 0.761252
O9    O     O_3   0.491310 0.336980 0.439550 -0.378652
O10   O     O_3   0.508690 0.836980 0.560450 -0.381696
V1    V     V_3+5 0.501610 0.064760 0.511210 1.440519
V2    V     V_3+5 0.498390 0.564760 0.488790 1.414685
C5    C     C_R   0.622647 0.866534 0.123403 -0.268765
C6    C     C_R   0.377534 0.324224 0.876103 -0.253533
H1    H     H_    0.601645 0.873391 0.047925 0.155712
H2    H     H_    0.399257 0.296615 0.949983 0.171409
C7    C     C_R   0.611556 0.856698 0.293793 -0.225347
C8    C     C_R   0.388565 0.352057 0.706386 -0.227113
C9    C     C_R   0.922018 0.915963 0.305430 -0.326514
C10   C     C_R   0.078781 0.423849 0.695679 -0.319557
C11   C     C_R   0.885006 0.971484 0.376359 0.407887
C12   C     C_R   0.116322 0.484541 0.626779 0.403249
C13   C     C_R   0.817491 0.981550 0.351885 0.215735
C14   C     C_R   0.183737 0.493662 0.652107 0.210978
C15   C     C_R   0.786898 0.895630 0.265105 0.029120
C16   C     C_R   0.213792 0.399862 0.736996 0.030161
C17   C     C_R   0.825023 0.854319 0.191587 -0.051388
C18   C     C_R   0.175159 0.351855 0.808991 -0.048161
C19   C     C_R   0.718780 0.870737 0.244902 -0.009898
C20   C     C_R   0.281672 0.369221 0.756317 -0.014495
C21   C     C_R   0.689669 0.855148 0.146847 -0.058232
C22   C     C_R   0.310453 0.334088 0.853347 -0.063641
C23   C     C_R   0.727880 0.826251 0.073214 0.422282
C24   C     C_R   0.271845 0.301668 0.926193 0.429218
C25   C     C_R   0.794636 0.814737 0.097079 -0.249527
C26   C     C_R   0.204949 0.300683 0.902268 -0.255995
C27   C     C_R   0.679821 0.847918 0.319536 0.344763
C28   C     C_R   0.320259 0.354651 0.680633 0.344383
C29   C     C_R   0.583061 0.874419 0.196434 0.372966
C30   C     C_R   0.417084 0.343301 0.803957 0.362367
C31   C     C_R   0.892737 0.866097 0.212525 -0.096865
C32   C     C_R   0.107505 0.367411 0.787867 -0.102399
H3    H     H_    0.973970 0.928651 0.319889 0.121441
H4    H     H_    0.026848 0.436993 0.680028 0.127506
H5    H     H_    0.822409 0.779695 0.039914 0.131570
H6    H     H_    0.176640 0.262430 0.958291 0.131731
C33   C     C_1   0.166590 0.857043 0.168415 -0.195435
C34   C     C_1   0.833471 0.357659 0.831404 -0.193391
C35   C     C_1   0.218982 0.854680 0.219604 0.009964
C36   C     C_1   0.781123 0.355902 0.780090 0.009423
C37   C     C_1   0.280669 0.853230 0.279701 -0.016211
C38   C     C_1   0.719464 0.354757 0.719913 -0.017161
C39   C     C_1   0.333045 0.851028 0.330906 -0.212949
C40   C     C_1   0.667062 0.351866 0.668772 -0.214458
O11   O     O_R   0.922300 0.202240 0.924350 -0.534787
O12   O     O_R   0.077700 0.702240 0.075650 -0.534592
O13   O     O_R   0.050780 0.535130 0.891350 -0.539634
O14   O     O_R   0.949220 0.035130 0.108650 -0.540023
C41   C     C_R   0.067239 0.368598 0.865126 0.724861
C42   C     C_R   0.932833 0.868413 0.134980 0.725124
O15   O     O_R   0.921100 0.531560 0.912990 -0.537887
O16   O     O_R   0.078900 0.031560 0.087010 -0.538921
O17   O     O_R   0.947120 0.708470 0.097370 -0.539150
O18   O     O_R   0.052880 0.208470 0.902630 -0.539620
C43   C     C_R   0.895887 0.363674 0.893365 0.716713
C44   C     C_R   0.104125 0.863549 0.106592 0.715158
O19   O     O_3   0.008710 0.375800 0.060400 -0.374440
O20   O     O_3   0.991290 0.875800 0.939600 -0.373730
V3    V     V_3+5 0.998380 0.648080 0.988790 1.415350
V4    V     V_3+5 0.001620 0.148080 0.011210 1.412996
O21   O     O_3   0.516751 0.905826 0.177299 -0.552613
C45   C     C_3   0.487276 0.815168 0.092131 0.073205
H7    H     H_    0.505682 0.669278 0.086977 0.109936
H8    H     H_    0.494881 0.897780 0.027001 0.133658
C46   C     C_3   0.415117 0.804668 0.093850 -0.686999
H9    H     H_    0.394818 0.948235 0.096785 0.254400
H10   H     H_    0.391423 0.733382 0.027247 0.172439
H11   H     H_    0.405289 0.724455 0.158445 0.216215
O22   O     O_3   0.483530 0.321356 0.824534 -0.551500
C47   C     C_3   0.510215 0.438387 0.901818 0.050346
H12   H     H_    0.503005 0.375856 0.972547 0.127391
H13   H     H_    0.489287 0.582576 0.895000 0.113924
C48   C     C_3   0.582307 0.453823 0.900941 -0.660580
H14   H     H_    0.591828 0.520217 0.832319 0.223484
H15   H     H_    0.604174 0.540304 0.963266 0.213904
H16   H     H_    0.604605 0.312155 0.907088 0.217278
O23   O     O_3   0.699302 0.780042 0.980496 -0.562757
C49   C     C_3   0.706657 0.929891 0.916840 0.077977
H17   H     H_    0.757422 0.939353 0.902817 0.129819
H18   H     H_    0.692053 0.066368 0.946248 0.118295
C50   C     C_3   0.663611 0.893571 0.821111 -0.693837
H19   H     H_    0.612501 0.885216 0.833055 0.221590
H20   H     H_    0.668544 0.009068 0.769559 0.187063
H21   H     H_    0.677496 0.759671 0.788983 0.223151
O24   O     O_3   0.299903 0.246851 0.018101 -0.559396
C51   C     C_3   0.290692 0.388209 0.085744 0.070506
H22   H     H_    0.240837 0.381955 0.103857 0.131912
H23   H     H_    0.299799 0.531265 0.058073 0.120269
C52   C     C_3   0.337699 0.355856 0.178121 -0.690469
H24   H     H_    0.387862 0.354848 0.161408 0.222745
H25   H     H_    0.333007 0.469938 0.230755 0.176791
H26   H     H_    0.327514 0.219382 0.211260 0.230342
O25   O     O_3   0.709435 0.768802 0.406908 -0.548135
C53   C     C_3   0.691957 0.852957 0.491399 0.153694
H27   H     H_    0.649802 0.780095 0.513417 0.123334
H28   H     H_    0.681463 0.005661 0.481964 0.127471
C54   C     C_3   0.746364 0.825659 0.575461 -0.691885
H29   H     H_    0.792266 0.883863 0.557970 0.245414
H30   H     H_    0.734204 0.897329 0.641127 0.171582
H31   H     H_    0.753333 0.673692 0.591460 0.218580
O26   O     O_3   0.289594 0.286960 0.591222 -0.548406
C55   C     C_3   0.308521 0.375814 0.508903 0.159371
H32   H     H_    0.349991 0.301106 0.485748 0.120463
H33   H     H_    0.320438 0.526886 0.521791 0.129049
C56   C     C_3   0.254272 0.359046 0.423819 -0.698971
H34   H     H_    0.208938 0.419772 0.441969 0.242747
H35   H     H_    0.267563 0.434722 0.360003 0.173484
H36   H     H_    0.245747 0.208995 0.404422 0.216989
N1    N     N_3   0.780807 0.102470 0.405913 -0.662731
H37   H     H_    0.809589 0.165965 0.464348 0.264852
H38   H     H_    0.762422 0.211689 0.359842 0.221099
N2    N     N_3   0.220758 0.619172 0.600973 -0.661354
H39   H     H_    0.191924 0.688694 0.544551 0.262081
H40   H     H_    0.239655 0.723528 0.649687 0.219794
O27   O     O_3   0.914254 0.041450 0.464806 -0.569603
C57   C     C_3   0.954115 0.902637 0.515321 0.078241
H41   H     H_    0.000988 0.895732 0.487188 0.154873
H42   H     H_    0.930950 0.761213 0.509670 0.132291
C58   C     C_3   0.967447 0.954300 0.622286 -0.681921
H43   H     H_    0.921538 0.961670 0.652986 0.213432
H44   H     H_    0.998959 0.846450 0.662557 0.195917
H45   H     H_    0.991980 0.092497 0.631378 0.208251
O28   O     O_3   0.086963 0.557673 0.539387 -0.569471
C59   C     C_3   0.060177 0.408445 0.479984 0.067638
H46   H     H_    0.018082 0.346875 0.508908 0.156023
H47   H     H_    0.096497 0.296208 0.474159 0.128686
C60   C     C_3   0.037123 0.482211 0.378401 -0.693470
H48   H     H_    0.077825 0.547333 0.347675 0.214784
H49   H     H_    0.017341 0.364873 0.330684 0.191736
H50   H     H_    0.998723 0.588337 0.380833 0.210048

loop_
_geom_bond_atom_site_label_1
_geom_bond_atom_site_label_2
_ccdc_geom_bond_type
C24   C26   A    
C48   H14   S    
N2    H39   S    
C9    C31   A    
C13   C15   A    
C50   H19   S    
O1    C3    A    
C45   C46   S    
C30   O22   S    
C11   O27   S    
C2    O7    A    
C50   H21   S    
N1    H37   S    
O16   C44   A    
C55   H32   S    
O5    C3    A    
C1    C40   S    
C21   C23   A    
C45   H8    S    
C60   H49   S    
O15   C43   A    
N1    H38   S    
O18   V4    S    
O26   C55   S    
O16   V4    S    
C15   C19   A    
O12   V3    S    
C13   N1    S    
O15   V3    S    
C53   H27   S    
O13   C41   A    
C49   H17   S    
O14   C42   A    
C34   C43   S    
C5    H1    S    
C7    C29   A    
C52   H25   S    
C8    C30   A    
O22   C47   S    
C38   C40   T    
C14   C16   A    
C20   C28   A    
C58   H45   S    
O25   C53   S    
C47   C48   S    
O17   V3    S    
C33   C44   S    
C52   H26   S    
C20   C22   A    
C12   O28   S    
C56   H35   S    
O2    C4    A    
O6    V2    S    
C2    C39   S    
C55   C56   S    
C51   H23   S    
C34   C36   T    
C35   C37   S    
C29   O21   S    
C36   C38   S    
C9    H3    S    
C23   O23   S    
C10   H4    S    
C42   O17   A    
C45   H7    S    
O4    C2    A    
C55   H33   S    
C60   H50   S    
O23   C49   S    
O19   V3    S    
C16   C20   A    
C24   O24   S    
O13   V3    S    
C4    C7    S    
C49   C50   S    
C33   C35   T    
O4    V2    S    
C57   H42   S    
O21   C45   S    
C5    C29   A    
C6    C30   A    
O19   V4    S    
O24   C51   S    
O12   C44   A    
O6    C4    A    
C49   H18   S    
C54   H30   S    
O1    V2    S    
C47   H12   S    
O2    V1    S    
O11   V4    S    
C59   H47   S    
O11   C43   A    
C7    C27   A    
O20   V4    S    
C25   H5    S    
C37   C39   T    
C58   H43   S    
C48   H16   S    
C57   C58   S    
C11   C13   A    
C22   C24   A    
O3    V1    S    
C46   H10   S    
O27   C57   S    
C56   H36   S    
C41   O18   A    
N2    H40   S    
C27   O25   S    
C54   H29   S    
C18   C32   A    
O14   V4    S    
C10   C12   A    
O20   V3    S    
O3    C1    A    
C59   C60   S    
C46   H11   S    
C56   H34   S    
C50   H20   S    
C14   N2    S    
O28   C59   S    
C31   C42   S    
C12   C14   A    
C53   C54   S    
C32   C41   S    
C19   C27   A    
C48   H15   S    
C57   H41   S    
O7    V1    S    
C10   C32   A    
C1    O8    A    
C23   C25   A    
O8    V2    S    
C60   H48   S    
C16   C18   A    
C8    C28   A    
C53   H28   S    
C26   H6    S    
O5    V1    S    
C51   H22   S    
C19   C21   A    
C17   C25   A    
C54   H31   S    
C6    H2    S    
C18   C26   A    
C51   C52   S    
C59   H46   S    
C46   H9    S    
C28   O26   S    
C9    C11   A    
C3    C8    S    
C15   C17   A    
C17   C31   A    
O9    V2    S    
C52   H24   S    
C58   H44   S    
O10   V1    S    
C47   H13   S    
C5    C21   A    
C6    C22   A    
