data_mof_unit_66342.cif
_audit_creation_date              2012-12-10T16:42:41-0500
_audit_creation_method            fapswitch 2.2
_symmetry_space_group_name_H-M    P1
_symmetry_Int_Tables_number       1
_space_group_crystal_system       triclinic
_cell_length_a                    19.014299
_cell_length_b                    18.966521
_cell_length_c                    19.128756
_cell_angle_alpha                 109.564052
_cell_angle_beta                  109.959532
_cell_angle_gamma                 109.134148
_cell_volume                      5294.2061969

loop_
_atom_site_label
_atom_site_type_symbol
_atom_type_description
_atom_site_fract_x
_atom_site_fract_y
_atom_site_fract_z
_atom_type_partial_charge
C1    C     C_R   0.378163 0.382005 0.495422 0.897259
C2    C     C_R   0.757272 0.578462 0.754427 -0.032463
C3    C     C_R   0.812148 0.498902 0.811456 -0.071038
C4    C     C_R   0.742207 0.419243 0.737545 -0.221951
C5    C     C_R   0.672162 0.419452 0.680381 -0.122910
C6    C     C_R   0.682951 0.499056 0.685236 -0.071074
C7    C     C_R   0.739344 0.338973 0.718739 0.482689
C8    C     C_R   0.664139 0.261127 0.654272 0.543204
C9    C     C_R   0.588490 0.260456 0.607270 -0.112838
C10   C     C_R   0.593363 0.339878 0.620469 0.482725
C11   C     C_2   0.174685 0.256191 0.497049 0.048427
C12   C     C_R   0.617617 0.499756 0.618101 0.911027
C13   C     C_2   0.185893 0.202442 0.525649 0.395512
C14   C     C_2   0.254565 0.329588 0.520317 0.150393
C15   C     C_2   0.296866 0.313459 0.476763 -0.035836
C16   C     C_2   0.165400 0.432665 0.196276 0.447439
C17   C     C_2   0.183177 0.490351 0.169667 0.282017
C18   C     C_2   0.233882 0.424677 0.253936 0.101857
C19   C     C_2   0.309952 0.496512 0.317603 -0.294144
C20   C     C_2   0.736284 0.811505 0.484063 0.011594
C21   C     C_2   0.820225 0.832668 0.517954 0.372162
C22   C     C_2   0.686847 0.763372 0.513664 0.244017
C23   C     C_R   0.614020 0.617391 0.496839 0.824381
C24   C     C_2   0.667130 0.680179 0.482515 -0.315039
C25   C     C_R   0.994120 0.382362 0.876896 0.929318
C26   C     C_R   0.878796 0.499577 0.878574 0.852773
C27   C     C_R   0.000236 0.617637 0.116816 0.837771
C28   C     C_R   0.115175 0.497245 0.111952 0.774625
C29   C     C_R   0.001182 0.119237 0.616922 0.884437
C30   C     C_R   0.117288 0.122355 0.505779 0.736150
C31   C     C_R   0.995741 0.877627 0.383314 0.827147
C32   C     C_R   0.882690 0.885795 0.503133 0.731839
C33   C     C_2   0.981515 0.244770 0.669109 0.597776
C34   C     C_R   0.379278 0.497443 0.382122 0.826814
C35   C     C_2   0.008915 0.191808 0.684423 -0.466762
C36   C     C_2   0.998357 0.322028 0.740853 0.075768
C37   C     C_2   0.984574 0.313899 0.803445 -0.316171
C38   C     C_2   0.029724 0.760700 0.329710 0.096569
C39   C     C_2   0.975163 0.793525 0.317663 -0.057544
C40   C     C_2   0.008472 0.680767 0.258105 0.135899
C41   C     C_2   0.012895 0.686581 0.191272 -0.390007
C42   C     C_R   0.772989 0.658411 0.758404 -0.278212
C43   C     C_R   0.839677 0.736701 0.832073 0.676609
C44   C     C_R   0.893041 0.737555 0.904959 0.092361
C45   C     C_R   0.881298 0.658271 0.898677 -0.318006
C46   C     C_R   0.817282 0.578413 0.822053 0.058898
Cu1   Cu    Cu3+1 0.500390 0.438990 0.439360 0.987484
Cu2   Cu    Cu3+1 0.499610 0.561010 0.560640 0.952025
Cu3   Cu    Cu3+1 0.935830 0.439030 0.996840 1.047608
Cu4   Cu    Cu3+1 0.057850 0.561040 0.996790 0.968968
Cu5   Cu    Cu3+1 0.061410 0.000010 0.561410 1.008950
Cu6   Cu    Cu3+1 0.938590 0.999990 0.438590 0.959657
H1    H     H_    0.318413 0.559625 0.329331 0.172049
H2    H     H_    0.734403 0.661857 0.704451 0.180237
H3    H     H_    0.686816 0.654190 0.437326 0.148130
H4    H     H_    0.044878 0.206526 0.750228 0.120969
H5    H     H_    0.957554 0.250172 0.796571 0.138844
H6    H     H_    0.034424 0.749249 0.195215 0.128732
H7    H     H_    0.922565 0.660310 0.955519 0.167315
O1    O     O_R   0.411310 0.359450 0.448800 -0.550775
O2    O     O_R   0.048900 0.462510 0.908320 -0.606806
O3    O     O_R   0.855710 0.448510 0.907250 -0.538994
O4    O     O_R   0.958760 0.551540 0.907200 -0.612953
O5    O     O_R   0.944780 0.537560 0.085320 -0.588403
O6    O     O_R   0.047820 0.640590 0.085270 -0.599407
O7    O     O_R   0.034920 0.448530 0.086440 -0.549969
O8    O     O_R   0.137970 0.551560 0.086390 -0.547795
O9    O     O_R   0.051300 0.089020 0.640330 -0.589153
O10   O     O_R   0.947570 0.089010 0.536620 -0.522453
O11   O     O_R   0.140880 0.089030 0.551840 -0.534394
O12   O     O_R   0.410660 0.462490 0.551220 -0.622838
O13   O     O_R   0.037150 0.089020 0.448130 -0.611533
O14   O     O_R   0.052430 0.910990 0.463380 -0.591077
O15   O     O_R   0.948700 0.910980 0.359670 -0.583907
O16   O     O_R   0.962850 0.910980 0.551870 -0.526257
O17   O     O_R   0.859120 0.910970 0.448160 -0.639189
O18   O     O_R   0.589930 0.448490 0.538390 -0.548735
O19   O     O_R   0.589280 0.551530 0.640800 -0.590636
O20   O     O_R   0.589340 0.537510 0.448780 -0.583133
O21   O     O_R   0.588690 0.640550 0.551200 -0.603903
O22   O     O_R   0.410720 0.448470 0.359200 -0.588830
O23   O     O_R   0.410070 0.551510 0.461610 -0.599043
O24   O     O_R   0.945860 0.359480 0.908360 -0.530614
C47   C     C_3   0.501285 0.178742 0.541098 -0.309091
C48   C     C_3   0.494035 0.093377 0.532969 -0.719637
H8    H     H_    0.533568 0.076639 0.506423 0.288809
H9    H     H_    0.513469 0.096520 0.596162 0.282183
H10   H     H_    0.425774 0.040975 0.487478 0.205648
H11   H     H_    0.452614 0.186244 0.557753 0.240631
H12   H     H_    0.482938 0.173113 0.476952 0.206098
F1    F     F_    0.267584 0.226657 0.583385 -0.660139
C49   C     C_3   0.292847 0.416768 0.599485 -0.329881
C50   C     C_3   0.244455 0.418650 0.649066 -0.821420
H13   H     H_    0.282061 0.482353 0.709075 0.237344
H14   H     H_    0.180886 0.410536 0.610456 0.247632
H15   H     H_    0.236214 0.367876 0.667163 0.273581
H16   H     H_    0.359464 0.436079 0.645772 0.241433
H17   H     H_    0.294978 0.465728 0.579468 0.198117
C51   C     C_3   0.257412 0.224398 0.398483 -0.423771
C52   C     C_3   0.304629 0.176065 0.418187 -0.737678
H18   H     H_    0.372266 0.211488 0.434227 0.286252
H19   H     H_    0.304021 0.167163 0.472352 0.289903
H20   H     H_    0.272154 0.111367 0.360668 0.209903
H21   H     H_    0.187864 0.181976 0.372196 0.186084
H22   H     H_    0.260537 0.232570 0.344570 0.207129
F2    F     F_    0.082005 0.376971 0.167921 -0.673983
F3    F     F_    0.265275 0.539496 0.189461 -0.684318
C53   C     C_3   0.208638 0.337517 0.248205 -0.335676
C54   C     C_3   0.170276 0.329625 0.305337 -0.826804
H23   H     H_    0.220138 0.376426 0.374086 0.221990
H24   H     H_    0.115506 0.342303 0.289426 0.300326
H25   H     H_    0.145386 0.263155 0.294874 0.223918
H26   H     H_    0.159429 0.285544 0.180566 0.229955
H27   H     H_    0.263806 0.325706 0.265713 0.196729
C55   C     C_3   0.691330 0.829284 0.414604 -0.445187
C56   C     C_3   0.593083 0.785780 0.374293 -0.782521
H28   H     H_    0.564227 0.714696 0.345689 0.256493
H29   H     H_    0.575040 0.810826 0.422682 0.254405
H30   H     H_    0.565717 0.799453 0.322360 0.251473
H31   H     H_    0.718147 0.900080 0.442124 0.236066
H32   H     H_    0.703722 0.804172 0.361283 0.221118
F4    F     F_    0.853121 0.810113 0.576937 -0.642037
C57   C     C_3   0.666234 0.808384 0.579851 -0.340518
C58   C     C_3   0.707688 0.906222 0.617141 -0.778770
H33   H     H_    0.779029 0.936593 0.647806 0.267465
H34   H     H_    0.682792 0.922120 0.566505 0.254331
H35   H     H_    0.692027 0.933936 0.666929 0.251046
H36   H     H_    0.595109 0.779911 0.550180 0.198064
H37   H     H_    0.690932 0.797943 0.634991 0.246527
F5    F     F_    0.942974 0.231995 0.588129 -0.660160
C59   C     C_3   0.026556 0.404666 0.736902 -0.360330
C60   C     C_3   0.953356 0.424554 0.710206 -0.670891
H38   H     H_    0.895990 0.368716 0.648324 0.276049
H39   H     H_    0.935100 0.439494 0.760088 0.271508
H40   H     H_    0.974737 0.481604 0.701881 0.211085
H41   H     H_    0.084122 0.459927 0.798689 0.207631
H42   H     H_    0.047365 0.397876 0.688412 0.208180
C61   C     C_3   0.119572 0.807994 0.407958 -0.373995
C62   C     C_3   0.117732 0.789386 0.479410 -0.757633
H43   H     H_    0.101404 0.721536 0.459971 0.232989
H44   H     H_    0.182438 0.832410 0.538535 0.234101
H45   H     H_    0.069432 0.799856 0.494552 0.271823
H46   H     H_    0.161577 0.786653 0.389409 0.199061
H47   H     H_    0.152081 0.878391 0.431934 0.205607
C63   C     C_3   0.884306 0.740895 0.238205 -0.417069
C64   C     C_3   0.815991 0.705816 0.261001 -0.806434
H48   H     H_    0.827848 0.664156 0.287323 0.247211
H49   H     H_    0.816770 0.759220 0.309172 0.253613
H50   H     H_    0.750957 0.666612 0.202297 0.243071
H51   H     H_    0.871624 0.781998 0.211429 0.216948
H52   H     H_    0.874518 0.684977 0.184581 0.214907
C65   C     C_3   0.986331 0.600071 0.265314 -0.338623
C66   C     C_3   0.060461 0.580678 0.284214 -0.772394
H53   H     H_    0.080801 0.577105 0.236031 0.242668
H54   H     H_    0.116994 0.631814 0.348813 0.231596
H55   H     H_    0.039503 0.517970 0.282704 0.256281
H56   H     H_    0.972392 0.608760 0.318553 0.194325
H57   H     H_    0.926270 0.544017 0.206280 0.219640
F6    F     F_    0.849715 0.810200 0.830535 -0.671349
C67   C     C_3   0.964481 0.818596 0.990613 -0.423910
C68   C     C_3   0.974214 0.904864 0.999513 -0.682939
H58   H     H_    0.993939 0.917799 0.954769 0.288967
H59   H     H_    0.913205 0.905691 0.987885 0.276711
H60   H     H_    0.025617 0.957600 0.066077 0.204235
H61   H     H_    0.952904 0.812922 0.042186 0.192137
H62   H     H_    0.027017 0.820897 0.003398 0.207545
F7    F     F_    0.810137 0.334104 0.758933 -0.642381
F8    F     F_    0.667028 0.187369 0.639849 -0.624484
F9    F     F_    0.518897 0.338727 0.578519 -0.673936
C69   C     C_3   0.088395 0.239594 0.433718 -0.522355
C70   C     C_3   0.032471 0.250451 0.473558 -0.631283
H63   H     H_    0.046443 0.236359 0.526986 0.265573
H64   H     H_    0.043525 0.317279 0.498609 0.221792
H65   H     H_    0.963161 0.206055 0.423598 0.254854
H66   H     H_    0.099261 0.285361 0.409285 0.218316
H67   H     H_    0.053163 0.174133 0.376472 0.216892

loop_
_geom_bond_atom_site_label_1
_geom_bond_atom_site_label_2
_ccdc_geom_bond_type
C33   F5    S    
C70   H63   S    
C50   H13   S    
C55   H32   S    
C11   C13   D    
C53   C54   S    
Cu1   O20   S    
C26   O4    A    
C32   O16   A    
C63   C64   S    
C49   H17   S    
C57   C58   S    
C69   H67   S    
C48   H8    S    
C2    C46   A    
C24   H3    S    
C70   H64   S    
C1    O12   A    
Cu6   O13   S    
C36   C37   D    
Cu5   O16   S    
C41   H6    S    
C43   F6    S    
C61   H46   S    
C17   F3    S    
C6    C12   S    
C5    C6    A    
C33   C35   D    
C11   C14   S    
C31   O14   A    
C69   C70   S    
Cu2   O19   S    
C55   C56   S    
C29   O9    A    
C33   C36   S    
C56   H28   S    
C40   C65   S    
C18   C19   D    
C53   H27   S    
C21   F4    S    
C49   C50   S    
Cu6   O10   S    
C8    F8    S    
C30   O11   A    
Cu1   O1    S    
C22   C57   S    
Cu1   Cu2   S    
C56   H29   S    
C16   C17   D    
C12   O19   A    
C23   C24   S    
C1    C15   S    
Cu5   O11   S    
C67   H62   S    
C23   O21   A    
C66   H54   S    
C36   C59   S    
Cu4   O8    S    
C64   H49   S    
C63   H51   S    
C16   F2    S    
C25   C37   S    
C19   H1    S    
C51   H21   S    
C50   H14   S    
Cu3   O5    S    
C13   F1    S    
Cu4   O4    S    
C2    C6    A    
C47   H12   S    
C4    C7    A    
C68   H59   S    
C49   H16   S    
C68   H58   S    
C29   O10   A    
C69   H66   S    
C48   H9    S    
C51   H22   S    
C70   H65   S    
C65   H57   S    
Cu3   O7    S    
Cu5   Cu6   S    
C13   C30   S    
C7    C8    A    
C28   O8    A    
C47   C48   S    
C59   H41   S    
C61   C62   S    
C54   H25   S    
C8    C9    A    
C31   O15   A    
C45   C46   A    
C52   H20   S    
C10   F9    S    
C53   H26   S    
C28   O7    A    
C43   C44   A    
C27   O6    A    
C64   H50   S    
C27   C41   S    
C51   C52   S    
Cu2   O23   S    
C12   O18   A    
C39   C63   S    
C52   H19   S    
C38   C61   S    
C25   O2    A    
C67   H61   S    
C20   C21   D    
C66   H55   S    
C14   C49   S    
C63   H52   S    
C58   H35   S    
C16   C18   S    
C40   C41   D    
C34   O22   A    
C20   C22   S    
C55   H31   S    
C50   H15   S    
C44   C67   S    
C22   C24   D    
C1    O1    A    
C42   C43   A    
Cu1   O18   S    
Cu2   O12   S    
C3    C4    A    
C68   H60   S    
C44   C45   A    
C58   H34   S    
C64   H48   S    
C9    C10   A    
C48   H10   S    
C7    F7    S    
C65   H56   S    
C45   H7    S    
Cu3   O3    S    
C35   H4    S    
C17   C28   S    
C3    C26   S    
Cu5   O14   S    
C15   C51   S    
C4    C5    A    
Cu6   O17   S    
C19   C34   S    
C32   O17   A    
C20   C55   S    
C30   O13   A    
C62   H43   S    
C37   H5    S    
C29   C35   S    
C3    C46   A    
Cu6   O15   S    
C56   H30   S    
C67   C68   S    
Cu2   O21   S    
C54   H24   S    
C26   O3    A    
C5    C10   A    
C61   H47   S    
C54   H23   S    
C42   H2    S    
C38   C40   S    
C62   H44   S    
Cu3   O24   S    
C57   H36   S    
C38   C39   D    
C2    C42   A    
C60   H40   S    
C52   H18   S    
C62   H45   S    
C31   C39   S    
C60   H38   S    
Cu5   O9    S    
Cu1   O22   S    
Cu4   O6    S    
C18   C53   S    
C27   O5    A    
C9    C47   S    
C21   C32   S    
C65   C66   S    
C11   C69   S    
C60   H39   S    
Cu3   Cu4   S    
C47   H11   S    
C25   O24   A    
Cu4   O2    S    
C14   C15   D    
C58   H33   S    
C34   O23   A    
C23   O20   A    
C66   H53   S    
C57   H37   S    
C59   C60   S    
C59   H42   S    
