data_mof_unit_6321.cif
_audit_creation_date              2013-03-05T16:12:09-0500
_audit_creation_method            fapswitch 2.2
_symmetry_space_group_name_H-M    P1
_symmetry_Int_Tables_number       1
_space_group_crystal_system       triclinic
_cell_length_a                    10.894067
_cell_length_b                    9.506079
_cell_length_c                    27.793814
_cell_angle_alpha                 90.347662
_cell_angle_beta                  89.046753
_cell_angle_gamma                 88.628055
_cell_volume                      2877.03997455

loop_
_atom_site_label
_atom_site_type_symbol
_atom_site_description
_atom_site_fract_x
_atom_site_fract_y
_atom_site_fract_z
_atom_type_partial_charge
O1    O     O_R   0.317570 0.620260 0.500030 -0.533232
O2    O     O_R   0.317570 0.379740 0.500030 -0.598235
C1    C     C_R   0.259792 0.501298 0.498823 0.927668
O3    O     O_R   0.499900 0.620250 0.430280 -0.523343
O4    O     O_R   0.499900 0.379750 0.430280 -0.537753
C2    C     C_R   0.499058 0.500036 0.407525 0.904858
Cu1   Cu    Cu3+1 0.499860 0.642410 0.500020 1.041635
Cu2   Cu    Cu3+1 0.499860 0.357590 0.500020 0.991179
O5    O     O_R   0.682190 0.620260 0.500010 -0.563923
O6    O     O_R   0.682190 0.379740 0.500010 -0.599849
O7    O     O_R   0.499860 0.620280 0.569750 -0.582388
O8    O     O_R   0.499860 0.379720 0.569750 -0.614590
C3    C     C_R   0.739488 0.498379 0.500494 0.880748
C4    C     C_R   0.500234 0.500426 0.592435 0.820089
C5    C     C_R   0.411992 0.447270 0.178038 0.594827
O9    O     O_2   0.308254 0.422484 0.203517 -0.477492
N1    N     N_R   0.518599 0.473913 0.201503 -0.459603
C6    C     C_R   0.626557 0.490926 0.176516 0.576238
C7    C     C_R   0.586425 0.390936 0.280734 -0.044837
C8    C     C_R   0.581106 0.399639 0.330772 -0.151959
C9    C     C_R   0.435460 0.595859 0.326317 0.418653
C10   C     C_R   0.442466 0.587657 0.276160 -0.105350
C11   C     C_R   0.516397 0.484404 0.253139 0.233385
C12   C     C_R   0.518308 0.470117 0.101183 -0.047719
C13   C     C_R   0.410060 0.444734 0.127541 -0.098322
C14   C     C_R   0.304228 0.409197 0.103140 -0.127280
C15   C     C_R   0.628643 0.486881 0.125992 -0.024775
C16   C     C_R   0.504074 0.499336 0.354350 -0.134033
H1    H     H_    0.389102 0.661023 0.254803 0.192865
H2    H     H_    0.223611 0.376021 0.123009 0.226887
C17   C     C_R   0.502129 0.501701 0.645411 -0.024501
C18   C     C_R   0.402715 0.475404 0.975061 0.067804
C19   C     C_R   0.625637 0.519876 0.973345 -0.061687
C20   C     C_R   0.513763 0.498345 0.948983 0.042203
C21   C     C_R   0.291517 0.485801 0.949813 -0.096034
C22   C     C_R   0.290125 0.488802 0.899905 -0.112715
C23   C     C_R   0.399986 0.492974 0.873483 -0.026268
C24   C     C_R   0.511554 0.504576 0.897945 -0.045592
C25   C     C_R   0.620316 0.524910 0.871280 -0.088383
C26   C     C_R   0.617085 0.523642 0.820758 0.575803
N2    N     N_R   0.508453 0.505896 0.797800 -0.472939
C27   C     C_R   0.400561 0.492833 0.822997 0.555044
C28   C     C_R   0.515740 0.630420 0.720826 -0.085371
C29   C     C_R   0.513051 0.629292 0.670693 -0.135939
C30   C     C_R   0.493774 0.375479 0.671251 -0.210815
C31   C     C_R   0.495866 0.377054 0.721405 -0.087229
C32   C     C_R   0.507028 0.504408 0.746278 0.338832
O10   O     O_2   0.294268 0.480372 0.799247 -0.505017
C33   C     C_R   0.405174 0.454346 0.025637 -0.035683
C34   C     C_R   0.516721 0.476559 0.050119 0.040363
C35   C     C_R   0.627789 0.500888 0.024170 0.069580
C36   C     C_R   0.302909 0.405116 0.053068 0.340000
H3    H     H_    0.519944 0.728172 0.651811 0.161098
H4    H     H_    0.524079 0.729193 0.739967 0.146547
H5    H     H_    0.202269 0.491212 0.882182 0.211889
H6    H     H_    0.203948 0.498380 0.968055 0.224472
O11   O     O_2   0.731121 0.513952 0.200394 -0.485667
C37   C     C_R   0.738804 0.494355 0.099900 -0.107732
H7    H     H_    0.639119 0.329820 0.351105 0.248704
H8    H     H_    0.644823 0.311231 0.263426 0.193843
H9    H     H_    0.826105 0.496664 0.117969 0.207388
C38   C     C_R   0.729365 0.564377 0.945557 0.302732
C39   C     C_R   0.727901 0.555360 0.895365 -0.165215
O12   O     O_2   0.721484 0.539946 0.794772 -0.500929
C40   C     C_R   0.738643 0.495017 0.049933 -0.093058
H10   H     H_    0.485351 0.275625 0.652814 0.152564
H11   H     H_    0.809057 0.584422 0.875030 0.225129
H12   H     H_    0.489098 0.279362 0.741000 0.147427
H13   H     H_    0.827298 0.487218 0.032239 0.201705
C41   C     C_3   0.068871 0.542815 0.550215 0.116179
C42   C     C_3   0.075414 0.348452 0.488609 0.117019
H14   H     H_    0.099143 0.457576 0.574989 0.092585
H15   H     H_    0.109441 0.279130 0.517945 0.106225
C43   C     C_3   0.924887 0.544096 0.550799 0.109999
C44   C     C_3   0.933079 0.344271 0.490995 0.096297
H16   H     H_    0.896578 0.462291 0.577093 0.085807
H17   H     H_    0.907993 0.280257 0.523040 0.081811
H18   H     H_    0.883185 0.704475 0.468030 0.259881
H19   H     H_    0.887205 0.571352 0.425477 0.249386
C45   C     C_3   0.064824 0.605580 0.459684 0.673523
C46   C     C_3   0.121130 0.502493 0.498591 -0.288039
C47   C     C_3   0.876993 0.496295 0.500369 -0.319369
C48   C     C_3   0.923549 0.598472 0.461188 -0.314646
C49   C     C_3   0.599945 0.079720 0.469173 0.257513
C50   C     C_3   0.606193 0.913455 0.472390 0.246592
H20   H     H_    0.688128 0.116850 0.483424 0.113973
H21   H     H_    0.691998 0.887524 0.492198 0.121630
H22   H     H_    0.612746 0.115984 0.563318 0.173403
H23   H     H_    0.598713 0.871421 0.567234 0.208226
C51   C     C_3   0.521805 0.083603 0.549997 -0.323120
C52   C     C_3   0.514667 0.916601 0.550458 -0.306509
C53   C     C_3   0.380371 0.085212 0.486859 -0.147108
C54   C     C_3   0.383928 0.920023 0.483274 -0.151934
N3    N     N_3   0.500250 0.143650 0.501060 -0.219611
N4    N     N_3   0.500250 0.856350 0.501060 -0.229282
H24   H     H_    0.308056 0.117404 0.513781 0.167162
H25   H     H_    0.307169 0.881770 0.505852 0.231127
H26   H     H_    0.348252 0.131059 0.453098 0.262717
H27   H     H_    0.366281 0.885135 0.446000 0.258207
H28   H     H_    0.452231 0.127080 0.576139 0.188735
H29   H     H_    0.436426 0.885654 0.574068 0.198644
Cl1   Cl    Cl    0.335881 0.725716 0.351284 -0.399859
N5    N     N_R   0.828501 0.639459 0.966386 0.110677
O13   O     O_R   0.804650 0.744335 0.995665 -0.311170
O14   O     O_R   0.940383 0.619162 0.950206 -0.347639
Cl2   Cl    Cl    0.134483 0.695577 0.577504 -0.490831
Cl3   Cl    Cl    0.140092 0.265614 0.434820 -0.396479
N6    N     N_R   0.868673 0.677945 0.568194 0.195356
O15   O     O_R   0.890277 0.796999 0.547213 -0.293849
O16   O     O_R   0.797463 0.678257 0.606255 -0.363160
N7    N     N_R   0.883971 0.269272 0.449445 0.207439
O17   O     O_R   0.852788 0.335150 0.410488 -0.293007
O18   O     O_R   0.898205 0.132906 0.447717 -0.238867
Cl4   Cl    Cl    0.104046 0.785993 0.467910 -0.447586
Cl5   Cl    Cl    0.116771 0.565276 0.399713 -0.385463
N8    N     N_R   0.596359 0.126531 0.418645 0.153362
O19   O     O_R   0.494654 0.130403 0.394745 -0.301557
O20   O     O_R   0.697985 0.117827 0.393524 -0.245730
N9    N     N_R   0.622847 0.846971 0.424713 0.179142
O21   O     O_R   0.541715 0.863341 0.391419 -0.250168
O22   O     O_R   0.728776 0.790809 0.412462 -0.325794
Cl6   Cl    Cl    0.181830 0.307495 0.028998 -0.568545

loop_
_geom_bond_atom_site_label_1
_geom_bond_atom_site_label_2
_geom_bond_distance
_ccdc_geom_bond_type
C42   C44   1.552385 S    
C10   H1    1.083414 S    
C42   Cl3   1.809871 S    
N2    C27   1.366770 A    
C21   C22   1.387925 A    
C12   C15   1.407501 A    
C4    C17   1.472877 S    
C53   H26   1.096119 S    
Cu1   Cu2   2.707520 S    
C30   C31   1.394523 A    
N6    O15   1.300941 A    
Cu1   O7    1.950715 S    
N1    C11   1.437800 S    
C43   H16   1.115708 S    
C22   C23   1.395224 A    
C23   C24   1.408792 A    
C49   H20   1.109760 S    
O3    Cu1   1.948474 S    
O4    C2    1.309972 A    
O7    C4    1.305463 A    
C5    C13   1.404076 A    
C5    O9    1.349948 S    
C53   H24   1.113654 S    
N8    O19   1.301172 A    
C5    N1    1.369519 A    
C35   C40   1.414318 A    
C23   C27   1.403103 A    
C50   N9    1.471284 S    
C41   C46   1.576551 S    
O5    C3    1.303086 A    
C28   H4    1.082833 S    
C36   Cl6   1.768910 S    
C29   H3    1.082879 S    
C2    C16   1.478012 S    
N7    O17   1.300093 A    
N6    O16   1.301341 A    
C19   C38   1.431845 A    
C41   C43   1.568145 S    
C51   N3    1.498211 S    
H23   C52   1.112648 S    
C54   H27   1.107144 S    
C37   H9    1.083504 S    
C50   H21   1.115963 S    
C54   N4    1.484695 S    
O1    Cu1   2.002014 S    
C9    C10   1.396482 A    
C52   H29   1.113295 S    
C45   C48   1.542042 S    
H18   C48   1.103902 S    
C37   C40   1.388839 A    
C51   H28   1.111859 S    
N1    C6    1.369286 A    
N9    O22   1.299181 A    
C12   C34   1.421319 A    
C39   H11   1.083687 S    
C17   C29   1.406545 A    
C18   C21   1.411761 A    
C19   C20   1.422489 A    
C12   C13   1.404492 A    
N7    O18   1.302361 A    
C41   Cl2   1.802597 S    
C25   C26   1.405192 A    
C42   H15   1.114170 S    
C27   O10   1.349711 S    
C8    C16   1.402841 A    
C13   C14   1.394713 A    
C43   N6    1.474134 S    
C3    C47   1.497596 S    
O6    C3    1.302129 A    
O1    C1    1.307856 A    
C18   C20   1.421905 A    
C7    C11   1.398205 A    
C28   C29   1.394172 A    
C31   H12   1.082839 S    
C38   C39   1.397541 A    
C14   C36   1.392342 A    
C6    O11   1.349545 S    
C45   Cl5   1.787692 S    
Cu2   O8    1.948177 S    
C33   C36   1.429152 A    
C53   N3    1.489687 S    
C34   C35   1.422707 A    
N2    C32   1.432342 S    
Cu2   N3    2.034015 S    
N5    O14   1.301732 A    
C49   N3    1.504728 S    
C49   C50   1.583491 S    
C8    H7    1.075003 S    
C44   H17   1.115651 S    
C9    Cl1   1.755740 S    
O3    C2    1.303037 A    
C26   N2    1.367307 A    
C9    C16   1.415242 A    
H22   C51   1.112997 S    
C14   H2    1.083959 S    
C49   N8    1.476604 S    
C54   H25   1.106859 S    
N5    O13   1.301678 A    
C25   C39   1.394836 A    
C38   N5    1.436541 S    
C43   C47   1.572021 S    
Cu1   O5    1.992420 S    
C31   C32   1.399296 A    
C21   H6    1.076651 S    
C20   C24   1.420696 A    
O2    Cu2   1.991988 S    
C6    C15   1.404350 A    
C45   Cl4   1.791572 S    
C45   C46   1.584948 S    
C15   C37   1.395326 A    
O4    Cu2   1.951018 S    
N9    O21   1.297722 A    
C44   C47   1.574017 S    
C1    C46   1.510488 S    
C7    H8    1.082848 S    
C19   C35   1.425720 A    
Cu1   N4    2.033868 S    
C44   N7    1.468665 S    
C26   O12   1.349694 S    
C7    C8    1.392862 A    
O2    C1    1.303433 A    
O8    C4    1.306021 A    
C22   H5    1.083511 S    
H19   C48   1.105978 S    
C50   N4    1.505446 S    
C51   C52   1.591417 S    
C24   C25   1.405003 A    
C40   H13   1.077251 S    
C53   C54   1.572367 S    
N8    O20   1.299706 A    
C18   C33   1.421698 A    
C52   N4    1.496544 S    
Cu2   O6    2.002447 S    
C33   C34   1.422099 A    
C17   C30   1.406171 A    
C30   H10   1.082532 S    
C10   C11   1.399587 A    
C41   H14   1.113989 S    
C47   C48   1.550693 S    
C28   C32   1.399218 A    
C42   C46   1.582354 S    
