data_mof_unit_8859.cif
_audit_creation_date              2012-12-11T18:06:58-0500
_audit_creation_method            fapswitch 2.2
_symmetry_space_group_name_H-M    P1
_symmetry_Int_Tables_number       1
_space_group_crystal_system       triclinic
_cell_length_a                    8.25035
_cell_length_b                    12.776786
_cell_length_c                    26.977229
_cell_angle_alpha                 95.473152
_cell_angle_beta                  93.725088
_cell_angle_gamma                 81.067046
_cell_volume                      2792.8092384

loop_
_atom_site_label
_atom_site_type_symbol
_atom_type_description
_atom_site_fract_x
_atom_site_fract_y
_atom_site_fract_z
_atom_type_partial_charge
Ba1   Ba    Ba6+2 0.859560 0.448380 0.523550 1.667150
Ba2   Ba    Ba6+2 0.330270 0.551530 0.476440 1.679621
C1    C     C_3   0.749595 0.057713 0.652033 -0.381046
C2    C     C_3   0.701867 0.168718 0.635233 0.415756
C3    C     C_3   0.630066 0.774898 0.640690 0.222974
C4    C     C_3   0.572427 0.826566 0.691412 -0.046018
C5    C     C_3   0.098961 0.790165 0.345083 0.325013
C6    C     C_3   0.134783 0.832252 0.296689 -0.317596
C7    C     C_3   0.611813 0.802324 0.341046 0.371966
C8    C     C_3   0.678847 0.838445 0.295339 -0.350146
C9    C     C_R   0.954764 0.411116 0.170502 0.598193
C10   C     C_R   0.950687 0.600250 0.181802 0.604116
C11   C     C_2   0.735277 0.541681 0.266427 0.114430
C12   C     C_3   0.250885 0.145954 0.659398 0.302416
C13   C     C_3   0.696880 0.531772 0.320550 -0.102616
C14   C     C_1   0.985135 0.472826 0.339378 0.024142
C15   C     C_2   0.019760 0.460055 0.290847 0.119461
C16   C     C_2   0.891877 0.505308 0.252318 0.246176
C17   C     C_R   0.008610 0.506198 0.100254 -0.086902
C18   C     C_R   0.990666 0.409186 0.119555 -0.093705
C19   C     C_R   0.011668 0.313839 0.087022 -0.037281
C20   C     C_R   0.987447 0.603003 0.131174 -0.085431
C21   C     C_2   0.848461 0.530803 0.354743 -0.316878
C22   C     C_2   0.360882 0.493283 0.644800 -0.229863
C23   C     C_3   0.228094 0.107308 0.710718 0.049216
C24   C     C_R   0.171964 0.410629 0.974980 0.018941
C25   C     C_R   0.060260 0.600685 0.974811 -0.009457
C26   C     C_R   0.139978 0.505362 0.950028 0.019464
C27   C     C_R   0.277091 0.321956 0.952868 0.159144
C28   C     C_R   0.326861 0.323797 0.904410 -0.069056
C29   C     C_R   0.280668 0.413240 0.877398 -0.051684
C30   C     C_R   0.188252 0.504491 0.900219 -0.080649
C31   C     C_R   0.145514 0.594835 0.873401 -0.036362
C32   C     C_R   0.190248 0.590990 0.823165 0.592466
C33   C     C_R   0.327859 0.412776 0.828087 0.577550
C34   C     C_3   0.213201 0.224050 0.421854 0.265172
C35   C     C_2   0.454511 0.443887 0.729412 -0.065494
C36   C     C_3   0.464158 0.411105 0.674362 -0.028000
C37   C     C_1   0.212871 0.532057 0.660335 -0.014009
C38   C     C_2   0.175582 0.530263 0.707905 -0.143874
C39   C     C_2   0.307676 0.491577 0.746696 0.194238
C40   C     C_R   0.100419 0.409370 0.021549 0.012356
C41   C     C_R   0.049231 0.506195 0.049628 0.050451
C42   C     C_R   0.041287 0.602765 0.027359 0.029652
C43   C     C_R   0.072025 0.314858 0.039800 -0.112813
C44   C     C_R   0.003349 0.698763 0.109921 -0.004374
C45   C     C_3   0.191754 0.107658 0.414766 -0.328359
C46   C     C_R   0.005636 0.689003 0.945950 -0.045276
C47   C     C_R   0.053233 0.685770 0.896617 -0.086575
C48   C     C_R   0.026434 0.697371 0.058845 -0.064953
C49   C     C_R   0.770650 0.823240 0.494483 -0.227817
C50   C     C_R   0.437897 0.190108 0.523301 -0.290971
C51   C     C_R   0.423397 0.013926 0.546279 -0.114584
C52   C     C_R   0.355103 0.120471 0.545135 -0.019455
C53   C     C_R   0.580538 0.153073 0.497678 0.034629
C54   C     C_R   0.646738 0.042406 0.496622 -0.043089
C55   C     C_R   0.567112 0.972678 0.521987 -0.013409
C56   C     C_3   0.123385 0.780749 0.644225 0.435737
C57   C     C_R   0.629662 0.862326 0.520407 0.032572
C58   C     C_R   0.850977 0.890285 0.470473 -0.020531
C59   C     C_R   0.787554 0.998460 0.470472 -0.056560
C60   C     C_3   0.067871 0.810043 0.697211 -0.333870
C61   C     C_3   0.685567 0.304797 0.372520 0.296156
C62   C     C_3   0.676813 0.271660 0.316229 -0.041909
H1    H     H_    0.757089 0.169351 0.598791 0.073805
H2    H     H_    0.236546 0.070881 0.378279 0.143428
H3    H     H_    0.260485 0.064534 0.445114 0.120491
H4    H     H_    0.060060 0.100754 0.415381 0.122568
H5    H     H_    0.247282 0.732739 0.646238 0.015987
H6    H     H_    0.959996 0.873715 0.697423 0.129025
H7    H     H_    0.168295 0.839189 0.721461 0.104014
H8    H     H_    0.033566 0.740126 0.712791 0.139439
H9    H     H_    0.806891 0.328158 0.384365 -0.003178
H10   H     H_    0.588304 0.373638 0.380387 0.031878
H11   H     H_    0.688423 0.001716 0.626228 0.031613
H12   H     H_    0.649238 0.342827 0.295356 0.022595
H13   H     H_    0.573586 0.225549 0.306427 0.124393
H14   H     H_    0.565997 0.184837 0.630213 -0.063375
H15   H     H_    0.712097 0.053258 0.690278 0.138220
H16   H     H_    0.694905 0.694078 0.645304 0.105406
H17   H     H_    0.713444 0.823295 0.625894 0.016398
H18   H     H_    0.463355 0.793572 0.701685 0.096149
H19   H     H_    0.532354 0.912860 0.688055 0.052842
H20   H     H_    0.884144 0.034003 0.651327 0.149105
H21   H     H_    0.217741 0.756354 0.362569 0.152299
H22   H     H_    0.020046 0.726994 0.336598 0.008884
H23   H     H_    0.200581 0.766503 0.272310 0.167253
H24   H     H_    0.020063 0.864448 0.276320 0.126158
H25   H     H_    0.212586 0.896055 0.304635 0.120062
H26   H     H_    0.715650 0.755310 0.361429 -0.118108
H27   H     H_    0.735000 0.768290 0.271867 0.165986
H28   H     H_    0.773399 0.889234 0.307116 0.107422
H29   H     H_    0.278456 0.228952 0.663848 0.006375
H30   H     H_    0.579015 0.884018 0.272958 0.144689
H31   H     H_    0.558136 0.418300 0.754519 0.121356
H32   H     H_    0.405378 0.254721 0.888215 0.144886
H33   H     H_    0.084845 0.241579 0.015765 0.135446
H34   H     H_    0.357398 0.092230 0.643543 -0.078918
H35   H     H_    0.011068 0.753526 0.875325 0.153392
H36   H     H_    0.049870 0.554114 0.718609 0.105178
H37   H     H_    0.043692 0.770954 0.044545 0.084658
H38   H     H_    0.850080 0.585773 0.387991 0.084152
H39   H     H_    0.420489 0.537622 0.620731 0.062436
H40   H     H_    0.364126 0.963287 0.566113 0.051129
H41   H     H_    0.847986 0.046559 0.449239 0.105025
H42   H     H_    0.819598 0.739420 0.493018 0.063918
H43   H     H_    0.384680 0.273032 0.523457 0.068213
H44   H     H_    0.218060 0.021319 0.704370 0.015919
H45   H     H_    0.344944 0.230145 0.426588 -0.002957
H46   H     H_    0.148903 0.259870 0.455700 0.079133
N1    N     N_R   0.934090 0.505605 0.200535 -0.420155
N2    N     N_R   0.276320 0.499138 0.800137 -0.424586
O1    O     O_2   0.907040 0.557650 0.617910 -0.453515
O2    O     O_3   0.658926 0.218818 0.397620 -0.639609
O3    O     O_3   0.109104 0.140003 0.627992 -0.593952
O4    O     O_2   0.282660 0.442310 0.382060 -0.464537
O5    O     O_3   0.050670 0.442340 0.442260 -0.489005
O6    O     O_3   0.504750 0.639360 0.411530 -0.429629
O7    O     O_3   0.150642 0.271426 0.378748 -0.652247
O8    O     O_3   0.618400 0.630290 0.524520 -0.450257
O9    O     O_3   0.090070 0.694820 0.435810 -0.491083
O10   O     O_2   0.187565 0.883304 0.461227 -0.447004
O11   O     O_3   0.019750 0.873125 0.376710 -0.639986
O12   O     O_3   0.139040 0.557570 0.557730 -0.462463
O13   O     O_3   0.571310 0.369620 0.475470 -0.483583
O14   O     O_2   0.348200 0.764910 0.523260 -0.429803
O15   O     O_3   0.489874 0.766372 0.609567 -0.678642
O16   O     O_2   0.353337 0.577390 0.327725 -0.509054
O17   O     O_3   0.482440 0.745828 0.324509 -0.644334
O18   O     O_2   0.944239 0.328680 0.188675 -0.546978
O19   O     O_2   0.412787 0.333687 0.809796 -0.593126
O20   O     O_2   0.932700 0.681998 0.209399 -0.603727
O21   O     O_2   0.154466 0.670056 0.800299 -0.616971
O22   O     O_3   0.684960 0.360550 0.588460 -0.478627
O23   O     O_2   0.797584 0.445013 0.675734 -0.514517
O24   O     O_3   0.007465 0.726473 0.615909 -0.638635
O25   O     O_3   0.760605 0.244074 0.670576 -0.581815
O26   O     O_2   0.841490 0.235060 0.476710 -0.468528
O27   O     O_3   0.099640 0.305100 0.564190 -0.465836
O28   O     O_2   0.018578 0.120873 0.533577 -0.503274
P1    P     P_3+3 0.072810 0.589830 0.610360 0.996583
P2    P     P_3+3 0.661990 0.251250 0.462170 0.970697
P3    P     P_3+3 0.149004 0.169243 0.568119 0.935827
P4    P     P_3+3 0.116900 0.410080 0.389630 0.977526
P5    P     P_3+3 0.037876 0.834076 0.437639 0.944436
P6    P     P_3+3 0.676855 0.370142 0.652978 0.962468
P7    P     P_3+3 0.529505 0.760131 0.546519 0.972659
P8    P     P_3+3 0.513548 0.619773 0.346695 0.939930
N3    N     N_2   0.135565 0.878117 0.622216 -0.434088
H47   H     H_    0.245004 0.907144 0.629401 0.175885
C63   C     C_3   0.054970 0.892414 0.573629 -0.056128
H48   H     H_    0.108230 0.949735 0.554876 0.113880
H49   H     H_    0.922514 0.920777 0.577595 0.057495
H50   H     H_    0.070671 0.817296 0.549206 0.124092
N4    N     N_2   0.830517 0.212158 0.299433 -0.400288
H51   H     H_    0.932192 0.249354 0.307784 0.216573
C64   C     C_3   0.857058 0.099341 0.304632 -0.093083
H52   H     H_    0.974148 0.062894 0.287884 0.093817
H53   H     H_    0.755695 0.062405 0.284532 0.134885
H54   H     H_    0.864439 0.083854 0.344535 0.147520
N5    N     N_2   0.702022 0.812003 0.730180 -0.442975
H55   H     H_    0.703855 0.877892 0.755373 0.231844
C65   C     C_3   0.715842 0.714264 0.754322 -0.244640
H56   H     H_    0.823586 0.708801 0.781291 0.150935
H57   H     H_    0.733381 0.644157 0.726556 0.121730
H58   H     H_    0.603822 0.712971 0.774885 0.128314
C66   C     C_2   0.375065 0.115734 0.746319 0.860889
O29   O     O_2   0.386281 0.072158 0.785092 -0.577570
O30   O     O_R   0.497191 0.173363 0.735517 -0.772922
H59   H     H_    0.590943 0.170445 0.761826 0.338503
C67   C     C_2   0.545759 0.896068 0.375650 0.805945
O31   O     O_2   0.476047 0.881330 0.412338 -0.600711
O32   O     O_R   0.564997 0.999165 0.366477 -0.790017
H60   H     H_    0.521608 0.053913 0.393842 0.303992
N6    N     N_2   0.157538 0.385899 0.273912 -0.397527
H61   H     H_    0.206418 0.325105 0.295332 0.213244
C68   C     C_3   0.273845 0.423507 0.244629 -0.138412
H62   H     H_    0.284022 0.375014 0.208299 0.105713
H63   H     H_    0.396345 0.414311 0.264322 0.095717
H64   H     H_    0.237601 0.508654 0.238066 0.115316
C69   C     C_2   0.967544 0.211398 0.099173 0.942447
O33   O     O_2   0.831741 0.207981 0.114085 -0.570056
O34   O     O_R   0.078381 0.117765 0.090711 -0.737881
H65   H     H_    0.033662 0.052689 0.099483 0.341600
N7    N     N_2   0.347306 0.234732 0.980437 -0.432632
H66   H     H_    0.377837 0.164121 0.958848 0.216588
C70   C     C_3   0.478855 0.257436 0.016083 -0.177171
H67   H     H_    0.520590 0.187219 0.037459 0.161319
H68   H     H_    0.436145 0.326090 0.042923 0.120866
H69   H     H_    0.584448 0.275197 0.996434 0.100028
N8    N     N_2   0.609238 0.582168 0.230982 -0.412322
H70   H     H_    0.505807 0.626285 0.245674 0.231983
C71   C     C_3   0.571281 0.510944 0.188100 -0.200075
H71   H     H_    0.636809 0.526595 0.155618 0.126736
H72   H     H_    0.437951 0.525984 0.177435 0.087242
H73   H     H_    0.604513 0.426236 0.196005 0.134904
C72   C     C_2   0.001614 0.802666 0.139248 0.946346
O35   O     O_2   0.895762 0.877261 0.129797 -0.583689
O36   O     O_R   0.126009 0.816614 0.175833 -0.744125
H74   H     H_    0.115558 0.892338 0.191769 0.311115
C73   C     C_2   0.879176 0.779304 0.962411 0.859935
O37   O     O_2   0.766194 0.764250 0.986754 -0.586539
O38   O     O_R   0.885698 0.881048 0.948321 -0.741343
H75   H     H_    0.792068 0.935675 0.961330 0.326772
N9    N     N_2   0.079531 0.161202 0.733737 -0.416014
H76   H     H_    0.975260 0.128351 0.723062 0.237653
C74   C     C_3   0.053990 0.276155 0.740003 -0.140123
H77   H     H_    0.943409 0.305004 0.761646 0.116182
H78   H     H_    0.037111 0.309569 0.703317 0.149878
H79   H     H_    0.160362 0.304591 0.760426 0.124464

loop_
_geom_bond_atom_site_label_1
_geom_bond_atom_site_label_2
_ccdc_geom_bond_type
C25   C46   A    
C56   C60   S    
C53   C54   A    
C64   H52   S    
C4    H18   S    
N4    C64   S    
Ba2   P4    S    
O30   H59   S    
C65   H56   S    
O28   P3    D    
C41   C42   A    
C1    H15   S    
N5    H55   S    
Ba2   O6    S    
C5    C6    S    
N6    C68   S    
C5    H21   S    
O32   H60   S    
C23   C66   S    
C19   C69   S    
C67   O32   S    
C62   N4    S    
C35   H31   S    
O24   P1    S    
C11   C16   D    
O2    P2    S    
C14   P4    S    
C35   C36   S    
Ba1   O13   S    
N3    C63   S    
C13   P8    S    
N7    C70   S    
C5    H22   S    
C8    H30   S    
C51   H40   S    
C31   C47   A    
C12   O3    S    
C10   C20   A    
C22   C37   D    
C32   N2    Am   
C54   C55   A    
C60   H6    S    
C34   C45   S    
Ba1   Ba2   S    
C73   O37   D    
C63   H50   S    
C72   O36   S    
C34   O7    S    
C2    H1    S    
C36   P6    S    
C70   H69   S    
C28   H32   S    
Ba1   P2    S    
C2    O25   S    
O4    P4    D    
C61   O2    S    
O27   P3    S    
C25   C42   A    
Ba1   P1    S    
C17   C18   A    
C50   H43   S    
C50   C52   A    
C14   C15   D    
C68   H63   S    
C39   N2    S    
C74   H79   S    
C22   C36   S    
C63   H48   S    
C17   C20   A    
C1    H11   S    
C7    C8    S    
C12   H29   S    
Ba1   O27   S    
C56   N3    S    
O8    P7    S    
O23   P6    D    
C13   C21   S    
C52   P3    S    
C8    H28   S    
O36   H74   S    
C64   H53   S    
C53   P2    S    
O7    P4    S    
C73   O38   S    
C3    O15   S    
Ba1   O1    S    
C23   N9    S    
C45   H3    S    
N5    C65   S    
Ba2   O5    S    
C17   C41   A    
C12   H34   S    
C19   C43   A    
C69   O34   S    
O22   P6    S    
O3    P3    S    
C9    C18   A    
C9    N1    Am   
N8    H70   S    
O11   P5    S    
O25   P6    S    
C26   C30   A    
C65   H58   S    
C31   C32   A    
C16   N1    S    
C66   O30   S    
O26   P2    D    
C37   C38   D    
C51   C55   A    
O16   P8    D    
C44   C72   S    
C61   H9    S    
C32   O21   D    
C56   O24   S    
C51   C52   A    
C46   C73   S    
C74   H77   S    
C58   C59   A    
C6    H24   S    
C40   C43   A    
C69   O33   D    
O34   H65   S    
N8    C71   S    
C2    H14   S    
C27   C28   A    
C47   H35   S    
C3    H17   S    
N6    H61   S    
C4    N5    S    
O13   P2    S    
C68   H64   S    
O5    P4    S    
C71   H72   S    
C15   C16   S    
C62   H12   S    
C60   H8    S    
Ba1   O5    S    
C3    H16   S    
C67   O31   D    
C48   H37   S    
C37   P1    S    
C27   N7    S    
Ba2   O14   S    
C38   C39   S    
C20   C44   A    
C8    H27   S    
C68   H62   S    
C64   H54   S    
Ba2   O12   S    
C11   C13   S    
C34   H46   S    
O9    P5    S    
O12   P1    S    
C7    C67   S    
C49   C57   A    
C58   P5    S    
C10   O20   D    
C1    C2    S    
C9    O18   D    
C33   O19   D    
C45   H4    S    
C66   O29   D    
C59   H41   S    
C24   C40   A    
Ba2   O9    S    
C42   C48   A    
O17   P8    S    
N9    H76   S    
C46   C47   A    
Ba2   O8    S    
C4    H19   S    
C45   H2    S    
C65   H57   S    
O10   P5    D    
C29   C30   A    
C5    O11   S    
C34   H45   S    
C7    H26   S    
C38   H36   S    
O14   P7    D    
C50   C53   A    
C56   H5    S    
C6    H25   S    
C61   H10   S    
C7    O17   S    
C14   C21   D    
C44   C48   A    
C24   C26   A    
C11   N8    S    
C6    H23   S    
C30   C31   A    
C22   H39   S    
O6    P8    S    
Ba1   O12   S    
C70   H67   S    
C43   H33   S    
N3    H47   S    
C71   H73   S    
C28   C29   A    
N7    H66   S    
C3    C4    S    
C49   H42   S    
C29   C33   A    
O1    P1    D    
C60   H7    S    
Ba2   O4    S    
C63   H49   S    
C12   C23   S    
C35   C39   D    
C72   O35   D    
C70   H68   S    
C55   C57   A    
C1    H20   S    
C33   N2    Am   
C61   C62   S    
C21   H38   S    
Ba2   O13   S    
C15   N6    S    
C18   C19   A    
C24   C27   A    
C71   H71   S    
C40   C41   A    
N4    H51   S    
C74   H78   S    
C62   H13   S    
C54   C59   A    
C49   C58   A    
O38   H75   S    
N9    C74   S    
Ba1   O8    S    
C10   N1    Am   
Ba1   O26   S    
Ba1   O22   S    
C23   H44   S    
O15   P7    S    
C25   C26   A    
C57   P7    S    
