data_mof_unit_32193.cif
_audit_creation_date              2012-12-10T18:54:25-0500
_audit_creation_method            fapswitch 2.2
_symmetry_space_group_name_H-M    P1
_symmetry_Int_Tables_number       1
_space_group_crystal_system       triclinic
_cell_length_a                    10.720021
_cell_length_b                    9.955374
_cell_length_c                    23.344174
_cell_angle_alpha                 90.481145
_cell_angle_beta                  91.549064
_cell_angle_gamma                 89.971689
_cell_volume                      2490.33432096

loop_
_atom_site_label
_atom_site_type_symbol
_atom_type_description
_atom_site_fract_x
_atom_site_fract_y
_atom_site_fract_z
_atom_type_partial_charge
C1    C     C_R   0.260230 0.500031 0.500220 0.887482
C2    C     C_R   0.739770 0.499968 0.499783 0.887489
C3    C     C_R   0.598970 0.590827 0.242121 -0.005152
C4    C     C_R   0.401634 0.409605 0.757921 -0.003359
C5    C     C_R   0.590525 0.587902 0.301847 -0.225111
C6    C     C_R   0.409510 0.412695 0.698237 -0.221780
C7    C     C_R   0.506858 0.500930 0.327796 -0.058095
C8    C     C_R   0.493551 0.499093 0.672199 -0.060443
C9    C     C_R   0.428744 0.417837 0.294608 -0.139109
C10   C     C_R   0.572545 0.581467 0.705289 -0.140705
C11   C     C_R   0.435382 0.419694 0.235508 -0.097801
C12   C     C_R   0.566529 0.579365 0.764412 -0.096748
C13   C     C_R   0.519615 0.505053 0.209132 0.230604
C14   C     C_R   0.481983 0.494544 0.790873 0.226883
C15   C     C_R   0.064063 0.377745 0.502470 -0.158438
C16   C     C_R   0.935939 0.622249 0.497540 -0.158754
C17   C     C_R   0.936329 0.377644 0.501665 -0.141133
C18   C     C_R   0.063672 0.622350 0.498352 -0.141437
C19   C     C_R   0.872413 0.499929 0.499524 -0.038396
C20   C     C_R   0.127588 0.500066 0.500487 -0.038245
C21   C     C_R   0.560157 0.072787 0.542902 -0.045588
C22   C     C_R   0.439821 0.927204 0.457106 -0.046613
C23   C     C_R   0.440105 0.070621 0.457035 -0.033181
C24   C     C_R   0.559907 0.929368 0.542962 -0.032901
C25   C     C_R   0.500354 0.499828 0.389651 0.871901
C26   C     C_R   0.499687 0.500178 0.610343 0.871514
C27   C     C_R   0.552212 0.396889 0.879762 0.556133
C28   C     C_R   0.449577 0.602849 0.120252 0.556830
C29   C     C_R   0.421038 0.591472 0.880427 0.566694
C30   C     C_R   0.580445 0.408017 0.119589 0.577802
C31   C     C_R   0.426517 0.596263 0.940244 -0.022832
C32   C     C_R   0.575067 0.403311 0.059772 -0.024399
C33   C     C_R   0.497041 0.498229 0.969920 -0.015128
C34   C     C_R   0.504643 0.501423 0.030096 -0.014876
C35   C     C_R   0.560220 0.397194 0.939563 -0.015381
C36   C     C_R   0.441524 0.602504 0.060452 -0.016420
C37   C     C_R   0.364111 0.696607 0.970875 -0.142559
C38   C     C_R   0.637497 0.302984 0.029141 -0.144488
C39   C     C_R   0.371548 0.699696 0.030500 -0.144253
C40   C     C_R   0.630179 0.299987 0.969514 -0.140884
H1    H     H_    0.309496 0.772972 0.948923 0.199012
H2    H     H_    0.692063 0.226581 0.051094 0.198273
H3    H     H_    0.322320 0.778247 0.052986 0.198134
H4    H     H_    0.679444 0.221466 0.947027 0.197749
H5    H     H_    0.650372 0.651768 0.328518 0.202417
H6    H     H_    0.349055 0.349438 0.671606 0.209246
H7    H     H_    0.360185 0.354881 0.314230 0.174874
H8    H     H_    0.641252 0.644059 0.685559 0.173963
H9    H     H_    0.373511 0.356125 0.209792 0.155823
H10   H     H_    0.629006 0.642396 0.790059 0.155148
H11   H     H_    0.112424 0.282329 0.504699 0.210605
H12   H     H_    0.887581 0.717663 0.495302 0.210847
H13   H     H_    0.888307 0.282103 0.502760 0.209186
H14   H     H_    0.111692 0.717892 0.497262 0.209123
N1    N     N_R   0.483267 0.492856 0.851827 -0.344139
N2    N     N_R   0.518426 0.506803 0.148191 -0.340100
N3    N     N_R   0.500000 0.857200 0.500000 -0.162516
N4    N     N_R   0.500000 0.142800 0.500000 -0.162343
O1    O     O_R   0.316770 0.614620 0.500000 -0.601356
O2    O     O_R   0.683230 0.385380 0.500000 -0.600900
O3    O     O_R   0.683230 0.614620 0.500000 -0.600880
O4    O     O_R   0.316770 0.385380 0.500000 -0.600688
O5    O     O_R   0.499970 0.614690 0.416160 -0.612111
O6    O     O_R   0.500030 0.385310 0.583840 -0.611877
O7    O     O_R   0.500030 0.614690 0.583840 -0.605082
O8    O     O_R   0.499970 0.385310 0.416160 -0.605226
O9    O     O_2   0.612995 0.302238 0.849574 -0.541815
O10   O     O_2   0.388907 0.697594 0.150435 -0.542197
O11   O     O_2   0.354509 0.684319 0.850889 -0.529053
O12   O     O_2   0.646778 0.315011 0.149126 -0.525194
Zn1   Zn    Zn3+2 0.500000 0.653120 0.500000 1.016605
Zn2   Zn    Zn3+2 0.500000 0.346880 0.500000 1.017124
C41   C     C_2   0.690525 0.682824 0.215748 0.967076
O13   O     O_2   0.741386 0.770814 0.244868 -0.586002
O14   O     O_R   0.720507 0.668940 0.158081 -0.801002
H15   H     H_    0.783878 0.737684 0.145694 0.359051
C42   C     C_2   0.309457 0.318031 0.784022 0.963222
O15   O     O_2   0.286176 0.326842 0.834895 -0.613789
O16   O     O_R   0.247551 0.221513 0.749892 -0.776747
H16   H     H_    0.187008 0.165517 0.772257 0.365279
C43   C     C_2   0.627643 0.145703 0.589376 0.979614
O17   O     O_2   0.729231 0.195829 0.580709 -0.635229
O18   O     O_R   0.577357 0.151592 0.643970 -0.746964
H17   H     H_    0.632606 0.202859 0.672498 0.355118
C44   C     C_2   0.372250 0.854271 0.410662 0.980934
O19   O     O_2   0.270606 0.804305 0.419353 -0.633829
O20   O     O_R   0.422509 0.848206 0.356065 -0.746808
H18   H     H_    0.367188 0.796963 0.327559 0.356024
C45   C     C_2   0.374772 0.140632 0.409835 0.965636
O21   O     O_2   0.418662 0.138103 0.362071 -0.592922
O22   O     O_R   0.259352 0.200971 0.418761 -0.804976
H19   H     H_    0.222044 0.242550 0.382709 0.330357
C46   C     C_2   0.625378 0.859321 0.590117 0.965103
O23   O     O_2   0.581429 0.861419 0.637872 -0.594376
O24   O     O_R   0.740982 0.799425 0.581156 -0.805855
H20   H     H_    0.778388 0.757791 0.617174 0.329313

loop_
_geom_bond_atom_site_label_1
_geom_bond_atom_site_label_2
_ccdc_geom_bond_type
C23   N4    A    
C38   C40   A    
O20   H18   S    
C46   O23   D    
C8    C26   S    
C41   O13   D    
O24   H20   S    
C1    O4    A    
C22   N3    A    
C43   O17   D    
C28   N2    A    
C42   O15   D    
C6    C8    A    
C28   O10   S    
C38   H2    S    
C1    O1    A    
C44   O19   D    
C33   C35   A    
C2    O2    A    
O2    Zn2   S    
C7    C9    A    
C25   O5    A    
C22   C44   S    
C4    C42   S    
C26   O6    A    
C30   O12   S    
O8    Zn2   S    
C24   N3    A    
C23   C45   S    
C32   C38   A    
C45   O22   S    
C34   C36   A    
C3    C13   A    
C2    O3    A    
C13   N2    S    
O3    Zn1   S    
C44   O20   S    
C14   N1    S    
C46   O24   S    
C37   H1    S    
C41   O14   S    
C43   O18   S    
C29   O11   S    
C42   O16   S    
C15   C20   A    
C4    C6    A    
O22   H19   S    
C5    C7    A    
C39   H3    S    
C29   N1    A    
C27   C35   A    
O7    Zn1   S    
C30   N2    A    
C31   C37   A    
C32   C34   A    
O14   H15   S    
C11   H9    S    
O18   H17   S    
C29   C31   A    
C31   C33   A    
C33   C34   A    
O4    Zn2   S    
N3    Zn1   S    
C9    C11   A    
O5    Zn1   S    
C10   C12   A    
C16   C18   A    
C21   C43   S    
C9    H7    S    
C15   H11   S    
C10   H8    S    
C17   H13   S    
C15   C17   A    
C1    C20   S    
C6    H6    S    
C2    C19   S    
C26   O7    A    
C36   C39   A    
C25   O8    A    
C16   H12   S    
C12   C14   A    
C3    C5    A    
C12   H10   S    
C27   N1    A    
C7    C25   S    
C35   C40   A    
C21   N4    A    
C37   C39   A    
C24   C46   S    
C30   C32   A    
C11   C13   A    
N4    Zn2   S    
C5    H5    S    
C16   C19   A    
C17   C19   A    
C18   C20   A    
O6    Zn2   S    
C4    C14   A    
C3    C41   S    
C27   O9    S    
C18   H14   S    
O16   H16   S    
C40   H4    S    
C28   C36   A    
C8    C10   A    
C21   C24   A    
C22   C23   A    
C45   O21   D    
O1    Zn1   S    
