data_mof_unit_34678.cif
_audit_creation_date              2012-12-11T17:39:38-0500
_audit_creation_method            fapswitch 2.2
_symmetry_space_group_name_H-M    P1
_symmetry_Int_Tables_number       1
_space_group_crystal_system       triclinic
_cell_length_a                    15.113687
_cell_length_b                    15.096321
_cell_length_c                    14.97832
_cell_angle_alpha                 108.816539
_cell_angle_beta                  109.568576
_cell_angle_gamma                 110.561113
_cell_volume                      2612.87872898

loop_
_atom_site_label
_atom_site_type_symbol
_atom_type_description
_atom_site_fract_x
_atom_site_fract_y
_atom_site_fract_z
_atom_type_partial_charge
C1    C     C_R   0.908203 0.916075 0.714472 -0.147581
C2    C     C_R   0.003706 0.301510 0.438457 0.061709
C3    C     C_R   0.272005 0.322751 0.822301 0.137149
C4    C     C_R   0.712543 0.033584 0.536850 0.054651
C5    C     C_R   0.702170 0.695346 0.286700 -0.158832
C6    C     C_R   0.301159 0.089822 0.498980 -0.141370
C7    C     C_R   0.091359 0.778727 0.533778 -0.108369
C8    C     C_R   0.910445 0.936114 0.187603 -0.127903
C9    C     C_R   0.092890 0.022919 0.282143 -0.123646
C10   C     C_R   0.907043 0.684697 0.447068 -0.148949
C11   C     C_R   0.701578 0.788343 0.197272 -0.077944
C12   C     C_R   0.093122 0.298637 0.496425 -0.159034
C13   C     C_R   0.299910 0.000456 0.592029 -0.159740
C14   C     C_R   0.642149 0.691128 0.191408 0.157065
C15   C     C_R   0.360050 0.056530 0.557469 0.060427
C16   C     C_R   0.999328 0.676198 0.470204 0.046949
C17   C     C_R   0.002620 0.947660 0.178919 0.051198
C18   C     C_R   0.482185 0.674732 0.345839 -0.294004
C19   C     C_R   0.500224 0.781145 0.384116 0.581143
C20   C     C_R   0.520342 0.840197 0.490465 -0.035940
C21   C     C_R   0.517230 0.789901 0.554581 -0.258559
C22   C     C_R   0.498174 0.683753 0.515141 -0.093856
C23   C     C_R   0.246954 0.221208 0.812486 -0.157756
C24   C     C_R   0.481002 0.626361 0.411060 -0.161219
C25   C     C_R   0.458280 0.965267 0.546582 -0.271557
C26   C     C_R   0.460010 0.063111 0.569016 0.067004
C27   C     C_R   0.547729 0.154823 0.586280 0.031397
C28   C     C_R   0.633228 0.144139 0.579530 -0.275529
C29   C     C_R   0.628222 0.044129 0.552479 0.105508
C30   C     C_R   0.539065 0.952759 0.533734 0.084942
C31   C     C_R   0.573357 0.306531 0.543309 -0.163881
C32   C     C_R   0.563270 0.397064 0.551655 -0.113273
C33   C     C_R   0.526794 0.439086 0.619661 -0.083765
C34   C     C_R   0.742508 0.055937 0.465439 -0.047947
C35   C     C_R   0.502788 0.392193 0.681263 -0.095255
C36   C     C_R   0.517539 0.304978 0.677129 -0.147858
C37   C     C_R   0.548898 0.258366 0.604789 0.116143
C38   C     C_R   0.846231 0.134725 0.090720 -0.114464
C39   C     C_R   0.913133 0.231537 0.191570 -0.135998
C40   C     C_R   0.868827 0.291052 0.233104 0.120910
C41   C     C_R   0.756789 0.252695 0.170752 -0.172661
C42   C     C_R   0.690237 0.155937 0.069761 -0.110735
C43   C     C_R   0.734836 0.096870 0.029934 -0.097815
C44   C     C_R   0.936126 0.486093 0.355569 -0.251943
C45   C     C_R   0.247487 0.312480 0.720541 -0.131557
C46   C     C_R   0.002609 0.580352 0.458671 0.069295
C47   C     C_R   0.074257 0.583520 0.550346 0.013724
C48   C     C_R   0.079366 0.491893 0.536081 -0.240533
C49   C     C_R   0.010245 0.396391 0.435035 0.061759
C50   C     C_R   0.939013 0.391821 0.342300 0.020664
C51   C     C_R   0.252682 0.728362 0.722713 -0.192266
C52   C     C_R   0.312562 0.812161 0.831533 -0.111277
C53   C     C_R   0.258254 0.843423 0.882976 -0.101731
C54   C     C_R   0.144072 0.791387 0.825497 -0.121731
C55   C     C_R   0.083839 0.708430 0.716237 -0.117911
C56   C     C_R   0.749178 0.968815 0.562296 -0.125215
C57   C     C_R   0.137847 0.676277 0.664086 0.124291
C58   C     C_2   0.366287 0.520810 0.932701 -0.139994
C59   C     C_2   0.321731 0.422455 0.924178 -0.198686
C60   C     C_2   0.462980 0.615959 0.034891 -0.107990
C61   C     C_2   0.531808 0.603097 0.106672 -0.237220
C62   C     C_R   0.387086 0.243000 0.130067 -0.103156
C63   C     C_R   0.300883 0.137035 0.083908 -0.189110
C64   C     C_R   0.192193 0.113761 0.040513 0.117906
C65   C     C_R   0.171199 0.198123 0.044696 -0.124140
C66   C     C_R   0.257793 0.304323 0.092583 -0.133903
C67   C     C_R   0.910728 0.210337 0.408115 -0.130175
C68   C     C_R   0.365651 0.326773 0.135345 -0.124881
C69   C     C_R   0.106304 0.982949 0.088388 -0.233775
C70   C     C_R   0.009484 0.913690 0.079277 0.052824
C71   C     C_R   0.915679 0.837833 0.975047 0.026504
C72   C     C_R   0.915355 0.849694 0.886173 -0.255599
C73   C     C_R   0.005484 0.937930 0.902634 0.049701
C74   C     C_R   0.102231 0.005763 0.005960 0.006475
C75   C     C_R   0.833805 0.685058 0.008408 -0.137433
C76   C     C_R   0.744078 0.604003 0.998891 -0.099199
C77   C     C_R   0.639352 0.585032 0.940415 -0.075522
C78   C     C_R   0.090298 0.004063 0.802238 -0.129044
C79   C     C_R   0.623862 0.646679 0.890834 -0.127822
C80   C     C_R   0.713164 0.726862 0.898781 -0.181013
C81   C     C_R   0.819191 0.747490 0.958725 0.122985
C82   C     C_R   0.000639 0.956238 0.812038 0.057303
H1    H     H_    0.824452 0.859705 0.687352 0.095574
H2    H     H_    0.329411 0.144217 0.469430 0.111552
H3    H     H_    0.176008 0.800326 0.568611 0.103273
H4    H     H_    0.826141 0.888268 0.122867 0.114454
H5    H     H_    0.177444 0.051468 0.307018 0.095732
H6    H     H_    0.822687 0.619522 0.403889 0.098173
H7    H     H_    0.673163 0.817295 0.142802 0.083093
H8    H     H_    0.327264 0.974094 0.649604 0.100856
H9    H     H_    0.466764 0.544296 0.380868 0.128378
H10   H     H_    0.469072 0.629475 0.265537 0.140013
H11   H     H_    0.177550 0.352899 0.523190 0.095954
H12   H     H_    0.530705 0.833537 0.635628 0.133462
H13   H     H_    0.496868 0.646038 0.565449 0.105152
H14   H     H_    0.387873 0.893920 0.528564 0.135598
H15   H     H_    0.702690 0.212676 0.592798 0.131308
H16   H     H_    0.596875 0.272070 0.486309 0.109415
H17   H     H_    0.581180 0.432976 0.503333 0.104344
H18   H     H_    0.516277 0.507370 0.624009 0.090724
H19   H     H_    0.471002 0.422244 0.731004 0.104056
H20   H     H_    0.499277 0.270518 0.726340 0.114857
H21   H     H_    0.683080 0.021806 0.951963 0.095092
H22   H     H_    0.257054 0.201627 0.877089 0.125741
H23   H     H_    0.880774 0.089000 0.059767 0.115730
H24   H     H_    0.999395 0.259903 0.237354 0.113180
H25   H     H_    0.720523 0.296535 0.201122 0.103943
H26   H     H_    0.603877 0.126399 0.022620 0.103689
H27   H     H_    0.883246 0.486770 0.286143 0.130122
H28   H     H_    0.130930 0.492570 0.607495 0.133398
H29   H     H_    0.295560 0.703979 0.684004 0.109914
H30   H     H_    0.400974 0.852169 0.876265 0.101586
H31   H     H_    0.304627 0.907235 0.967616 0.101064
H32   H     H_    0.102188 0.814394 0.866029 0.128249
H33   H     H_    0.722072 0.100164 0.425946 0.086781
H34   H     H_    0.995321 0.668102 0.672901 0.110529
H35   H     H_    0.345598 0.529799 0.860766 0.119498
H36   H     H_    0.337385 0.415135 0.996530 0.138176
H37   H     H_    0.486492 0.695514 0.041688 0.126535
H38   H     H_    0.511791 0.523893 0.099399 0.126435
H39   H     H_    0.432633 0.409197 0.173117 0.091516
H40   H     H_    0.470655 0.260581 0.163680 0.100838
H41   H     H_    0.318758 0.073637 0.083911 0.107144
H42   H     H_    0.088250 0.182308 0.014327 0.111233
H43   H     H_    0.241380 0.369476 0.097559 0.113542
H44   H     H_    0.256521 0.375253 0.698725 0.088109
H45   H     H_    0.181791 0.036655 0.165833 0.128219
H46   H     H_    0.843889 0.792159 0.805475 0.128040
H47   H     H_    0.914804 0.699694 0.055054 0.109968
H48   H     H_    0.755795 0.556272 0.037365 0.106911
H49   H     H_    0.570029 0.521859 0.932862 0.115789
H50   H     H_    0.542510 0.631981 0.845906 0.097067
H51   H     H_    0.700080 0.774892 0.861098 0.105146
H52   H     H_    0.736471 0.934999 0.613287 0.107458
H53   H     H_    0.826675 0.183869 0.354801 0.102814
H54   H     H_    0.172693 0.024017 0.851897 0.109027
H55   H     H_    0.672822 0.639231 0.314297 0.094659
N1    N     N_R   0.941940 0.944580 0.650780 -0.039796
N2    N     N_R   0.206190 0.054080 0.497260 -0.040451
N3    N     N_R   0.056380 0.847410 0.553580 -0.041301
N4    N     N_R   0.944890 0.999100 0.292900 -0.043259
N5    N     N_R   0.058060 0.055420 0.349220 -0.041643
N6    N     N_R   0.943200 0.791100 0.497260 -0.039278
N7    N     N_R   0.795540 0.849750 0.292910 -0.049701
N8    N     N_R   0.205730 0.996760 0.553580 -0.037348
N9    N     N_R   0.056800 0.208900 0.502740 -0.037310
N10   N     N_R   0.204460 0.150250 0.707090 -0.043208
N11   N     N_R   0.794270 0.003240 0.446420 -0.042438
N12   N     N_R   0.204920 0.207570 0.650770 -0.042866
N13   N     N_R   0.793810 0.945920 0.502740 -0.038138
N14   N     N_R   0.943620 0.152590 0.446420 -0.045021
N15   N     N_R   0.055110 0.000900 0.707100 -0.040704
N16   N     N_R   0.795080 0.792430 0.349230 -0.040586
Ni1   Ni    Ni4+2 0.869690 0.869690 0.500000 0.220423
Ni2   Ni    Ni4+2 0.130310 0.130310 0.500000 0.209451
Ni3   Ni    Ni4+2 0.129250 0.998840 0.629170 0.213519
Ni4   Ni    Ni4+2 0.870750 0.001160 0.370830 0.222498
O1    O     O_3   0.505985 0.830650 0.321346 -0.638924
C83   C     C_3   0.399319 0.786314 0.236058 0.265082
H56   H     H_    0.343519 0.790969 0.268405 0.085417
H57   H     H_    0.365285 0.699874 0.175905 0.101910
C84   C     C_3   0.404081 0.851619 0.177008 -0.906310
H58   H     H_    0.458731 0.848477 0.143210 0.250028
H59   H     H_    0.320768 0.817027 0.108872 0.212633
H60   H     H_    0.435986 0.938064 0.234715 0.252854

loop_
_geom_bond_atom_site_label_1
_geom_bond_atom_site_label_2
_ccdc_geom_bond_type
C28   H15   S    
C39   H24   S    
C66   C68   A    
C13   H8    S    
C41   C42   A    
C48   H28   S    
C35   C36   A    
N3    N6    A    
C13   N8    A    
C2    C12   A    
C78   N15   A    
C20   C30   S    
C53   C54   A    
C10   H6    S    
C26   C27   A    
C62   C63   A    
C72   H46   S    
C18   C24   A    
N14   Ni4   S    
C36   C37   A    
N10   N12   A    
N11   N13   A    
C34   H33   S    
C83   H56   S    
C77   H49   S    
C7    N3    A    
C80   C81   A    
C11   C14   A    
C40   C50   S    
C31   H16   S    
C55   H34   S    
C52   H30   S    
C58   C60   S    
N7    N16   A    
C60   H37   S    
C36   H20   S    
C18   C19   A    
C73   C74   A    
C65   H42   S    
C12   N9    A    
C6    N2    A    
C3    C23   A    
C78   C82   A    
C44   C50   A    
C6    C15   A    
C54   C55   A    
N8    Ni3   S    
C76   H48   S    
N2    N8    A    
N9    Ni2   S    
N15   Ni3   S    
C53   H31   S    
C83   H57   S    
C70   C71   A    
C51   C57   A    
N5    Ni2   S    
C11   N7    A    
C45   N12   A    
C4    C29   S    
N11   Ni4   S    
C44   H27   S    
N1    Ni1   S    
C17   C70   S    
N16   Ni1   S    
C21   C22   A    
C4    C56   A    
C61   H38   S    
C34   N11   A    
C44   C46   A    
C84   H59   S    
C77   C79   A    
C38   C39   A    
C4    C34   A    
C6    H2    S    
C67   N14   A    
C51   C52   A    
C47   C48   A    
C76   C77   A    
C2    C67   A    
C16   C46   S    
C39   C40   A    
C75   C81   A    
C15   C26   S    
N1    N15   A    
C25   C26   A    
C63   C64   A    
C14   C61   S    
C23   N10   A    
C3    C45   A    
C58   H35   S    
C80   H51   S    
C31   C37   A    
C60   C61   D    
C67   H53   S    
C75   C76   A    
C29   C30   A    
C2    C49   S    
C47   C57   S    
C84   H60   S    
C11   H7    S    
C63   H41   S    
C31   C32   A    
N2    Ni2   S    
C45   H44   S    
C48   C49   A    
C83   C84   S    
C69   C74   A    
N10   Ni3   S    
C5    C14   A    
C8    N4    A    
N3    Ni3   S    
N6    Ni1   S    
N4    Ni4   S    
C40   C41   A    
C65   C66   A    
C59   H36   S    
C13   C15   A    
N13   Ni1   S    
O1    C83   S    
C22   C24   A    
C79   C80   A    
C58   C59   D    
C42   C43   A    
C56   N13   A    
C28   C29   A    
C24   H9    S    
C73   C82   S    
C62   H40   S    
C52   C53   A    
C84   H58   S    
C9    C17   A    
C25   C30   A    
C46   C47   A    
C7    C16   A    
C51   H29   S    
C41   H25   S    
C19   O1    S    
C72   C73   A    
C35   H19   S    
C68   H39   S    
C56   H52   S    
C9    N5    A    
C66   H43   S    
C5    H55   S    
C1    H1    S    
C8    C17   A    
C32   H17   S    
C62   C68   A    
C33   H18   S    
C18   H10   S    
C32   C33   A    
C19   C20   A    
C55   C57   A    
C1    C82   A    
C38   C43   A    
C10   C16   A    
N4    N5    A    
C64   C65   A    
C7    H3    S    
C78   H54   S    
C38   H23   S    
C5    N16   A    
C79   H50   S    
C54   H32   S    
C33   C35   A    
C8    H4    S    
C10   N6    A    
C23   H22   S    
N12   Ni2   S    
C69   C70   A    
C12   H11   S    
C43   H21   S    
N9    N14   A    
C22   H13   S    
C75   H47   S    
C71   C72   A    
C20   C21   A    
C69   H45   S    
C25   H14   S    
C49   C50   A    
C21   H12   S    
C27   C28   A    
C64   C74   S    
N7    Ni4   S    
C42   H26   S    
C9    H5    S    
C1    N1    A    
C27   C37   S    
C71   C81   S    
C3    C59   S    
