data_mof_unit_55990.cif
_audit_creation_date              2012-12-11T15:55:36-0500
_audit_creation_method            fapswitch 2.2
_symmetry_space_group_name_H-M    P1
_symmetry_Int_Tables_number       1
_space_group_crystal_system       triclinic
_cell_length_a                    8.183172
_cell_length_b                    18.853918
_cell_length_c                    19.022869
_cell_angle_alpha                 98.78999
_cell_angle_beta                  94.492706
_cell_angle_gamma                 91.069259
_cell_volume                      2890.15984989

loop_
_atom_site_label
_atom_site_type_symbol
_atom_type_description
_atom_site_fract_x
_atom_site_fract_y
_atom_site_fract_z
_atom_type_partial_charge
Ba1   Ba    Ba6+2 0.152460 0.535140 0.468980 1.633311
Ba2   Ba    Ba6+2 0.657710 0.464850 0.530960 1.630581
C1    C     C_3   0.350654 0.715808 0.214480 -0.367600
C2    C     C_R   0.076788 0.908280 0.577784 -0.112585
C3    C     C_R   0.225650 0.041223 0.551780 -0.128639
C4    C     C_3   0.895347 0.732539 0.326952 0.356345
C5    C     C_R   0.062424 0.021338 0.527976 0.005821
C6    C     C_R   0.288675 0.110490 0.553348 0.123967
C7    C     C_R   0.187644 0.164219 0.529874 -0.021480
C8    C     C_R   0.027731 0.142657 0.496954 -0.033816
C9    C     C_R   0.966297 0.070514 0.495198 0.024545
C10   C     C_R   0.238223 0.237991 0.536775 0.012145
C11   C     C_R   0.131023 0.287535 0.511800 -0.317575
C12   C     C_3   0.372752 0.692488 0.287540 0.359322
C13   C     C_R   0.981263 0.266368 0.473391 0.039869
C14   C     C_R   0.929533 0.192679 0.465007 -0.030692
C15   C     C_R   0.842801 0.928576 0.498685 0.023145
C16   C     C_3   0.906939 0.807644 0.307512 -0.368361
C17   C     C_R   0.784435 0.856561 0.500005 -0.033319
C18   C     C_R   0.880279 0.808841 0.536973 -0.017600
C19   C     C_R   0.020232 0.838797 0.580950 0.169719
C20   C     C_R   0.782669 0.167102 0.425437 -0.019038
C21   C     C_R   0.723308 0.097020 0.423899 -0.096997
C22   C     C_R   0.809525 0.047854 0.460840 0.011580
C23   C     C_3   0.516409 0.682955 0.646953 0.316254
C24   C     C_R   0.746983 0.976482 0.462831 0.017322
C25   C     C_R   0.589346 0.951810 0.432363 -0.111896
C26   C     C_R   0.628814 0.832946 0.465391 -0.030165
C27   C     C_R   0.532002 0.882053 0.433826 -0.089524
C28   C     C_3   0.791721 0.380285 0.311602 0.312448
C29   C     C_R   0.574580 0.760912 0.463332 -0.002534
C30   C     C_R   0.678386 0.712605 0.491731 -0.313590
C31   C     C_R   0.828815 0.734560 0.529182 0.056102
C32   C     C_R   0.606884 0.532052 0.301484 -0.288544
C33   C     C_R   0.461657 0.493553 0.276331 0.068369
C34   C     C_3   0.565460 0.760830 0.675811 -0.411330
C35   C     C_R   0.408033 0.485903 0.203678 -0.123736
C36   C     C_R   0.501339 0.515746 0.155520 -0.018725
C37   C     C_R   0.651738 0.551858 0.181556 -0.140200
C38   C     C_R   0.705133 0.558686 0.254150 0.013956
C39   C     C_R   0.466713 0.563450 0.038955 -0.078582
C40   C     C_3   0.769900 0.362085 0.230655 -0.398019
C41   C     C_R   0.415089 0.555351 0.966248 -0.077187
C42   C     C_R   0.341529 0.490344 0.930450 0.060967
C43   C     C_R   0.318705 0.433996 0.969663 -0.079243
C44   C     C_R   0.369957 0.442189 0.042558 -0.075951
C45   C     C_3   0.911307 0.265331 0.670569 0.366562
C46   C     C_R   0.445126 0.506992 0.078105 0.064201
C47   C     C_R   0.143456 0.444551 0.823511 -0.137106
C48   C     C_R   0.096373 0.438472 0.750193 0.017934
C49   C     C_R   0.341180 0.505833 0.733568 0.035405
C50   C     C_R   0.389410 0.512182 0.806434 -0.118671
C51   C     C_R   0.291694 0.481277 0.852402 -0.010689
C52   C     C_3   0.013017 0.616709 0.687675 0.317865
C53   C     C_R   0.198775 0.466674 0.705452 -0.281288
C54   C     C_3   0.034021 0.634213 0.768706 -0.398674
C55   C     C_3   0.297218 0.318513 0.368065 0.315665
C56   C     C_3   0.896193 0.189408 0.687656 -0.363209
C57   C     C_3   0.293653 0.237565 0.344691 -0.395923
C58   C     C_3   0.431350 0.308846 0.713033 0.369627
C59   C     C_3   0.452425 0.286007 0.786352 -0.369449
C60   C     C_R   0.996724 0.952367 0.533663 0.004267
H1    H     H_    0.300997 0.641569 0.285642 0.094107
H2    H     H_    0.173342 0.335385 0.381108 0.007827
H3    H     H_    0.385137 0.331925 0.415952 0.068125
H4    H     H_    0.219365 0.725516 0.200855 0.149852
H5    H     H_    0.202605 0.222417 0.298100 0.123521
H6    H     H_    0.259412 0.209311 0.388572 0.058160
H7    H     H_    0.416725 0.220063 0.329647 0.118106
H8    H     H_    0.504847 0.683142 0.299269 -0.060637
H9    H     H_    0.392369 0.673102 0.173586 0.070034
H10   H     H_    0.625469 0.656219 0.625263 0.019656
H11   H     H_    0.417452 0.681557 0.603362 0.056269
H12   H     H_    0.670973 0.320299 0.214511 0.123641
H13   H     H_    0.676103 0.763192 0.713943 0.133984
H14   H     H_    0.593225 0.789832 0.631401 0.054769
H15   H     H_    0.464265 0.787888 0.703843 0.119826
H16   H     H_    0.424193 0.765884 0.214300 0.107159
H17   H     H_    0.867220 0.847459 0.351531 0.078102
H18   H     H_    0.837603 0.267815 0.619581 0.094968
H19   H     H_    0.042004 0.277029 0.664066 -0.071414
H20   H     H_    0.766078 0.175471 0.693553 0.148882
H21   H     H_    0.940920 0.150673 0.643955 0.070545
H22   H     H_    0.970817 0.185131 0.738082 0.106461
H23   H     H_    0.736896 0.410369 0.206799 0.066859
H24   H     H_    0.298812 0.315544 0.699765 -0.072763
H25   H     H_    0.497872 0.361087 0.715448 0.089864
H26   H     H_    0.403572 0.327491 0.826491 0.070051
H27   H     H_    0.584365 0.279400 0.801687 0.149578
H28   H     H_    0.974897 0.731372 0.376769 0.092309
H29   H     H_    0.384578 0.234320 0.785773 0.105538
H30   H     H_    0.169214 0.343574 0.518691 0.071330
H31   H     H_    0.709660 0.201028 0.395440 0.094882
H32   H     H_    0.410083 0.867324 0.409419 0.112286
H33   H     H_    0.638002 0.657006 0.487192 0.074817
H34   H     H_    0.886106 0.341824 0.209804 0.125379
H35   H     H_    0.311104 0.002574 0.567795 0.071921
H36   H     H_    0.181419 0.928000 0.614104 0.056786
H37   H     H_    0.608539 0.083040 0.392701 0.058523
H38   H     H_    0.766139 0.721138 0.336530 -0.064073
H39   H     H_    0.505218 0.985498 0.407440 0.070005
H40   H     H_    0.501586 0.542107 0.827103 0.075525
H41   H     H_    0.431425 0.600480 0.938208 0.061014
H42   H     H_    0.522013 0.614368 0.064723 0.061101
H43   H     H_    0.294376 0.456287 0.184907 0.084169
H44   H     H_    0.264302 0.382975 0.943661 0.061203
H45   H     H_    0.129749 0.598578 0.667123 0.000765
H46   H     H_    0.353781 0.397149 0.070736 0.059202
H47   H     H_    0.062208 0.423247 0.857975 0.074847
H48   H     H_    0.729836 0.572323 0.145363 0.077533
H49   H     H_    0.161451 0.462750 0.649107 0.064064
H50   H     H_    0.035435 0.821114 0.298303 0.145781
H51   H     H_    0.649180 0.536915 0.357394 0.072335
H52   H     H_    0.826451 0.810687 0.258334 0.110048
H53   H     H_    0.673794 0.397284 0.331906 0.008403
H54   H     H_    0.885013 0.424584 0.326280 0.069433
H55   H     H_    0.475589 0.111028 0.629503 0.175404
H56   H     H_    0.917832 0.573424 0.672380 0.072320
H57   H     H_    0.527947 0.088884 0.544928 0.171088
H58   H     H_    0.094029 0.832093 0.683565 0.154946
H59   H     H_    0.226392 0.799519 0.623484 0.176838
H60   H     H_    0.137350 0.673745 0.785437 0.127776
H61   H     H_    0.059588 0.585186 0.792461 0.066739
H62   H     H_    0.919785 0.657136 0.789249 0.123376
N1    N     N_3   0.457852 0.123532 0.577788 -0.450162
N2    N     N_3   0.102452 0.801995 0.633097 -0.447829
O1    O     O_2   0.118870 0.674530 0.547560 -0.446626
O2    O     O_2   0.756724 0.445739 0.745994 -0.489807
O3    O     O_3   0.853035 0.313626 0.726136 -0.597502
O4    O     O_3   0.870460 0.585330 0.542110 -0.498297
O5    O     O_3   0.436130 0.464210 0.414140 -0.488933
O6    O     O_2   0.629420 0.533310 0.672080 -0.460210
O7    O     O_3   0.460200 0.650181 0.702421 -0.640643
O8    O     O_2   0.580231 0.244826 0.532367 -0.471789
O9    O     O_3   0.495999 0.256514 0.662951 -0.583233
O10   O     O_3   0.354280 0.631750 0.418430 -0.485414
O11   O     O_2   0.233685 0.757386 0.469321 -0.493896
O12   O     O_3   0.344534 0.351658 0.311642 -0.636283
O13   O     O_3   0.967207 0.678976 0.661002 -0.617726
O14   O     O_3   0.315966 0.746176 0.338627 -0.608807
O15   O     O_2   0.180880 0.466650 0.327890 -0.465143
O16   O     O_3   0.939000 0.596010 0.380670 -0.491132
O17   O     O_2   0.044116 0.550722 0.252769 -0.489439
O18   O     O_3   0.947940 0.683002 0.270952 -0.599155
O19   O     O_2   0.691430 0.325420 0.452420 -0.470373
O20   O     O_3   0.939830 0.414660 0.457830 -0.493708
O21   O     O_3   0.456020 0.368240 0.581510 -0.486293
O22   O     O_3   0.841469 0.318855 0.339066 -0.640586
O23   O     O_3   0.374170 0.535780 0.585810 -0.476072
O24   O     O_3   0.871300 0.403980 0.619270 -0.486904
P1    P     P_3+3 0.947550 0.663200 0.567530 1.008518
P2    P     P_3+3 0.354660 0.445020 0.336980 0.982812
P3    P     P_3+3 0.909344 0.596141 0.288699 0.944069
P4    P     P_3+3 0.862750 0.336790 0.432410 0.973177
P5    P     P_3+3 0.894303 0.401268 0.711178 0.947604
P6    P     P_3+3 0.369947 0.724893 0.423636 0.933390
P7    P     P_3+3 0.447927 0.557093 0.675514 0.946882
P8    P     P_3+3 0.441452 0.275855 0.577205 0.975006

loop_
_geom_bond_atom_site_label_1
_geom_bond_atom_site_label_2
_ccdc_geom_bond_type
Ba2   O24   S    
C21   H37   S    
C2    H36   S    
C25   C27   A    
C12   H8    S    
C17   C18   A    
C16   H52   S    
C29   P6    S    
Ba1   O20   S    
C28   H54   S    
C43   C44   A    
C43   H44   S    
C32   H51   S    
C5    C9    A    
C50   H40   S    
C24   C25   A    
C52   H45   S    
C45   O3    S    
C40   H34   S    
C15   C24   A    
C54   H62   S    
C26   C27   A    
C34   H13   S    
C23   H11   S    
C16   H50   S    
C32   C33   A    
C34   H15   S    
C56   H20   S    
C36   C37   A    
O10   P6    S    
H58   N2    S    
O17   P3    D    
C13   C14   A    
C2    C60   A    
C9    C22   A    
Ba1   P2    S    
Ba1   Ba2   S    
O18   P3    S    
C13   P4    S    
Ba1   O16   S    
C34   H14   S    
O2    P5    D    
O1    P1    D    
C42   C51   S    
C37   H48   S    
C29   C30   A    
C16   H17   S    
C44   H46   S    
Ba2   O6    S    
C21   C22   A    
Ba1   O23   S    
Ba1   O10   S    
C23   O7    S    
C7    C8    A    
Ba1   P1    S    
C49   C53   A    
C57   H5    S    
Ba2   O23   S    
Ba2   P4    S    
O9    P8    S    
C39   C41   A    
O5    P2    S    
O22   P4    S    
C45   H18   S    
C58   H25   S    
C59   H27   S    
C44   C46   A    
C28   H53   S    
C4    C16   S    
C52   C54   S    
C40   H12   S    
C49   C50   A    
C54   H61   S    
Ba1   O15   S    
Ba1   O4    S    
C31   P1    S    
C40   H23   S    
C37   C38   A    
O3    P5    S    
C58   H24   S    
C6    C7    A    
O12   P2    S    
Ba2   O21   S    
C4    H28   S    
C25   H39   S    
O11   P6    D    
C58   C59   S    
Ba2   O19   S    
C4    H38   S    
C1    H9    S    
C41   C42   A    
C5    C60   A    
C35   H43   S    
C35   C36   A    
C59   H26   S    
C56   H22   S    
C57   H6    S    
C3    C5    A    
C52   O13   S    
O20   P4    S    
C48   P5    S    
Ba2   O5    S    
C23   H10   S    
C10   C11   A    
C17   C26   A    
C58   O9    S    
C1    C12   S    
O14   P6    S    
C18   C31   A    
H57   N1    S    
O8    P8    D    
C57   H7    S    
C12   O14   S    
C15   C60   A    
O24   P5    S    
C52   H56   S    
C11   H30   S    
C20   H31   S    
C32   C38   A    
C38   P3    S    
C1    H4    S    
C33   P2    S    
O19   P4    D    
C4    O18   S    
C50   C51   A    
C33   C35   A    
C55   H2    S    
C47   H47   S    
O6    P7    D    
C14   C20   A    
C53   H49   S    
C36   C46   S    
C26   C29   A    
C42   C43   A    
Ba1   O1    S    
C55   H3    S    
Ba1   O5    S    
C3    C6    A    
C28   O22   S    
Ba2   O20   S    
C48   C53   A    
C39   H42   S    
C30   C31   A    
C11   C13   A    
H59   N2    S    
C8    C14   A    
C56   H21   S    
C45   C56   S    
C2    C19   A    
C1    H16   S    
C22   C24   A    
C27   H32   S    
H55   N1    S    
C47   C51   A    
C12   H1    S    
O13   P1    S    
Ba2   O4    S    
C39   C46   A    
C49   P7    S    
C55   O12   S    
C3    H35   S    
O7    P7    S    
C45   H19   S    
O16   P3    S    
C7    C10   A    
C41   H41   S    
C55   C57   S    
C8    C9    A    
C23   C34   S    
C15   C17   A    
C6    N1    S    
C30   H33   S    
C18   C19   A    
C47   C48   A    
O4    P1    S    
C20   C21   A    
C28   C40   S    
C10   P8    S    
C19   N2    S    
O21   P8    S    
O23   P7    S    
C59   H29   S    
O15   P2    D    
C54   H60   S    
