data_mof_unit_31301.cif
_audit_creation_date              2012-12-10T16:53:09-0500
_audit_creation_method            fapswitch 2.2
_symmetry_space_group_name_H-M    P1
_symmetry_Int_Tables_number       1
_space_group_crystal_system       triclinic
_cell_length_a                    10.823824
_cell_length_b                    10.926636
_cell_length_c                    9.718534
_cell_angle_alpha                 87.782921
_cell_angle_beta                  89.149083
_cell_angle_gamma                 91.214731
_cell_volume                      1148.13164051

loop_
_atom_site_label
_atom_site_type_symbol
_atom_type_description
_atom_site_fract_x
_atom_site_fract_y
_atom_site_fract_z
_atom_type_partial_charge
C1    C     C_R   0.509233 0.265666 0.502734 0.807436
C2    C     C_R   0.060893 0.395610 0.574655 0.097137
C3    C     C_R   0.129565 0.489073 0.502327 -0.123105
C4    C     C_R   0.071582 0.576939 0.420949 -0.227105
C5    C     C_R   0.944232 0.578217 0.411607 -0.018831
C6    C     C_R   0.872031 0.492231 0.493445 -0.164686
C7    C     C_2   0.581937 0.934943 0.420392 0.152573
C8    C     C_2   0.493447 0.866552 0.487796 -0.301454
C9    C     C_2   0.572521 0.069276 0.406738 0.026715
C10   C     C_2   0.531957 0.133881 0.514417 -0.135684
C11   C     C_2   0.439056 0.419268 0.926429 0.263092
C12   C     C_R   0.262966 0.494602 0.501185 0.792527
C13   C     C_2   0.459820 0.409183 0.079811 0.014788
C14   C     C_R   0.498439 0.734439 0.497181 0.823700
C15   C     C_R   0.737788 0.500882 0.498216 0.798268
C16   C     C_R   0.119220 0.297773 0.645240 -0.175581
C17   C     C_R   0.049724 0.205070 0.714155 -0.134017
C18   C     C_R   0.921387 0.206531 0.711497 -0.121038
C19   C     C_R   0.861863 0.300608 0.639783 -0.128426
C20   C     C_R   0.930278 0.397356 0.571104 0.099396
Cu1   Cu    Cu3+1 0.500020 0.500020 0.638630 0.976407
Cu2   Cu    Cu3+1 0.499980 0.499980 0.361370 0.985239
H1    H     H_    0.127407 0.644500 0.361655 0.180249
H2    H     H_    0.572514 0.544422 0.888076 0.220906
H3    H     H_    0.437486 0.321729 0.131626 0.131610
H4    H     H_    0.218586 0.290289 0.645021 0.158045
H5    H     H_    0.095694 0.130754 0.767913 0.142501
H6    H     H_    0.867622 0.133254 0.763146 0.148072
H7    H     H_    0.762298 0.294198 0.636046 0.146647
H8    H     H_    0.412504 0.907650 0.532327 0.149917
N1    N     N_2   0.498640 0.498660 0.846910 -0.254362
N2    N     N_2   0.498610 0.498630 0.153040 -0.124682
O1    O     O_R   0.500020 0.321960 0.617040 -0.574213
O2    O     O_R   0.499980 0.321920 0.382900 -0.576151
O3    O     O_R   0.319670 0.500020 0.617100 -0.549122
O4    O     O_R   0.319630 0.499980 0.382950 -0.584364
O5    O     O_R   0.500020 0.678080 0.617100 -0.555895
O6    O     O_R   0.499980 0.678040 0.382960 -0.595180
O7    O     O_R   0.680370 0.500020 0.617050 -0.598712
O8    O     O_R   0.680330 0.499980 0.382900 -0.502623
N3    N     N_3   0.519370 0.075110 0.649321 -0.579995
H9    H     H_    0.582023 0.116715 0.714792 0.244809
H10   H     H_    0.429966 0.089516 0.686741 0.223549
N4    N     N_3   0.354850 0.334588 0.866901 -0.541561
H11   H     H_    0.384935 0.246098 0.890670 0.195906
H12   H     H_    0.268646 0.343777 0.914842 0.203650
N5    N     N_3   0.487505 0.615505 0.093417 -0.505945
H13   H     H_    0.412792 0.656058 0.141800 0.253121
H14   H     H_    0.567243 0.665249 0.117443 0.261402
C21   C     C_2   0.894447 0.671432 0.313303 0.806103
O9    O     O_2   0.815825 0.643477 0.230622 -0.585079
O10   O     O_R   0.947622 0.789419 0.306166 -0.766030
H15   H     H_    0.912573 0.843068 0.229413 0.349576
N6    N     N_3   0.688565 0.880442 0.360785 -0.554800
H16   H     H_    0.660179 0.824936 0.281564 0.259821
H17   H     H_    0.730805 0.826852 0.437311 0.226392
C22   C     C_2   0.621415 0.128306 0.275990 0.859565
O11   O     O_2   0.592704 0.086258 0.165844 -0.613650
O12   O     O_R   0.705066 0.227494 0.279196 -0.743522
H18   H     H_    0.732165 0.258882 0.183708 0.336697

loop_
_geom_bond_atom_site_label_1
_geom_bond_atom_site_label_2
_ccdc_geom_bond_type
C21   O10   S    
C18   H6    S    
Cu1   O3    S    
Cu1   O1    S    
C12   O4    A    
C2    C16   A    
N3    H9    S    
C15   O7    A    
C13   N2    D    
C19   C20   A    
Cu1   O7    S    
Cu2   O8    S    
C8    H8    S    
Cu1   N1    S    
C17   C18   A    
H2    N1    S    
C11   N1    D    
O12   H18   S    
N5    H14   S    
C19   H7    S    
Cu1   Cu2   S    
N4    H11   S    
C14   O5    A    
N3    H10   S    
C13   H3    S    
C22   O11   D    
Cu2   N2    S    
C10   N3    S    
N4    H12   S    
C1    O2    A    
C21   O9    D    
C9    C22   S    
C16   H4    S    
C5    C6    A    
Cu2   O2    S    
N2    N5    S    
N6    H17   S    
C5    C21   S    
C22   O12   S    
C11   C13   S    
C14   O6    A    
C15   O8    A    
C1    O1    A    
C3    C4    A    
C17   H5    S    
C11   N4    S    
C7    C8    D    
C6    C20   A    
O10   H15   S    
Cu1   O5    S    
C18   C19   A    
C9    C10   D    
C7    C9    S    
C4    H1    S    
N6    H16   S    
C16   C17   A    
C2    C3    A    
C3    C12   S    
C8    C14   S    
C7    N6    S    
C6    C15   S    
C2    C20   A    
Cu2   O4    S    
C1    C10   S    
N5    H13   S    
C4    C5    A    
C12   O3    A    
Cu2   O6    S    
