data_mof_unit_44190.cif
_audit_creation_date              2012-12-10T16:58:28-0500
_audit_creation_method            fapswitch 2.2
_symmetry_space_group_name_H-M    P1
_symmetry_Int_Tables_number       1
_space_group_crystal_system       triclinic
_cell_length_a                    7.844952
_cell_length_b                    8.621443
_cell_length_c                    22.910248
_cell_angle_alpha                 92.483768
_cell_angle_beta                  85.017629
_cell_angle_gamma                 92.680558
_cell_volume                      1540.7847662

loop_
_atom_site_label
_atom_site_type_symbol
_atom_type_description
_atom_site_fract_x
_atom_site_fract_y
_atom_site_fract_z
_atom_type_partial_charge
C1    C     C_R   0.544436 0.793438 0.498301 0.967782
C2    C     C_R   0.403360 0.380569 0.296656 -0.110671
C3    C     C_R   0.373585 0.678852 0.760520 0.116468
C4    C     C_R   0.387349 0.390284 0.236135 0.125272
C5    C     C_R   0.443667 0.573709 0.796342 0.246581
C6    C     C_R   0.440152 0.531285 0.208751 0.151063
C7    C     C_2   0.567177 0.955264 0.504363 -0.229537
C8    C     C_2   0.440923 0.044184 0.489030 -0.267644
C9    C     C_R   0.500749 0.504467 0.611065 0.867269
C10   C     C_R   0.499742 0.500919 0.389117 0.888177
C11   C     C_R   0.234086 0.499793 0.132064 0.553876
C12   C     C_R   0.456458 0.205868 0.500495 0.864906
C13   C     C_R   0.488941 0.703556 0.889016 0.529527
C14   C     C_R   0.408611 0.722749 0.133608 0.538744
C15   C     C_R   0.285706 0.489490 0.885153 0.521642
C16   C     C_R   0.412139 0.737267 0.072464 -0.097132
C17   C     C_R   0.250694 0.497478 0.946818 -0.072108
C18   C     C_R   0.327064 0.616887 0.040421 -0.018964
C19   C     C_R   0.339401 0.615331 0.978859 -0.026720
C20   C     C_R   0.227104 0.499916 0.070765 -0.066532
C21   C     C_R   0.444507 0.729852 0.949257 -0.065127
C22   C     C_R   0.496837 0.864159 0.042741 -0.045493
C23   C     C_R   0.550119 0.455543 0.772125 0.182285
C24   C     C_R   0.136693 0.389377 0.977407 -0.062647
C25   C     C_R   0.507390 0.862556 0.980862 -0.045457
C26   C     C_R   0.128435 0.388091 0.039286 -0.063331
C27   C     C_2   0.584384 0.993567 0.075164 0.418052
C28   C     C_2   0.028049 0.274411 0.945435 0.462178
C29   C     C_2   0.578419 0.002629 0.949970 0.616541
C30   C     C_2   0.021224 0.264113 0.069415 0.576731
C31   C     C_3   0.635592 0.356717 0.813273 -0.786371
C32   C     C_3   0.728725 0.679834 0.192053 -0.812703
C33   C     C_3   0.653879 0.283266 0.685044 -0.759477
C34   C     C_R   0.580683 0.615236 0.232109 0.225604
C35   C     C_3   0.720174 0.723962 0.322391 -0.759822
C36   C     C_2   0.369549 0.790167 0.660034 0.457459
C37   C     C_2   0.333303 0.242793 0.329402 0.434644
C38   C     C_3   0.258324 0.804272 0.787658 -0.620521
C39   C     C_3   0.360828 0.241493 0.199830 -0.552858
C40   C     C_2   0.717070 0.010860 0.537089 0.390581
C41   C     C_2   0.299005 0.989830 0.452453 0.440826
C42   C     C_3   0.019297 0.394766 0.428834 -0.440066
C43   C     C_3   0.980456 0.604495 0.571305 -0.412112
C44   C     C_R   0.569307 0.428704 0.710714 0.119537
C45   C     C_R   0.597865 0.610996 0.292685 0.154752
C46   C     C_R   0.500009 0.534566 0.674603 -0.190598
C47   C     C_R   0.497879 0.499445 0.325465 -0.190538
C48   C     C_R   0.412567 0.665805 0.699342 -0.091892
H1    H     H_    0.671837 0.968957 0.107388 0.112827
H2    H     H_    0.850795 0.636323 0.204719 0.268742
H3    H     H_    0.630918 0.256364 0.638679 0.252024
H4    H     H_    0.794296 0.295650 0.688209 0.243558
H5    H     H_    0.600919 0.180416 0.709230 0.259306
H6    H     H_    0.651879 0.783135 0.360973 0.243184
H7    H     H_    0.827930 0.660510 0.336897 0.247058
H8    H     H_    0.774476 0.816921 0.293525 0.246691
H9    H     H_    0.446935 0.807017 0.619231 0.093828
H10   H     H_    0.391420 0.210649 0.368091 0.040779
H11   H     H_    0.230705 0.798887 0.835716 0.218595
H12   H     H_    0.941626 0.313783 0.915205 0.093100
H13   H     H_    0.318463 0.920910 0.778636 0.268362
H14   H     H_    0.131668 0.791526 0.769422 0.259038
H15   H     H_    0.226508 0.195325 0.206143 0.311024
H16   H     H_    0.395705 0.258333 0.152670 0.252390
H17   H     H_    0.446497 0.152426 0.212858 0.233559
H18   H     H_    0.817406 0.087007 0.517002 0.115369
H19   H     H_    0.175164 0.041732 0.459647 0.068130
H20   H     H_    0.918070 0.320946 0.409156 0.189838
H21   H     H_    0.056926 0.489706 0.398478 0.207985
H22   H     H_    0.124471 0.317761 0.434144 0.191165
H23   H     H_    0.695611 0.061696 0.962395 0.071305
H24   H     H_    0.081360 0.678545 0.590920 0.203161
H25   H     H_    0.874558 0.681153 0.566382 0.235989
H26   H     H_    0.943704 0.509107 0.601549 0.189232
H27   H     H_    0.885401 0.252495 0.063722 0.055281
H28   H     H_    0.697011 0.432261 0.846669 0.228416
H29   H     H_    0.538332 0.277385 0.835694 0.295298
H30   H     H_    0.738305 0.286316 0.790988 0.253699
H31   H     H_    0.719103 0.640088 0.145680 0.214999
H32   H     H_    0.736868 0.808643 0.195217 0.262650
N1    N     N_R   0.363940 0.582094 0.156916 -0.319082
N2    N     N_R   0.406809 0.587855 0.858664 -0.344818
N3    N     N_2   0.950330 0.457950 0.484560 -0.031101
N4    N     N_2   0.049670 0.542050 0.515440 -0.021294
O1    O     O_R   0.389250 0.738570 0.503790 -0.590982
O2    O     O_2   0.616344 0.789037 0.860746 -0.533882
O3    O     O_2   0.440295 0.846394 0.169606 -0.568983
O4    O     O_2   0.205131 0.382204 0.851482 -0.556375
O5    O     O_2   0.559043 0.128711 0.066110 -0.609999
O6    O     O_2   0.037248 0.135255 0.951855 -0.548699
O7    O     O_2   0.501719 0.056407 0.911893 -0.539968
O8    O     O_2   0.086097 0.169017 0.097604 -0.523584
O9    O     O_2   0.247516 0.872164 0.671417 -0.579059
O10   O     O_2   0.208058 0.166562 0.314633 -0.548379
O11   O     O_2   0.732217 0.965779 0.586080 -0.608469
O12   O     O_R   0.610750 0.261430 0.496210 -0.633156
O13   O     O_2   0.322422 0.894196 0.411954 -0.548721
O14   O     O_R   0.678390 0.711620 0.493890 -0.632231
O15   O     O_R   0.321610 0.288380 0.506110 -0.636730
O16   O     O_R   0.355400 0.513520 0.588790 -0.618252
O17   O     O_R   0.644600 0.486480 0.411210 -0.619874
O18   O     O_R   0.644550 0.486570 0.578900 -0.628464
O19   O     O_R   0.355450 0.513430 0.421100 -0.609496
O20   O     O_2   0.109416 0.428316 0.166554 -0.557438
Zn1   Zn    Zn3+2 0.306930 0.518000 0.506610 0.976432
Zn2   Zn    Zn3+2 0.693070 0.482000 0.493390 0.943848

loop_
_geom_bond_atom_site_label_1
_geom_bond_atom_site_label_2
_ccdc_geom_bond_type
C43   H25   S    
C43   H24   S    
C5    N2    S    
C7    C8    D    
C41   H19   S    
C11   N1    A    
C33   H4    S    
C39   H16   S    
O16   Zn1   S    
C10   O19   A    
C19   C21   A    
C24   C26   A    
C14   O3    S    
C3    C48   A    
C42   H22   S    
C25   C29   S    
C18   C19   A    
C12   O15   A    
C21   C25   A    
C36   O9    D    
C3    C38   S    
C9    O18   A    
C22   C25   A    
C13   O2    S    
C7    C40   S    
C36   C48   S    
C11   O20   S    
C18   C20   A    
C37   H10   S    
C38   H13   S    
C43   H26   S    
C45   C47   A    
C9    C46   S    
C6    N1    S    
C40   H18   S    
C35   H6    S    
C42   H20   S    
C43   N4    S    
C39   H17   S    
O1    Zn1   S    
C44   C46   A    
C31   H29   S    
C15   N2    A    
C28   H12   S    
C33   H5    S    
O15   Zn1   S    
C46   C48   A    
C11   C20   A    
C17   C24   A    
C35   H7    S    
C8    C41   S    
C4    C6    A    
C36   H9    S    
C13   N2    A    
C42   H21   S    
C23   C44   A    
C6    C34   A    
C32   C34   S    
C2    C4    A    
C32   H32   S    
N3    N4    D    
C5    C23   A    
C4    C39   S    
C8    C12   S    
N4    Zn1   S    
C13   C21   A    
O19   Zn1   S    
C34   C45   A    
C32   H2    S    
C30   O8    D    
C26   C30   S    
C9    O16   A    
C22   C27   S    
C14   C16   A    
C1    O1    A    
C40   O11   D    
C35   C45   S    
C29   O7    D    
C31   H30   S    
O17   Zn2   S    
C15   C17   A    
O12   Zn2   S    
C16   C22   A    
C35   H8    S    
C1    C7    S    
C33   C44   S    
C10   O17   A    
C42   N3    S    
C24   C28   S    
C3    C5    A    
C1    O14   A    
C2    C47   A    
C33   H3    S    
C39   H15   S    
O14   Zn2   S    
N3    Zn2   S    
C32   H31   S    
C30   H27   S    
C2    C37   S    
C31   H28   S    
C20   C26   A    
C17   C19   A    
C37   O10   D    
C27   O5    D    
C41   O13   D    
C38   H11   S    
C16   C18   A    
O18   Zn2   S    
C10   C47   S    
C12   O12   A    
C28   O6    D    
C14   N1    A    
C29   H23   S    
C27   H1    S    
C23   C31   S    
C15   O4    S    
C38   H14   S    
